MODEL 1
REMARK VINA RESULT:      -6.8      0.000      0.000
REMARK  Name = 222284_BetaSitosterol.pdbqt.pdb
REMARK  5 active torsions:
REMARK  status: ('A' for Active; 'I' for Inactive)
REMARK    1  A    between atoms: C_5  and  C_22
REMARK    2  A    between atoms: C_19  and  O_20
REMARK    3  A    between atoms: C_22  and  C_24
REMARK    4  A    between atoms: C_25  and  C_26
REMARK    5  A    between atoms: C_26  and  C_30
REMARK                            x       y       z     vdW  Elec       q    Type
REMARK                         _______ _______ _______ _____ _____    ______ ____
ROOT
ATOM      1  C   UNL     1      53.455 217.259 331.899  0.00  0.00    +0.000 C 
ATOM      2  C   UNL     1      53.764 216.235 333.106  0.00  0.00    +0.000 C 
ATOM      3  C   UNL     1      54.887 216.443 334.042  0.00  0.00    +0.000 C 
ATOM      4  C   UNL     1      55.685 217.713 334.198  0.00  0.00    +0.000 C 
ATOM      5  C   UNL     1      51.941 217.403 331.928  0.00  0.00    +0.000 C 
ATOM      6  C   UNL     1      54.172 218.486 332.248  0.00  0.00    +0.000 C 
ATOM      7  C   UNL     1      56.908 217.852 335.145  0.00  0.00    +0.000 C 
ATOM      8  C   UNL     1      52.503 215.772 333.597  0.00  0.00    +0.000 C 
ATOM      9  C   UNL     1      55.231 218.716 333.299  0.00  0.00    +0.000 C 
ATOM     10  C   UNL     1      51.396 216.520 332.904  0.00  0.00    +0.000 C 
ATOM     11  C   UNL     1      55.232 215.460 335.002  0.00  0.00    +0.000 C 
ATOM     12  C   UNL     1      53.937 216.607 330.577  0.00  0.00    +0.000 C 
ATOM     13  C   UNL     1      57.007 216.667 336.292  0.00  0.00    +0.000 C 
ATOM     14  C   UNL     1      56.806 219.112 335.939  0.00  0.00    +0.000 C 
ATOM     15  C   UNL     1      56.268 215.622 336.072  0.00  0.00    +0.000 C 
ATOM     16  C   UNL     1      58.214 217.785 334.301  0.00  0.00    +0.000 C 
ATOM     17  C   UNL     1      57.122 217.132 337.655  0.00  0.00    +0.000 C 
ATOM     18  C   UNL     1      56.885 219.445 337.439  0.00  0.00    +0.000 C 
ATOM     19  C   UNL     1      57.082 218.376 338.361  0.00  0.00    +0.000 C 
ENDROOT
BRANCH  19  20
ATOM     20  O   UNL     1      57.752 218.565 339.535  0.00  0.00    +0.000 OA
ATOM     21  H   UNL     1      58.292 217.791 339.765  0.00  0.00    +0.000 HD
ENDBRANCH  19  20
BRANCH   5  22
ATOM     22  C   UNL     1      51.194 218.331 331.138  0.00  0.00    +0.000 C 
ATOM     23  C   UNL     1      51.491 218.573 329.680  0.00  0.00    +0.000 C 
BRANCH  22  24
ATOM     24  C   UNL     1      50.105 219.074 331.670  0.00  0.00    +0.000 C 
ATOM     25  C   UNL     1      48.944 219.901 332.241  0.00  0.00    +0.000 C 
BRANCH  25  26
ATOM     26  C   UNL     1      47.876 220.680 332.782  0.00  0.00    +0.000 C 
ATOM     27  C   UNL     1      47.081 220.176 333.881  0.00  0.00    +0.000 C 
ATOM     28  C   UNL     1      47.342 218.825 334.521  0.00  0.00    +0.000 C 
ATOM     29  C   UNL     1      45.907 220.923 334.475  0.00  0.00    +0.000 C 
BRANCH  26  30
ATOM     30  C   UNL     1      47.594 221.964 332.247  0.00  0.00    +0.000 C 
ATOM     31  C   UNL     1      47.339 223.352 331.646  0.00  0.00    +0.000 C 
ENDBRANCH  26  30
ENDBRANCH  25  26
ENDBRANCH  22  24
ENDBRANCH   5  22
TORSDOF 5
ENDMDL
MODEL 2
REMARK VINA RESULT:      -6.3     19.142     24.666
REMARK  Name = 222284_BetaSitosterol.pdbqt.pdb
REMARK  5 active torsions:
REMARK  status: ('A' for Active; 'I' for Inactive)
REMARK    1  A    between atoms: C_5  and  C_22
REMARK    2  A    between atoms: C_19  and  O_20
REMARK    3  A    between atoms: C_22  and  C_24
REMARK    4  A    between atoms: C_25  and  C_26
REMARK    5  A    between atoms: C_26  and  C_30
REMARK                            x       y       z     vdW  Elec       q    Type
REMARK                         _______ _______ _______ _____ _____    ______ ____
ROOT
ATOM      1  C   UNL     1      76.048 222.966 344.219  0.00  0.00    +0.000 C 
ATOM      2  C   UNL     1      75.568 223.940 343.027  0.00  0.00    +0.000 C 
ATOM      3  C   UNL     1      74.767 223.448 341.887  0.00  0.00    +0.000 C 
ATOM      4  C   UNL     1      74.061 222.118 341.811  0.00  0.00    +0.000 C 
ATOM      5  C   UNL     1      75.806 223.789 345.475  0.00  0.00    +0.000 C 
ATOM      6  C   UNL     1      75.190 221.784 344.114  0.00  0.00    +0.000 C 
ATOM      7  C   UNL     1      73.296 221.619 340.555  0.00  0.00    +0.000 C 
ATOM      8  C   UNL     1      75.265 225.208 343.616  0.00  0.00    +0.000 C 
ATOM      9  C   UNL     1      74.275 221.357 342.993  0.00  0.00    +0.000 C 
ATOM     10  C   UNL     1      75.372 225.097 345.113  0.00  0.00    +0.000 C 
ATOM     11  C   UNL     1      74.482 224.283 340.779  0.00  0.00    +0.000 C 
ATOM     12  C   UNL     1      77.556 222.665 344.020  0.00  0.00    +0.000 C 
ATOM     13  C   UNL     1      72.930 222.813 339.474  0.00  0.00    +0.000 C 
ATOM     14  C   UNL     1      71.965 221.069 340.946  0.00  0.00    +0.000 C 
ATOM     15  C   UNL     1      73.582 223.924 339.636  0.00  0.00    +0.000 C 
ATOM     16  C   UNL     1      74.174 220.575 339.807  0.00  0.00    +0.000 C 
ATOM     17  C   UNL     1      71.538 222.900 339.095  0.00  0.00    +0.000 C 
ATOM     18  C   UNL     1      70.520 221.321 340.481  0.00  0.00    +0.000 C 
ATOM     19  C   UNL     1      70.296 222.293 339.462  0.00  0.00    +0.000 C 
ENDROOT
BRANCH  19  20
ATOM     20  O   UNL     1      69.260 222.174 338.583  0.00  0.00    +0.000 OA
ATOM     21  H   UNL     1      68.519 221.677 338.970  0.00  0.00    +0.000 HD
ENDBRANCH  19  20
BRANCH   5  22
ATOM     22  C   UNL     1      75.938 223.298 346.811  0.00  0.00    +0.000 C 
ATOM     23  C   UNL     1      77.257 222.833 347.375  0.00  0.00    +0.000 C 
BRANCH  22  24
ATOM     24  C   UNL     1      74.837 223.234 347.707  0.00  0.00    +0.000 C 
ATOM     25  C   UNL     1      73.638 223.141 348.662  0.00  0.00    +0.000 C 
BRANCH  25  26
ATOM     26  C   UNL     1      72.512 223.049 349.535  0.00  0.00    +0.000 C 
ATOM     27  C   UNL     1      72.422 221.984 350.511  0.00  0.00    +0.000 C 
ATOM     28  C   UNL     1      73.506 220.935 350.672  0.00  0.00    +0.000 C 
ATOM     29  C   UNL     1      71.240 221.795 351.436  0.00  0.00    +0.000 C 
BRANCH  26  30
ATOM     30  C   UNL     1      71.472 224.013 349.455  0.00  0.00    +0.000 C 
ATOM     31  C   UNL     1      70.365 225.064 349.317  0.00  0.00    +0.000 C 
ENDBRANCH  26  30
ENDBRANCH  25  26
ENDBRANCH  22  24
ENDBRANCH   5  22
TORSDOF 5
ENDMDL
MODEL 3
REMARK VINA RESULT:      -6.3      5.493     10.406
REMARK  Name = 222284_BetaSitosterol.pdbqt.pdb
REMARK  5 active torsions:
REMARK  status: ('A' for Active; 'I' for Inactive)
REMARK    1  A    between atoms: C_5  and  C_22
REMARK    2  A    between atoms: C_19  and  O_20
REMARK    3  A    between atoms: C_22  and  C_24
REMARK    4  A    between atoms: C_25  and  C_26
REMARK    5  A    between atoms: C_26  and  C_30
REMARK                            x       y       z     vdW  Elec       q    Type
REMARK                         _______ _______ _______ _____ _____    ______ ____
ROOT
ATOM      1  C   UNL     1      45.931 223.656 328.379  0.00  0.00    +0.000 C 
ATOM      2  C   UNL     1      46.573 223.762 329.855  0.00  0.00    +0.000 C 
ATOM      3  C   UNL     1      46.945 222.564 330.635  0.00  0.00    +0.000 C 
ATOM      4  C   UNL     1      47.059 221.159 330.099  0.00  0.00    +0.000 C 
ATOM      5  C   UNL     1      46.655 224.740 327.594  0.00  0.00    +0.000 C 
ATOM      6  C   UNL     1      46.237 222.298 327.927  0.00  0.00    +0.000 C 
ATOM      7  C   UNL     1      47.378 219.923 330.983  0.00  0.00    +0.000 C 
ATOM      8  C   UNL     1      47.428 224.909 329.860  0.00  0.00    +0.000 C 
ATOM      9  C   UNL     1      46.740 221.112 328.715  0.00  0.00    +0.000 C 
ATOM     10  C   UNL     1      47.505 225.476 328.468  0.00  0.00    +0.000 C 
ATOM     11  C   UNL     1      47.368 222.671 331.983  0.00  0.00    +0.000 C 
ATOM     12  C   UNL     1      44.414 223.953 328.490  0.00  0.00    +0.000 C 
ATOM     13  C   UNL     1      48.018 220.299 332.459  0.00  0.00    +0.000 C 
ATOM     14  C   UNL     1      48.432 219.085 330.339  0.00  0.00    +0.000 C 
ATOM     15  C   UNL     1      47.881 221.539 332.821  0.00  0.00    +0.000 C 
ATOM     16  C   UNL     1      46.064 219.130 331.241  0.00  0.00    +0.000 C 
ATOM     17  C   UNL     1      49.263 219.640 332.781  0.00  0.00    +0.000 C 
ATOM     18  C   UNL     1      49.776 218.503 330.807  0.00  0.00    +0.000 C 
ATOM     19  C   UNL     1      50.210 218.783 332.136  0.00  0.00    +0.000 C 
ENDROOT
BRANCH  19  20
ATOM     20  O   UNL     1      50.978 217.898 332.834  0.00  0.00    +0.000 OA
ATOM     21  H   UNL     1      51.365 218.309 333.626  0.00  0.00    +0.000 HD
ENDBRANCH  19  20
BRANCH   5  22
ATOM     22  C   UNL     1      46.538 224.943 326.184  0.00  0.00    +0.000 C 
ATOM     23  C   UNL     1      45.625 225.985 325.590  0.00  0.00    +0.000 C 
BRANCH  22  24
ATOM     24  C   UNL     1      47.291 224.187 325.245  0.00  0.00    +0.000 C 
ATOM     25  C   UNL     1      48.102 223.346 324.248  0.00  0.00    +0.000 C 
BRANCH  25  26
ATOM     26  C   UNL     1      48.866 222.557 323.335  0.00  0.00    +0.000 C 
ATOM     27  C   UNL     1      48.996 221.129 323.527  0.00  0.00    +0.000 C 
ATOM     28  C   UNL     1      48.325 220.398 324.675  0.00  0.00    +0.000 C 
ATOM     29  C   UNL     1      49.825 220.236 322.630  0.00  0.00    +0.000 C 
BRANCH  26  30
ATOM     30  C   UNL     1      49.500 223.173 322.223  0.00  0.00    +0.000 C 
ATOM     31  C   UNL     1      50.141 223.824 320.992  0.00  0.00    +0.000 C 
ENDBRANCH  26  30
ENDBRANCH  25  26
ENDBRANCH  22  24
ENDBRANCH   5  22
TORSDOF 5
ENDMDL
MODEL 4
REMARK VINA RESULT:      -6.3     27.159     31.743
REMARK  Name = 222284_BetaSitosterol.pdbqt.pdb
REMARK  5 active torsions:
REMARK  status: ('A' for Active; 'I' for Inactive)
REMARK    1  A    between atoms: C_5  and  C_22
REMARK    2  A    between atoms: C_19  and  O_20
REMARK    3  A    between atoms: C_22  and  C_24
REMARK    4  A    between atoms: C_25  and  C_26
REMARK    5  A    between atoms: C_26  and  C_30
REMARK                            x       y       z     vdW  Elec       q    Type
REMARK                         _______ _______ _______ _____ _____    ______ ____
ROOT
ATOM      1  C   UNL     1      55.781 249.545 323.691  0.00  0.00    +0.000 C 
ATOM      2  C   UNL     1      54.981 249.448 325.088  0.00  0.00    +0.000 C 
ATOM      3  C   UNL     1      54.108 248.301 325.413  0.00  0.00    +0.000 C 
ATOM      4  C   UNL     1      54.064 246.986 324.676  0.00  0.00    +0.000 C 
ATOM      5  C   UNL     1      57.158 250.045 324.100  0.00  0.00    +0.000 C 
ATOM      6  C   UNL     1      55.783 248.181 323.158  0.00  0.00    +0.000 C 
ATOM      7  C   UNL     1      53.069 245.842 325.014  0.00  0.00    +0.000 C 
ATOM      8  C   UNL     1      55.826 250.008 326.097  0.00  0.00    +0.000 C 
ATOM      9  C   UNL     1      54.975 246.980 323.585  0.00  0.00    +0.000 C 
ATOM     10  C   UNL     1      57.168 250.331 325.496  0.00  0.00    +0.000 C 
ATOM     11  C   UNL     1      53.300 248.304 326.576  0.00  0.00    +0.000 C 
ATOM     12  C   UNL     1      55.051 250.570 322.786  0.00  0.00    +0.000 C 
ATOM     13  C   UNL     1      52.368 245.980 326.504  0.00  0.00    +0.000 C 
ATOM     14  C   UNL     1      53.787 244.535 325.075  0.00  0.00    +0.000 C 
ATOM     15  C   UNL     1      52.477 247.148 327.060  0.00  0.00    +0.000 C 
ATOM     16  C   UNL     1      51.921 245.841 323.964  0.00  0.00    +0.000 C 
ATOM     17  C   UNL     1      52.489 244.818 327.355  0.00  0.00    +0.000 C 
ATOM     18  C   UNL     1      53.871 243.403 326.113  0.00  0.00    +0.000 C 
ATOM     19  C   UNL     1      53.147 243.548 327.333  0.00  0.00    +0.000 C 
ENDROOT
BRANCH  19  20
ATOM     20  O   UNL     1      52.652 242.464 327.998  0.00  0.00    +0.000 OA
ATOM     21  H   UNL     1      53.135 242.303 328.826  0.00  0.00    +0.000 HD
ENDBRANCH  19  20
BRANCH   5  22
ATOM     22  C   UNL     1      58.283 250.149 323.224  0.00  0.00    +0.000 C 
ATOM     23  C   UNL     1      59.250 251.305 323.285  0.00  0.00    +0.000 C 
BRANCH  22  24
ATOM     24  C   UNL     1      58.576 249.160 322.247  0.00  0.00    +0.000 C 
ATOM     25  C   UNL     1      58.905 248.111 321.174  0.00  0.00    +0.000 C 
BRANCH  25  26
ATOM     26  C   UNL     1      59.205 247.147 320.164  0.00  0.00    +0.000 C 
ATOM     27  C   UNL     1      58.414 245.942 320.038  0.00  0.00    +0.000 C 
ATOM     28  C   UNL     1      57.233 245.647 320.943  0.00  0.00    +0.000 C 
ATOM     29  C   UNL     1      58.700 244.856 319.025  0.00  0.00    +0.000 C 
BRANCH  26  30
ATOM     30  C   UNL     1      60.282 247.373 319.266  0.00  0.00    +0.000 C 
ATOM     31  C   UNL     1      61.479 247.598 318.336  0.00  0.00    +0.000 C 
ENDBRANCH  26  30
ENDBRANCH  25  26
ENDBRANCH  22  24
ENDBRANCH   5  22
TORSDOF 5
ENDMDL
MODEL 5
REMARK VINA RESULT:      -6.2     17.007     19.998
REMARK  Name = 222284_BetaSitosterol.pdbqt.pdb
REMARK  5 active torsions:
REMARK  status: ('A' for Active; 'I' for Inactive)
REMARK    1  A    between atoms: C_5  and  C_22
REMARK    2  A    between atoms: C_19  and  O_20
REMARK    3  A    between atoms: C_22  and  C_24
REMARK    4  A    between atoms: C_25  and  C_26
REMARK    5  A    between atoms: C_26  and  C_30
REMARK                            x       y       z     vdW  Elec       q    Type
REMARK                         _______ _______ _______ _____ _____    ______ ____
ROOT
ATOM      1  C   UNL     1      55.247 223.135 354.458  0.00  0.00    +0.000 C 
ATOM      2  C   UNL     1      56.699 222.453 354.625  0.00  0.00    +0.000 C 
ATOM      3  C   UNL     1      56.967 221.065 354.196  0.00  0.00    +0.000 C 
ATOM      4  C   UNL     1      56.075 220.222 353.318  0.00  0.00    +0.000 C 
ATOM      5  C   UNL     1      55.564 224.535 353.954  0.00  0.00    +0.000 C 
ATOM      6  C   UNL     1      54.545 222.302 353.480  0.00  0.00    +0.000 C 
ATOM      7  C   UNL     1      56.370 218.740 352.962  0.00  0.00    +0.000 C 
ATOM      8  C   UNL     1      57.673 223.473 354.386  0.00  0.00    +0.000 C 
ATOM      9  C   UNL     1      54.899 220.933 352.952  0.00  0.00    +0.000 C 
ATOM     10  C   UNL     1      56.975 224.729 353.937  0.00  0.00    +0.000 C 
ATOM     11  C   UNL     1      58.202 220.435 354.485  0.00  0.00    +0.000 C 
ATOM     12  C   UNL     1      54.567 223.173 355.850  0.00  0.00    +0.000 C 
ATOM     13  C   UNL     1      57.932 218.280 353.237  0.00  0.00    +0.000 C 
ATOM     14  C   UNL     1      56.182 218.514 351.498  0.00  0.00    +0.000 C 
ATOM     15  C   UNL     1      58.619 219.083 353.993  0.00  0.00    +0.000 C 
ATOM     16  C   UNL     1      55.461 217.820 353.827  0.00  0.00    +0.000 C 
ATOM     17  C   UNL     1      58.608 217.676 352.112  0.00  0.00    +0.000 C 
ATOM     18  C   UNL     1      57.050 217.899 350.387  0.00  0.00    +0.000 C 
ATOM     19  C   UNL     1      58.351 217.423 350.728  0.00  0.00    +0.000 C 
ENDROOT
BRANCH  19  20
ATOM     20  O   UNL     1      58.920 216.376 350.064  0.00  0.00    +0.000 OA
ATOM     21  H   UNL     1      59.835 216.226 350.354  0.00  0.00    +0.000 HD
ENDBRANCH  19  20
BRANCH   5  22
ATOM     22  C   UNL     1      54.590 225.483 353.511  0.00  0.00    +0.000 C 
ATOM     23  C   UNL     1      54.832 226.971 353.556  0.00  0.00    +0.000 C 
BRANCH  22  24
ATOM     24  C   UNL     1      53.334 225.086 352.979  0.00  0.00    +0.000 C 
ATOM     25  C   UNL     1      51.969 224.684 352.401  0.00  0.00    +0.000 C 
BRANCH  25  26
ATOM     26  C   UNL     1      50.691 224.324 351.875  0.00  0.00    +0.000 C 
ATOM     27  C   UNL     1      49.586 225.256 351.922  0.00  0.00    +0.000 C 
ATOM     28  C   UNL     1      49.722 226.650 352.506  0.00  0.00    +0.000 C 
ATOM     29  C   UNL     1      48.194 224.929 351.429  0.00  0.00    +0.000 C 
BRANCH  26  30
ATOM     30  C   UNL     1      50.500 223.043 351.291  0.00  0.00    +0.000 C 
ATOM     31  C   UNL     1      50.253 221.652 350.696  0.00  0.00    +0.000 C 
ENDBRANCH  26  30
ENDBRANCH  25  26
ENDBRANCH  22  24
ENDBRANCH   5  22
TORSDOF 5
ENDMDL
MODEL 6
REMARK VINA RESULT:      -6.1     18.720     22.579
REMARK  Name = 222284_BetaSitosterol.pdbqt.pdb
REMARK  5 active torsions:
REMARK  status: ('A' for Active; 'I' for Inactive)
REMARK    1  A    between atoms: C_5  and  C_22
REMARK    2  A    between atoms: C_19  and  O_20
REMARK    3  A    between atoms: C_22  and  C_24
REMARK    4  A    between atoms: C_25  and  C_26
REMARK    5  A    between atoms: C_26  and  C_30
REMARK                            x       y       z     vdW  Elec       q    Type
REMARK                         _______ _______ _______ _____ _____    ______ ____
ROOT
ATOM      1  C   UNL     1      56.534 227.229 354.146  0.00  0.00    +0.000 C 
ATOM      2  C   UNL     1      56.221 225.687 353.795  0.00  0.00    +0.000 C 
ATOM      3  C   UNL     1      54.842 225.185 353.630  0.00  0.00    +0.000 C 
ATOM      4  C   UNL     1      53.604 226.033 353.475  0.00  0.00    +0.000 C 
ATOM      5  C   UNL     1      57.707 227.573 353.241  0.00  0.00    +0.000 C 
ATOM      6  C   UNL     1      55.304 227.952 353.817  0.00  0.00    +0.000 C 
ATOM      7  C   UNL     1      52.167 225.451 353.384  0.00  0.00    +0.000 C 
ATOM      8  C   UNL     1      57.252 225.240 352.909  0.00  0.00    +0.000 C 
ATOM      9  C   UNL     1      53.923 227.417 353.525  0.00  0.00    +0.000 C 
ATOM     10  C   UNL     1      58.131 226.406 352.543  0.00  0.00    +0.000 C 
ATOM     11  C   UNL     1      54.581 223.802 353.468  0.00  0.00    +0.000 C 
ATOM     12  C   UNL     1      56.929 227.314 355.643  0.00  0.00    +0.000 C 
ATOM     13  C   UNL     1      52.117 223.840 353.023  0.00  0.00    +0.000 C 
ATOM     14  C   UNL     1      51.421 226.093 352.262  0.00  0.00    +0.000 C 
ATOM     15  C   UNL     1      53.239 223.204 353.174  0.00  0.00    +0.000 C 
ATOM     16  C   UNL     1      51.456 225.637 354.755  0.00  0.00    +0.000 C 
ATOM     17  C   UNL     1      51.291 223.484 351.891  0.00  0.00    +0.000 C 
ATOM     18  C   UNL     1      50.625 225.561 351.058  0.00  0.00    +0.000 C 
ATOM     19  C   UNL     1      50.535 224.150 350.875  0.00  0.00    +0.000 C 
ENDROOT
BRANCH  19  20
ATOM     20  O   UNL     1      49.443 223.578 350.293  0.00  0.00    +0.000 OA
ATOM     21  H   UNL     1      48.618 223.994 350.595  0.00  0.00    +0.000 HD
ENDBRANCH  19  20
BRANCH   5  22
ATOM     22  C   UNL     1      58.255 228.884 353.077  0.00  0.00    +0.000 C 
ATOM     23  C   UNL     1      57.544 230.123 353.558  0.00  0.00    +0.000 C 
BRANCH  22  24
ATOM     24  C   UNL     1      59.519 229.105 352.465  0.00  0.00    +0.000 C 
ATOM     25  C   UNL     1      60.896 229.347 351.830  0.00  0.00    +0.000 C 
BRANCH  25  26
ATOM     26  C   UNL     1      62.180 229.587 351.252  0.00  0.00    +0.000 C 
ATOM     27  C   UNL     1      62.304 230.343 350.024  0.00  0.00    +0.000 C 
ATOM     28  C   UNL     1      61.104 230.928 349.304  0.00  0.00    +0.000 C 
ATOM     29  C   UNL     1      63.623 230.597 349.329  0.00  0.00    +0.000 C 
BRANCH  26  30
ATOM     30  C   UNL     1      63.348 229.089 351.887  0.00  0.00    +0.000 C 
ATOM     31  C   UNL     1      64.579 228.541 352.618  0.00  0.00    +0.000 C 
ENDBRANCH  26  30
ENDBRANCH  25  26
ENDBRANCH  22  24
ENDBRANCH   5  22
TORSDOF 5
ENDMDL
MODEL 7
REMARK VINA RESULT:      -6.1     13.437     17.212
REMARK  Name = 222284_BetaSitosterol.pdbqt.pdb
REMARK  5 active torsions:
REMARK  status: ('A' for Active; 'I' for Inactive)
REMARK    1  A    between atoms: C_5  and  C_22
REMARK    2  A    between atoms: C_19  and  O_20
REMARK    3  A    between atoms: C_22  and  C_24
REMARK    4  A    between atoms: C_25  and  C_26
REMARK    5  A    between atoms: C_26  and  C_30
REMARK                            x       y       z     vdW  Elec       q    Type
REMARK                         _______ _______ _______ _____ _____    ______ ____
ROOT
ATOM      1  C   UNL     1      67.281 219.353 336.302  0.00  0.00    +0.000 C 
ATOM      2  C   UNL     1      68.794 219.627 335.817  0.00  0.00    +0.000 C 
ATOM      3  C   UNL     1      69.573 220.787 336.295  0.00  0.00    +0.000 C 
ATOM      4  C   UNL     1      69.215 221.672 337.463  0.00  0.00    +0.000 C 
ATOM      5  C   UNL     1      67.251 217.853 336.556  0.00  0.00    +0.000 C 
ATOM      6  C   UNL     1      67.118 220.159 337.513  0.00  0.00    +0.000 C 
ATOM      7  C   UNL     1      70.031 222.927 337.875  0.00  0.00    +0.000 C 
ATOM      8  C   UNL     1      69.428 218.352 335.678  0.00  0.00    +0.000 C 
ATOM      9  C   UNL     1      67.993 221.260 338.061  0.00  0.00    +0.000 C 
ATOM     10  C   UNL     1      68.495 217.278 336.170  0.00  0.00    +0.000 C 
ATOM     11  C   UNL     1      70.843 221.092 335.747  0.00  0.00    +0.000 C 
ATOM     12  C   UNL     1      66.324 219.753 335.150  0.00  0.00    +0.000 C 
ATOM     13  C   UNL     1      71.552 222.980 337.233  0.00  0.00    +0.000 C 
ATOM     14  C   UNL     1      70.263 222.932 339.349  0.00  0.00    +0.000 C 
ATOM     15  C   UNL     1      71.763 222.167 336.242  0.00  0.00    +0.000 C 
ATOM     16  C   UNL     1      69.283 224.202 337.387  0.00  0.00    +0.000 C 
ATOM     17  C   UNL     1      72.621 223.164 338.188  0.00  0.00    +0.000 C 
ATOM     18  C   UNL     1      71.510 223.075 340.240  0.00  0.00    +0.000 C 
ATOM     19  C   UNL     1      72.779 223.226 339.609  0.00  0.00    +0.000 C 
ENDROOT
BRANCH  19  20
ATOM     20  O   UNL     1      73.783 223.940 340.195  0.00  0.00    +0.000 OA
ATOM     21  H   UNL     1      74.634 223.789 339.751  0.00  0.00    +0.000 HD
ENDBRANCH  19  20
BRANCH   5  22
ATOM     22  C   UNL     1      66.158 217.147 337.148  0.00  0.00    +0.000 C 
ATOM     23  C   UNL     1      64.953 216.709 336.355  0.00  0.00    +0.000 C 
BRANCH  22  24
ATOM     24  C   UNL     1      66.143 216.792 338.525  0.00  0.00    +0.000 C 
ATOM     25  C   UNL     1      66.148 216.426 340.016  0.00  0.00    +0.000 C 
BRANCH  25  26
ATOM     26  C   UNL     1      66.173 216.085 341.403  0.00  0.00    +0.000 C 
ATOM     27  C   UNL     1      67.409 216.140 342.152  0.00  0.00    +0.000 C 
ATOM     28  C   UNL     1      68.722 216.571 341.526  0.00  0.00    +0.000 C 
ATOM     29  C   UNL     1      67.522 215.749 343.609  0.00  0.00    +0.000 C 
BRANCH  26  30
ATOM     30  C   UNL     1      64.975 215.697 342.058  0.00  0.00    +0.000 C 
ATOM     31  C   UNL     1      63.699 215.226 342.765  0.00  0.00    +0.000 C 
ENDBRANCH  26  30
ENDBRANCH  25  26
ENDBRANCH  22  24
ENDBRANCH   5  22
TORSDOF 5
ENDMDL
MODEL 8
REMARK VINA RESULT:      -6.1     22.560     27.829
REMARK  Name = 222284_BetaSitosterol.pdbqt.pdb
REMARK  5 active torsions:
REMARK  status: ('A' for Active; 'I' for Inactive)
REMARK    1  A    between atoms: C_5  and  C_22
REMARK    2  A    between atoms: C_19  and  O_20
REMARK    3  A    between atoms: C_22  and  C_24
REMARK    4  A    between atoms: C_25  and  C_26
REMARK    5  A    between atoms: C_26  and  C_30
REMARK                            x       y       z     vdW  Elec       q    Type
REMARK                         _______ _______ _______ _____ _____    ______ ____
ROOT
ATOM      1  C   UNL     1      51.578 243.904 324.150  0.00  0.00    +0.000 C 
ATOM      2  C   UNL     1      51.193 242.997 325.426  0.00  0.00    +0.000 C 
ATOM      3  C   UNL     1      50.257 241.858 325.325  0.00  0.00    +0.000 C 
ATOM      4  C   UNL     1      49.779 241.217 324.046  0.00  0.00    +0.000 C 
ATOM      5  C   UNL     1      53.080 244.099 324.288  0.00  0.00    +0.000 C 
ATOM      6  C   UNL     1      51.192 243.106 322.985  0.00  0.00    +0.000 C 
ATOM      7  C   UNL     1      48.733 240.070 323.996  0.00  0.00    +0.000 C 
ATOM      8  C   UNL     1      52.371 242.881 326.230  0.00  0.00    +0.000 C 
ATOM      9  C   UNL     1      50.336 241.865 322.910  0.00  0.00    +0.000 C 
ATOM     10  C   UNL     1      53.527 243.521 325.510  0.00  0.00    +0.000 C 
ATOM     11  C   UNL     1      49.818 241.167 326.481  0.00  0.00    +0.000 C 
ATOM     12  C   UNL     1      50.817 245.250 324.266  0.00  0.00    +0.000 C 
ATOM     13  C   UNL     1      48.509 239.301 325.441  0.00  0.00    +0.000 C 
ATOM     14  C   UNL     1      49.198 238.986 323.081  0.00  0.00    +0.000 C 
ATOM     15  C   UNL     1      48.972 239.930 326.479  0.00  0.00    +0.000 C 
ATOM     16  C   UNL     1      47.356 240.658 323.570  0.00  0.00    +0.000 C 
ATOM     17  C   UNL     1      48.655 237.864 325.407  0.00  0.00    +0.000 C 
ATOM     18  C   UNL     1      49.366 237.463 323.219  0.00  0.00    +0.000 C 
ATOM     19  C   UNL     1      49.047 236.857 324.469  0.00  0.00    +0.000 C 
ENDROOT
BRANCH  19  20
ATOM     20  O   UNL     1      48.573 235.579 324.538  0.00  0.00    +0.000 OA
ATOM     21  H   UNL     1      49.290 234.942 324.697  0.00  0.00    +0.000 HD
ENDBRANCH  19  20
BRANCH   5  22
ATOM     22  C   UNL     1      53.917 244.717 323.307  0.00  0.00    +0.000 C 
ATOM     23  C   UNL     1      54.140 244.117 321.941  0.00  0.00    +0.000 C 
BRANCH  22  24
ATOM     24  C   UNL     1      54.580 245.952 323.546  0.00  0.00    +0.000 C 
ATOM     25  C   UNL     1      55.270 247.299 323.803  0.00  0.00    +0.000 C 
BRANCH  25  26
ATOM     26  C   UNL     1      55.902 248.560 324.029  0.00  0.00    +0.000 C 
ATOM     27  C   UNL     1      55.553 249.361 325.182  0.00  0.00    +0.000 C 
ATOM     28  C   UNL     1      54.530 248.910 326.207  0.00  0.00    +0.000 C 
ATOM     29  C   UNL     1      56.144 250.725 325.462  0.00  0.00    +0.000 C 
BRANCH  26  30
ATOM     30  C   UNL     1      56.887 249.032 323.122  0.00  0.00    +0.000 C 
ATOM     31  C   UNL     1      57.985 249.548 322.184  0.00  0.00    +0.000 C 
ENDBRANCH  26  30
ENDBRANCH  25  26
ENDBRANCH  22  24
ENDBRANCH   5  22
TORSDOF 5
ENDMDL
MODEL 9
REMARK VINA RESULT:      -6.0     26.829     31.065
REMARK  Name = 222284_BetaSitosterol.pdbqt.pdb
REMARK  5 active torsions:
REMARK  status: ('A' for Active; 'I' for Inactive)
REMARK    1  A    between atoms: C_5  and  C_22
REMARK    2  A    between atoms: C_19  and  O_20
REMARK    3  A    between atoms: C_22  and  C_24
REMARK    4  A    between atoms: C_25  and  C_26
REMARK    5  A    between atoms: C_26  and  C_30
REMARK                            x       y       z     vdW  Elec       q    Type
REMARK                         _______ _______ _______ _____ _____    ______ ____
ROOT
ATOM      1  C   UNL     1      53.748 246.755 323.881  0.00  0.00    +0.000 C 
ATOM      2  C   UNL     1      55.069 247.151 323.045  0.00  0.00    +0.000 C 
ATOM      3  C   UNL     1      55.872 248.347 323.369  0.00  0.00    +0.000 C 
ATOM      4  C   UNL     1      55.771 249.166 324.632  0.00  0.00    +0.000 C 
ATOM      5  C   UNL     1      53.874 245.250 324.060  0.00  0.00    +0.000 C 
ATOM      6  C   UNL     1      53.850 247.508 325.133  0.00  0.00    +0.000 C 
ATOM      7  C   UNL     1      56.587 250.462 324.886  0.00  0.00    +0.000 C 
ATOM      8  C   UNL     1      55.722 245.929 322.688  0.00  0.00    +0.000 C 
ATOM      9  C   UNL     1      54.767 248.650 325.497  0.00  0.00    +0.000 C 
ATOM     10  C   UNL     1      55.011 244.777 323.345  0.00  0.00    +0.000 C 
ATOM     11  C   UNL     1      56.940 248.759 322.535  0.00  0.00    +0.000 C 
ATOM     12  C   UNL     1      52.507 247.124 323.028  0.00  0.00    +0.000 C 
ATOM     13  C   UNL     1      57.890 250.643 323.886  0.00  0.00    +0.000 C 
ATOM     14  C   UNL     1      57.186 250.435 326.253  0.00  0.00    +0.000 C 
ATOM     15  C   UNL     1      57.890 249.880 322.836  0.00  0.00    +0.000 C 
ATOM     16  C   UNL     1      55.664 251.696 324.666  0.00  0.00    +0.000 C 
ATOM     17  C   UNL     1      59.153 250.871 324.549  0.00  0.00    +0.000 C 
ATOM     18  C   UNL     1      58.607 250.637 326.808  0.00  0.00    +0.000 C 
ATOM     19  C   UNL     1      59.663 250.898 325.886  0.00  0.00    +0.000 C 
ENDROOT
BRANCH  19  20
ATOM     20  O   UNL     1      60.738 251.662 326.236  0.00  0.00    +0.000 OA
ATOM     21  H   UNL     1      60.888 251.647 327.196  0.00  0.00    +0.000 HD
ENDBRANCH  19  20
BRANCH   5  22
ATOM     22  C   UNL     1      53.012 244.449 324.873  0.00  0.00    +0.000 C 
ATOM     23  C   UNL     1      52.464 243.124 324.408  0.00  0.00    +0.000 C 
BRANCH  22  24
ATOM     24  C   UNL     1      52.629 244.841 326.184  0.00  0.00    +0.000 C 
ATOM     25  C   UNL     1      52.192 245.278 327.590  0.00  0.00    +0.000 C 
BRANCH  25  26
ATOM     26  C   UNL     1      51.783 245.703 328.891  0.00  0.00    +0.000 C 
ATOM     27  C   UNL     1      52.270 246.947 329.446  0.00  0.00    +0.000 C 
ATOM     28  C   UNL     1      53.210 247.864 328.686  0.00  0.00    +0.000 C 
ATOM     29  C   UNL     1      51.919 247.438 330.833  0.00  0.00    +0.000 C 
BRANCH  26  30
ATOM     30  C   UNL     1      50.885 244.905 329.647  0.00  0.00    +0.000 C 
ATOM     31  C   UNL     1      49.951 244.002 330.462  0.00  0.00    +0.000 C 
ENDBRANCH  26  30
ENDBRANCH  25  26
ENDBRANCH  22  24
ENDBRANCH   5  22
TORSDOF 5
ENDMDL
