MODEL 1
REMARK VINA RESULT:      -5.5      0.000      0.000
REMARK  Name = 25023738_BI-D-1870.pdbqt.pdb
REMARK  4 active torsions:
REMARK  status: ('A' for Active; 'I' for Inactive)
REMARK    1  A    between atoms: N_2  and  C_26
REMARK    2  A    between atoms: N_14  and  C_16
REMARK    3  A    between atoms: C_20  and  O_24
REMARK    4  A    between atoms: C_27  and  C_28
REMARK                            x       y       z     vdW  Elec       q    Type
REMARK                         _______ _______ _______ _____ _____    ______ ____
ROOT
ATOM      1  O   UNL     1      44.182 228.970 346.193  0.00  0.00    +0.000 OA
ATOM      2  N   UNL     1      44.159 232.333 344.861  0.00  0.00    +0.000 N 
ATOM      3  N   UNL     1      45.322 230.852 346.957  0.00  0.00    +0.000 N 
ATOM      4  N   UNL     1      45.305 234.289 345.605  0.00  0.00    +0.000 NA
ATOM      5  N   UNL     1      46.722 234.259 347.472  0.00  0.00    +0.000 NA
ATOM      6  C   UNL     1      43.847 230.995 344.972  0.00  0.00    +0.000 C 
ATOM      7  C   UNL     1      45.035 232.972 345.762  0.00  0.00    +0.000 A 
ATOM      8  C   UNL     1      44.451 230.170 346.082  0.00  0.00    +0.000 C 
ATOM      9  C   UNL     1      45.596 232.236 346.781  0.00  0.00    +0.000 A 
ATOM     10  C   UNL     1      42.893 230.349 343.974  0.00  0.00    +0.000 C 
ATOM     11  C   UNL     1      45.999 230.223 348.086  0.00  0.00    +0.000 C 
ATOM     12  C   UNL     1      46.438 232.951 347.606  0.00  0.00    +0.000 A 
ATOM     13  C   UNL     1      46.139 234.899 346.460  0.00  0.00    +0.000 A 
ATOM     14  N   UNL     1      46.441 236.248 346.332  0.00  0.00    +0.000 N 
ATOM     15  H   UNL     1      47.082 236.546 347.057  0.00  0.00    +0.000 HD
ENDROOT
BRANCH  14  16
ATOM     16  C   UNL     1      46.020 237.209 345.406  0.00  0.00    +0.000 A 
ATOM     17  C   UNL     1      44.648 237.413 345.208  0.00  0.00    +0.000 A 
ATOM     18  C   UNL     1      44.192 238.361 344.294  0.00  0.00    +0.000 A 
ATOM     19  F   UNL     1      42.871 238.526 344.133  0.00  0.00    +0.000 F 
ATOM     20  C   UNL     1      45.092 239.122 343.560  0.00  0.00    +0.000 A 
ATOM     21  C   UNL     1      46.453 238.925 343.749  0.00  0.00    +0.000 A 
ATOM     22  F   UNL     1      47.332 239.654 343.047  0.00  0.00    +0.000 F 
ATOM     23  C   UNL     1      46.916 237.981 344.661  0.00  0.00    +0.000 A 
BRANCH  20  24
ATOM     24  O   UNL     1      44.638 240.049 342.665  0.00  0.00    +0.000 OA
ATOM     25  H   UNL     1      44.264 239.572 341.900  0.00  0.00    +0.000 HD
ENDBRANCH  20  24
ENDBRANCH  14  16
BRANCH   2  26
ATOM     26  C   UNL     1      43.575 233.137 343.789  0.00  0.00    +0.000 C 
ATOM     27  C   UNL     1      42.962 233.976 342.662  0.00  0.00    +0.000 C 
BRANCH  27  28
ATOM     28  C   UNL     1      42.398 234.754 341.627  0.00  0.00    +0.000 C 
ATOM     29  C   UNL     1      41.728 236.054 341.950  0.00  0.00    +0.000 C 
ATOM     30  C   UNL     1      42.424 234.251 340.216  0.00  0.00    +0.000 C 
ENDBRANCH  27  28
ENDBRANCH   2  26
TORSDOF 4
ENDMDL
MODEL 2
REMARK VINA RESULT:      -5.1     29.610     31.403
REMARK  Name = 25023738_BI-D-1870.pdbqt.pdb
REMARK  4 active torsions:
REMARK  status: ('A' for Active; 'I' for Inactive)
REMARK    1  A    between atoms: N_2  and  C_26
REMARK    2  A    between atoms: N_14  and  C_16
REMARK    3  A    between atoms: C_20  and  O_24
REMARK    4  A    between atoms: C_27  and  C_28
REMARK                            x       y       z     vdW  Elec       q    Type
REMARK                         _______ _______ _______ _____ _____    ______ ____
ROOT
ATOM      1  O   UNL     1      72.210 223.518 336.257  0.00  0.00    +0.000 OA
ATOM      2  N   UNL     1      72.859 222.893 339.761  0.00  0.00    +0.000 N 
ATOM      3  N   UNL     1      71.060 222.128 337.731  0.00  0.00    +0.000 N 
ATOM      4  N   UNL     1      71.713 221.484 341.308  0.00  0.00    +0.000 NA
ATOM      5  N   UNL     1      69.848 220.212 340.680  0.00  0.00    +0.000 NA
ATOM      6  C   UNL     1      73.021 223.431 338.503  0.00  0.00    +0.000 C 
ATOM      7  C   UNL     1      71.825 221.980 340.055  0.00  0.00    +0.000 A 
ATOM      8  C   UNL     1      72.077 223.045 337.390  0.00  0.00    +0.000 C 
ATOM      9  C   UNL     1      70.953 221.615 339.053  0.00  0.00    +0.000 A 
ATOM     10  C   UNL     1      74.153 224.416 338.234  0.00  0.00    +0.000 C 
ATOM     11  C   UNL     1      70.057 221.639 336.791  0.00  0.00    +0.000 C 
ATOM     12  C   UNL     1      69.980 220.719 339.440  0.00  0.00    +0.000 A 
ATOM     13  C   UNL     1      70.731 220.615 341.590  0.00  0.00    +0.000 A 
ATOM     14  N   UNL     1      70.584 220.084 342.865  0.00  0.00    +0.000 N 
ATOM     15  H   UNL     1      69.796 219.448 342.903  0.00  0.00    +0.000 HD
ENDROOT
BRANCH  14  16
ATOM     16  C   UNL     1      71.316 220.278 344.041  0.00  0.00    +0.000 A 
ATOM     17  C   UNL     1      70.644 220.666 345.208  0.00  0.00    +0.000 A 
ATOM     18  C   UNL     1      71.340 220.868 346.399  0.00  0.00    +0.000 A 
ATOM     19  F   UNL     1      70.661 221.239 347.494  0.00  0.00    +0.000 F 
ATOM     20  C   UNL     1      72.716 220.690 346.449  0.00  0.00    +0.000 A 
ATOM     21  C   UNL     1      73.389 220.308 345.297  0.00  0.00    +0.000 A 
ATOM     22  F   UNL     1      74.718 220.131 345.333  0.00  0.00    +0.000 F 
ATOM     23  C   UNL     1      72.701 220.102 344.105  0.00  0.00    +0.000 A 
BRANCH  20  24
ATOM     24  O   UNL     1      73.392 220.891 347.619  0.00  0.00    +0.000 OA
ATOM     25  H   UNL     1      73.195 220.142 348.214  0.00  0.00    +0.000 HD
ENDBRANCH  20  24
ENDBRANCH  14  16
BRANCH   2  26
ATOM     26  C   UNL     1      73.769 223.265 340.842  0.00  0.00    +0.000 C 
ATOM     27  C   UNL     1      74.724 223.651 341.978  0.00  0.00    +0.000 C 
BRANCH  27  28
ATOM     28  C   UNL     1      75.604 224.011 343.022  0.00  0.00    +0.000 C 
ATOM     29  C   UNL     1      76.546 225.162 342.841  0.00  0.00    +0.000 C 
ATOM     30  C   UNL     1      75.629 223.209 344.287  0.00  0.00    +0.000 C 
ENDBRANCH  27  28
ENDBRANCH   2  26
TORSDOF 4
ENDMDL
MODEL 3
REMARK VINA RESULT:      -5.1      2.233      3.247
REMARK  Name = 25023738_BI-D-1870.pdbqt.pdb
REMARK  4 active torsions:
REMARK  status: ('A' for Active; 'I' for Inactive)
REMARK    1  A    between atoms: N_2  and  C_26
REMARK    2  A    between atoms: N_14  and  C_16
REMARK    3  A    between atoms: C_20  and  O_24
REMARK    4  A    between atoms: C_27  and  C_28
REMARK                            x       y       z     vdW  Elec       q    Type
REMARK                         _______ _______ _______ _____ _____    ______ ____
ROOT
ATOM      1  O   UNL     1      43.653 226.875 345.287  0.00  0.00    +0.000 OA
ATOM      2  N   UNL     1      43.999 230.476 345.259  0.00  0.00    +0.000 N 
ATOM      3  N   UNL     1      44.661 228.258 346.867  0.00  0.00    +0.000 N 
ATOM      4  N   UNL     1      45.019 231.934 346.848  0.00  0.00    +0.000 NA
ATOM      5  N   UNL     1      46.016 231.126 348.810  0.00  0.00    +0.000 NA
ATOM      6  C   UNL     1      43.635 229.218 344.827  0.00  0.00    +0.000 C 
ATOM      7  C   UNL     1      44.687 230.677 346.474  0.00  0.00    +0.000 A 
ATOM      8  C   UNL     1      43.972 228.007 345.662  0.00  0.00    +0.000 C 
ATOM      9  C   UNL     1      45.004 229.584 347.250  0.00  0.00    +0.000 A 
ATOM     10  C   UNL     1      42.892 229.051 343.507  0.00  0.00    +0.000 C 
ATOM     11  C   UNL     1      45.071 227.216 347.803  0.00  0.00    +0.000 C 
ATOM     12  C   UNL     1      45.675 229.886 348.415  0.00  0.00    +0.000 A 
ATOM     13  C   UNL     1      45.673 232.128 348.003  0.00  0.00    +0.000 A 
ATOM     14  N   UNL     1      46.032 233.403 348.421  0.00  0.00    +0.000 N 
ATOM     15  H   UNL     1      46.517 233.369 349.310  0.00  0.00    +0.000 HD
ENDROOT
BRANCH  14  16
ATOM     16  C   UNL     1      45.840 234.659 347.837  0.00  0.00    +0.000 A 
ATOM     17  C   UNL     1      46.713 235.083 346.826  0.00  0.00    +0.000 A 
ATOM     18  C   UNL     1      46.552 236.328 346.220  0.00  0.00    +0.000 A 
ATOM     19  F   UNL     1      47.409 236.697 345.256  0.00  0.00    +0.000 F 
ATOM     20  C   UNL     1      45.522 237.173 346.609  0.00  0.00    +0.000 A 
ATOM     21  C   UNL     1      44.654 236.761 347.611  0.00  0.00    +0.000 A 
ATOM     22  F   UNL     1      43.654 237.569 347.995  0.00  0.00    +0.000 F 
ATOM     23  C   UNL     1      44.807 235.519 348.219  0.00  0.00    +0.000 A 
BRANCH  20  24
ATOM     24  O   UNL     1      45.371 238.393 346.012  0.00  0.00    +0.000 OA
ATOM     25  H   UNL     1      45.921 238.403 345.204  0.00  0.00    +0.000 HD
ENDBRANCH  20  24
ENDBRANCH  14  16
BRANCH   2  26
ATOM     26  C   UNL     1      43.673 231.652 344.456  0.00  0.00    +0.000 C 
ATOM     27  C   UNL     1      43.328 232.888 343.617  0.00  0.00    +0.000 C 
BRANCH  27  28
ATOM     28  C   UNL     1      43.014 234.025 342.840  0.00  0.00    +0.000 C 
ATOM     29  C   UNL     1      42.750 235.338 343.512  0.00  0.00    +0.000 C 
ATOM     30  C   UNL     1      42.894 233.902 341.352  0.00  0.00    +0.000 C 
ENDBRANCH  27  28
ENDBRANCH   2  26
TORSDOF 4
ENDMDL
MODEL 4
REMARK VINA RESULT:      -4.9     18.429     21.212
REMARK  Name = 25023738_BI-D-1870.pdbqt.pdb
REMARK  4 active torsions:
REMARK  status: ('A' for Active; 'I' for Inactive)
REMARK    1  A    between atoms: N_2  and  C_26
REMARK    2  A    between atoms: N_14  and  C_16
REMARK    3  A    between atoms: C_20  and  O_24
REMARK    4  A    between atoms: C_27  and  C_28
REMARK                            x       y       z     vdW  Elec       q    Type
REMARK                         _______ _______ _______ _____ _____    ______ ____
ROOT
ATOM      1  O   UNL     1      64.169 223.925 357.623  0.00  0.00    +0.000 OA
ATOM      2  N   UNL     1      62.591 225.920 355.050  0.00  0.00    +0.000 N 
ATOM      3  N   UNL     1      65.146 225.423 356.130  0.00  0.00    +0.000 N 
ATOM      4  N   UNL     1      63.545 227.464 353.501  0.00  0.00    +0.000 NA
ATOM      5  N   UNL     1      65.844 227.915 353.459  0.00  0.00    +0.000 NA
ATOM      6  C   UNL     1      62.702 225.021 356.089  0.00  0.00    +0.000 C 
ATOM      7  C   UNL     1      63.713 226.591 354.521  0.00  0.00    +0.000 A 
ATOM      8  C   UNL     1      64.054 224.729 356.693  0.00  0.00    +0.000 C 
ATOM      9  C   UNL     1      64.956 226.338 355.059  0.00  0.00    +0.000 A 
ATOM     10  C   UNL     1      61.459 224.321 356.628  0.00  0.00    +0.000 C 
ATOM     11  C   UNL     1      66.526 225.271 356.580  0.00  0.00    +0.000 C 
ATOM     12  C   UNL     1      65.985 227.042 354.473  0.00  0.00    +0.000 A 
ATOM     13  C   UNL     1      64.610 228.103 352.996  0.00  0.00    +0.000 A 
ATOM     14  N   UNL     1      64.479 229.006 351.950  0.00  0.00    +0.000 N 
ATOM     15  H   UNL     1      65.377 229.395 351.692  0.00  0.00    +0.000 HD
ENDROOT
BRANCH  14  16
ATOM     16  C   UNL     1      63.358 229.437 351.232  0.00  0.00    +0.000 A 
ATOM     17  C   UNL     1      63.512 229.832 349.896  0.00  0.00    +0.000 A 
ATOM     18  C   UNL     1      62.418 230.266 349.149  0.00  0.00    +0.000 A 
ATOM     19  F   UNL     1      62.607 230.636 347.874  0.00  0.00    +0.000 F 
ATOM     20  C   UNL     1      61.152 230.317 349.718  0.00  0.00    +0.000 A 
ATOM     21  C   UNL     1      60.992 229.928 351.041  0.00  0.00    +0.000 A 
ATOM     22  F   UNL     1      59.774 229.971 351.601  0.00  0.00    +0.000 F 
ATOM     23  C   UNL     1      62.079 229.492 351.792  0.00  0.00    +0.000 A 
BRANCH  20  24
ATOM     24  O   UNL     1      60.085 230.745 348.981  0.00  0.00    +0.000 OA
ATOM     25  H   UNL     1      59.441 231.153 349.591  0.00  0.00    +0.000 HD
ENDBRANCH  20  24
ENDBRANCH  14  16
BRANCH   2  26
ATOM     26  C   UNL     1      61.284 226.208 354.464  0.00  0.00    +0.000 C 
ATOM     27  C   UNL     1      59.915 226.513 353.845  0.00  0.00    +0.000 C 
BRANCH  27  28
ATOM     28  C   UNL     1      58.651 226.791 353.278  0.00  0.00    +0.000 C 
ATOM     29  C   UNL     1      58.042 225.827 352.306  0.00  0.00    +0.000 C 
ATOM     30  C   UNL     1      57.949 228.071 353.611  0.00  0.00    +0.000 C 
ENDBRANCH  27  28
ENDBRANCH   2  26
TORSDOF 4
ENDMDL
MODEL 5
REMARK VINA RESULT:      -4.7      9.055     12.019
REMARK  Name = 25023738_BI-D-1870.pdbqt.pdb
REMARK  4 active torsions:
REMARK  status: ('A' for Active; 'I' for Inactive)
REMARK    1  A    between atoms: N_2  and  C_26
REMARK    2  A    between atoms: N_14  and  C_16
REMARK    3  A    between atoms: C_20  and  O_24
REMARK    4  A    between atoms: C_27  and  C_28
REMARK                            x       y       z     vdW  Elec       q    Type
REMARK                         _______ _______ _______ _____ _____    ______ ____
ROOT
ATOM      1  O   UNL     1      46.210 241.343 353.635  0.00  0.00    +0.000 OA
ATOM      2  N   UNL     1      49.415 241.530 351.968  0.00  0.00    +0.000 N 
ATOM      3  N   UNL     1      47.144 239.866 352.095  0.00  0.00    +0.000 N 
ATOM      4  N   UNL     1      50.414 240.048 350.387  0.00  0.00    +0.000 NA
ATOM      5  N   UNL     1      49.330 238.103 349.656  0.00  0.00    +0.000 NA
ATOM      6  C   UNL     1      48.379 241.895 352.800  0.00  0.00    +0.000 C 
ATOM      7  C   UNL     1      49.367 240.357 351.187  0.00  0.00    +0.000 A 
ATOM      8  C   UNL     1      47.147 241.029 352.894  0.00  0.00    +0.000 C 
ATOM      9  C   UNL     1      48.251 239.553 351.259  0.00  0.00    +0.000 A 
ATOM     10  C   UNL     1      48.477 243.173 353.626  0.00  0.00    +0.000 C 
ATOM     11  C   UNL     1      46.044 238.910 352.052  0.00  0.00    +0.000 C 
ATOM     12  C   UNL     1      48.302 238.432 350.459  0.00  0.00    +0.000 A 
ATOM     13  C   UNL     1      50.371 238.933 349.644  0.00  0.00    +0.000 A 
ATOM     14  N   UNL     1      51.425 238.582 348.811  0.00  0.00    +0.000 N 
ATOM     15  H   UNL     1      51.230 237.716 348.324  0.00  0.00    +0.000 HD
ENDROOT
BRANCH  14  16
ATOM     16  C   UNL     1      52.650 239.207 348.551  0.00  0.00    +0.000 A 
ATOM     17  C   UNL     1      53.748 238.929 349.377  0.00  0.00    +0.000 A 
ATOM     18  C   UNL     1      54.983 239.532 349.148  0.00  0.00    +0.000 A 
ATOM     19  F   UNL     1      56.009 239.239 349.961  0.00  0.00    +0.000 F 
ATOM     20  C   UNL     1      55.149 240.423 348.097  0.00  0.00    +0.000 A 
ATOM     21  C   UNL     1      54.066 240.705 347.275  0.00  0.00    +0.000 A 
ATOM     22  F   UNL     1      54.213 241.563 346.255  0.00  0.00    +0.000 F 
ATOM     23  C   UNL     1      52.829 240.105 347.496  0.00  0.00    +0.000 A 
BRANCH  20  24
ATOM     24  O   UNL     1      56.363 241.011 347.880  0.00  0.00    +0.000 OA
ATOM     25  H   UNL     1      56.958 240.340 347.495  0.00  0.00    +0.000 HD
ENDBRANCH  20  24
ENDBRANCH  14  16
BRANCH   2  26
ATOM     26  C   UNL     1      50.611 242.364 351.875  0.00  0.00    +0.000 C 
ATOM     27  C   UNL     1      51.863 243.244 351.778  0.00  0.00    +0.000 C 
BRANCH  27  28
ATOM     28  C   UNL     1      53.020 244.050 351.688  0.00  0.00    +0.000 C 
ATOM     29  C   UNL     1      53.137 245.283 352.530  0.00  0.00    +0.000 C 
ATOM     30  C   UNL     1      54.102 243.697 350.715  0.00  0.00    +0.000 C 
ENDBRANCH  27  28
ENDBRANCH   2  26
TORSDOF 4
ENDMDL
MODEL 6
REMARK VINA RESULT:      -4.6     25.064     27.220
REMARK  Name = 25023738_BI-D-1870.pdbqt.pdb
REMARK  4 active torsions:
REMARK  status: ('A' for Active; 'I' for Inactive)
REMARK    1  A    between atoms: N_2  and  C_26
REMARK    2  A    between atoms: N_14  and  C_16
REMARK    3  A    between atoms: C_20  and  O_24
REMARK    4  A    between atoms: C_27  and  C_28
REMARK                            x       y       z     vdW  Elec       q    Type
REMARK                         _______ _______ _______ _____ _____    ______ ____
ROOT
ATOM      1  O   UNL     1      61.917 214.517 351.658  0.00  0.00    +0.000 OA
ATOM      2  N   UNL     1      62.172 214.797 348.060  0.00  0.00    +0.000 N 
ATOM      3  N   UNL     1      63.786 215.017 350.360  0.00  0.00    +0.000 N 
ATOM      4  N   UNL     1      64.057 215.305 346.688  0.00  0.00    +0.000 NA
ATOM      5  N   UNL     1      66.175 215.726 347.599  0.00  0.00    +0.000 NA
ATOM      6  C   UNL     1      61.591 214.590 349.293  0.00  0.00    +0.000 C 
ATOM      7  C   UNL     1      63.539 215.113 347.924  0.00  0.00    +0.000 A 
ATOM      8  C   UNL     1      62.423 214.700 350.547  0.00  0.00    +0.000 C 
ATOM      9  C   UNL     1      64.316 215.218 349.056  0.00  0.00    +0.000 A 
ATOM     10  C   UNL     1      60.108 214.251 349.390  0.00  0.00    +0.000 C 
ATOM     11  C   UNL     1      64.744 215.165 351.451  0.00  0.00    +0.000 C 
ATOM     12  C   UNL     1      65.637 215.530 348.817  0.00  0.00    +0.000 A 
ATOM     13  C   UNL     1      65.357 215.606 346.555  0.00  0.00    +0.000 A 
ATOM     14  N   UNL     1      65.925 215.811 345.305  0.00  0.00    +0.000 N 
ATOM     15  H   UNL     1      66.910 216.028 345.386  0.00  0.00    +0.000 HD
ENDROOT
BRANCH  14  16
ATOM     16  C   UNL     1      65.376 215.764 344.019  0.00  0.00    +0.000 A 
ATOM     17  C   UNL     1      64.112 215.188 343.836  0.00  0.00    +0.000 A 
ATOM     18  C   UNL     1      63.533 215.124 342.569  0.00  0.00    +0.000 A 
ATOM     19  F   UNL     1      62.321 214.565 342.436  0.00  0.00    +0.000 F 
ATOM     20  C   UNL     1      64.202 215.631 341.463  0.00  0.00    +0.000 A 
ATOM     21  C   UNL     1      65.454 216.202 341.636  0.00  0.00    +0.000 A 
ATOM     22  F   UNL     1      66.110 216.696 340.575  0.00  0.00    +0.000 F 
ATOM     23  C   UNL     1      66.038 216.271 342.897  0.00  0.00    +0.000 A 
BRANCH  20  24
ATOM     24  O   UNL     1      63.629 215.564 340.224  0.00  0.00    +0.000 OA
ATOM     25  H   UNL     1      64.060 214.840 339.731  0.00  0.00    +0.000 HD
ENDBRANCH  20  24
ENDBRANCH  14  16
BRANCH   2  26
ATOM     26  C   UNL     1      61.370 214.694 346.844  0.00  0.00    +0.000 C 
ATOM     27  C   UNL     1      60.527 214.581 345.568  0.00  0.00    +0.000 C 
BRANCH  27  28
ATOM     28  C   UNL     1      59.751 214.482 344.391  0.00  0.00    +0.000 C 
ATOM     29  C   UNL     1      59.184 215.720 343.766  0.00  0.00    +0.000 C 
ATOM     30  C   UNL     1      59.455 213.137 343.803  0.00  0.00    +0.000 C 
ENDBRANCH  27  28
ENDBRANCH   2  26
TORSDOF 4
ENDMDL
MODEL 7
REMARK VINA RESULT:      -4.6     24.066     26.743
REMARK  Name = 25023738_BI-D-1870.pdbqt.pdb
REMARK  4 active torsions:
REMARK  status: ('A' for Active; 'I' for Inactive)
REMARK    1  A    between atoms: N_2  and  C_26
REMARK    2  A    between atoms: N_14  and  C_16
REMARK    3  A    between atoms: C_20  and  O_24
REMARK    4  A    between atoms: C_27  and  C_28
REMARK                            x       y       z     vdW  Elec       q    Type
REMARK                         _______ _______ _______ _____ _____    ______ ____
ROOT
ATOM      1  O   UNL     1      65.879 215.084 349.013  0.00  0.00    +0.000 OA
ATOM      2  N   UNL     1      64.116 215.165 345.855  0.00  0.00    +0.000 N 
ATOM      3  N   UNL     1      63.609 214.767 348.598  0.00  0.00    +0.000 N 
ATOM      4  N   UNL     1      61.800 214.847 345.379  0.00  0.00    +0.000 NA
ATOM      5  N   UNL     1      60.238 214.401 347.069  0.00  0.00    +0.000 NA
ATOM      6  C   UNL     1      65.174 215.233 346.736  0.00  0.00    +0.000 C 
ATOM      7  C   UNL     1      62.800 214.903 346.289  0.00  0.00    +0.000 A 
ATOM      8  C   UNL     1      64.941 215.025 348.212  0.00  0.00    +0.000 C 
ATOM      9  C   UNL     1      62.567 214.710 347.632  0.00  0.00    +0.000 A 
ATOM     10  C   UNL     1      66.580 215.517 346.219  0.00  0.00    +0.000 C 
ATOM     11  C   UNL     1      63.190 214.541 349.978  0.00  0.00    +0.000 C 
ATOM     12  C   UNL     1      61.250 214.462 347.954  0.00  0.00    +0.000 A 
ATOM     13  C   UNL     1      60.547 214.598 345.789  0.00  0.00    +0.000 A 
ATOM     14  N   UNL     1      59.494 214.534 344.887  0.00  0.00    +0.000 N 
ATOM     15  H   UNL     1      58.621 214.339 345.362  0.00  0.00    +0.000 HD
ENDROOT
BRANCH  14  16
ATOM     16  C   UNL     1      59.453 214.690 343.497  0.00  0.00    +0.000 A 
ATOM     17  C   UNL     1      58.654 215.702 342.946  0.00  0.00    +0.000 A 
ATOM     18  C   UNL     1      58.589 215.888 341.567  0.00  0.00    +0.000 A 
ATOM     19  F   UNL     1      57.813 216.868 341.079  0.00  0.00    +0.000 F 
ATOM     20  C   UNL     1      59.314 215.070 340.710  0.00  0.00    +0.000 A 
ATOM     21  C   UNL     1      60.105 214.065 341.247  0.00  0.00    +0.000 A 
ATOM     22  F   UNL     1      60.812 213.270 340.430  0.00  0.00    +0.000 F 
ATOM     23  C   UNL     1      60.178 213.874 342.624  0.00  0.00    +0.000 A 
BRANCH  20  24
ATOM     24  O   UNL     1      59.244 215.258 339.358  0.00  0.00    +0.000 OA
ATOM     25  H   UNL     1      58.319 215.475 339.132  0.00  0.00    +0.000 HD
ENDBRANCH  20  24
ENDBRANCH  14  16
BRANCH   2  26
ATOM     26  C   UNL     1      64.337 215.363 344.424  0.00  0.00    +0.000 C 
ATOM     27  C   UNL     1      64.573 215.574 342.924  0.00  0.00    +0.000 C 
BRANCH  27  28
ATOM     28  C   UNL     1      64.786 215.765 341.541  0.00  0.00    +0.000 C 
ATOM     29  C   UNL     1      63.775 215.267 340.554  0.00  0.00    +0.000 C 
ATOM     30  C   UNL     1      66.047 216.417 341.063  0.00  0.00    +0.000 C 
ENDBRANCH  27  28
ENDBRANCH   2  26
TORSDOF 4
ENDMDL
MODEL 8
REMARK VINA RESULT:      -4.3     24.599     26.834
REMARK  Name = 25023738_BI-D-1870.pdbqt.pdb
REMARK  4 active torsions:
REMARK  status: ('A' for Active; 'I' for Inactive)
REMARK    1  A    between atoms: N_2  and  C_26
REMARK    2  A    between atoms: N_14  and  C_16
REMARK    3  A    between atoms: C_20  and  O_24
REMARK    4  A    between atoms: C_27  and  C_28
REMARK                            x       y       z     vdW  Elec       q    Type
REMARK                         _______ _______ _______ _____ _____    ______ ____
ROOT
ATOM      1  O   UNL     1      73.098 237.002 343.719  0.00  0.00    +0.000 OA
ATOM      2  N   UNL     1      71.886 237.540 340.353  0.00  0.00    +0.000 N 
ATOM      3  N   UNL     1      70.928 237.453 343.002  0.00  0.00    +0.000 N 
ATOM      4  N   UNL     1      69.681 238.003 339.569  0.00  0.00    +0.000 NA
ATOM      5  N   UNL     1      67.858 238.181 341.032  0.00  0.00    +0.000 NA
ATOM      6  C   UNL     1      72.783 237.284 341.368  0.00  0.00    +0.000 C 
ATOM      7  C   UNL     1      70.516 237.756 340.605  0.00  0.00    +0.000 A 
ATOM      8  C   UNL     1      72.307 237.230 342.799  0.00  0.00    +0.000 C 
ATOM      9  C   UNL     1      70.062 237.710 341.904  0.00  0.00    +0.000 A 
ATOM     10  C   UNL     1      74.255 237.056 341.046  0.00  0.00    +0.000 C 
ATOM     11  C   UNL     1      70.285 237.440 344.312  0.00  0.00    +0.000 C 
ATOM     12  C   UNL     1      68.709 237.934 342.045  0.00  0.00    +0.000 A 
ATOM     13  C   UNL     1      68.377 238.209 339.806  0.00  0.00    +0.000 A 
ATOM     14  N   UNL     1      67.489 238.465 338.770  0.00  0.00    +0.000 N 
ATOM     15  H   UNL     1      66.549 238.596 339.123  0.00  0.00    +0.000 HD
ENDROOT
BRANCH  14  16
ATOM     16  C   UNL     1      67.681 238.568 337.388  0.00  0.00    +0.000 A 
ATOM     17  C   UNL     1      68.053 239.803 336.840  0.00  0.00    +0.000 A 
ATOM     18  C   UNL     1      68.254 239.942 335.467  0.00  0.00    +0.000 A 
ATOM     19  F   UNL     1      68.609 241.141 334.981  0.00  0.00    +0.000 F 
ATOM     20  C   UNL     1      68.086 238.858 334.617  0.00  0.00    +0.000 A 
ATOM     21  C   UNL     1      67.717 237.632 335.152  0.00  0.00    +0.000 A 
ATOM     22  F   UNL     1      67.553 236.577 334.341  0.00  0.00    +0.000 F 
ATOM     23  C   UNL     1      67.516 237.484 336.521  0.00  0.00    +0.000 A 
BRANCH  20  24
ATOM     24  O   UNL     1      68.284 239.003 333.272  0.00  0.00    +0.000 OA
ATOM     25  H   UNL     1      68.248 238.116 332.865  0.00  0.00    +0.000 HD
ENDBRANCH  20  24
ENDBRANCH  14  16
BRANCH   2  26
ATOM     26  C   UNL     1      72.342 237.592 338.966  0.00  0.00    +0.000 C 
ATOM     27  C   UNL     1      72.818 237.651 337.510  0.00  0.00    +0.000 C 
BRANCH  27  28
ATOM     28  C   UNL     1      73.260 237.700 336.169  0.00  0.00    +0.000 C 
ATOM     29  C   UNL     1      74.248 236.690 335.670  0.00  0.00    +0.000 C 
ATOM     30  C   UNL     1      72.779 238.793 335.265  0.00  0.00    +0.000 C 
ENDBRANCH  27  28
ENDBRANCH   2  26
TORSDOF 4
ENDMDL
MODEL 9
REMARK VINA RESULT:      -4.3      2.901      3.859
REMARK  Name = 25023738_BI-D-1870.pdbqt.pdb
REMARK  4 active torsions:
REMARK  status: ('A' for Active; 'I' for Inactive)
REMARK    1  A    between atoms: N_2  and  C_26
REMARK    2  A    between atoms: N_14  and  C_16
REMARK    3  A    between atoms: C_20  and  O_24
REMARK    4  A    between atoms: C_27  and  C_28
REMARK                            x       y       z     vdW  Elec       q    Type
REMARK                         _______ _______ _______ _____ _____    ______ ____
ROOT
ATOM      1  O   UNL     1      40.965 233.104 345.271  0.00  0.00    +0.000 OA
ATOM      2  N   UNL     1      42.512 236.048 343.847  0.00  0.00    +0.000 N 
ATOM      3  N   UNL     1      42.874 234.238 345.976  0.00  0.00    +0.000 N 
ATOM      4  N   UNL     1      44.460 237.243 344.530  0.00  0.00    +0.000 NA
ATOM      5  N   UNL     1      45.729 236.587 346.388  0.00  0.00    +0.000 NA
ATOM      6  C   UNL     1      41.607 235.020 343.996  0.00  0.00    +0.000 C 
ATOM      7  C   UNL     1      43.603 236.215 344.725  0.00  0.00    +0.000 A 
ATOM      8  C   UNL     1      41.768 234.031 345.125  0.00  0.00    +0.000 C 
ATOM      9  C   UNL     1      43.767 235.323 345.761  0.00  0.00    +0.000 A 
ATOM     10  C   UNL     1      40.442 234.881 343.022  0.00  0.00    +0.000 C 
ATOM     11  C   UNL     1      43.193 233.387 347.118  0.00  0.00    +0.000 C 
ATOM     12  C   UNL     1      44.862 235.572 346.560  0.00  0.00    +0.000 A 
ATOM     13  C   UNL     1      45.499 237.405 345.363  0.00  0.00    +0.000 A 
ATOM     14  N   UNL     1      46.401 238.447 345.196  0.00  0.00    +0.000 N 
ATOM     15  H   UNL     1      47.120 238.421 345.908  0.00  0.00    +0.000 HD
ENDROOT
BRANCH  14  16
ATOM     16  C   UNL     1      46.468 239.472 344.246  0.00  0.00    +0.000 A 
ATOM     17  C   UNL     1      45.929 240.728 344.557  0.00  0.00    +0.000 A 
ATOM     18  C   UNL     1      45.978 241.773 343.636  0.00  0.00    +0.000 A 
ATOM     19  F   UNL     1      45.452 242.960 343.971  0.00  0.00    +0.000 F 
ATOM     20  C   UNL     1      46.562 241.587 342.390  0.00  0.00    +0.000 A 
ATOM     21  C   UNL     1      47.097 240.346 342.075  0.00  0.00    +0.000 A 
ATOM     22  F   UNL     1      47.665 240.155 340.875  0.00  0.00    +0.000 F 
ATOM     23  C   UNL     1      47.053 239.298 342.989  0.00  0.00    +0.000 A 
BRANCH  20  24
ATOM     24  O   UNL     1      46.606 242.616 341.492  0.00  0.00    +0.000 OA
ATOM     25  H   UNL     1      47.415 242.513 340.955  0.00  0.00    +0.000 HD
ENDBRANCH  20  24
ENDBRANCH  14  16
BRANCH   2  26
ATOM     26  C   UNL     1      42.358 237.009 342.757  0.00  0.00    +0.000 C 
ATOM     27  C   UNL     1      42.202 238.017 341.612  0.00  0.00    +0.000 C 
BRANCH  27  28
ATOM     28  C   UNL     1      42.053 238.946 340.558  0.00  0.00    +0.000 C 
ATOM     29  C   UNL     1      41.740 240.378 340.865  0.00  0.00    +0.000 C 
ATOM     30  C   UNL     1      42.158 238.486 339.137  0.00  0.00    +0.000 C 
ENDBRANCH  27  28
ENDBRANCH   2  26
TORSDOF 4
ENDMDL
