MODEL 1
REMARK VINA RESULT:      -3.9      0.000      0.000
REMARK  Name = 26879_Levamisole.pdbqt.pdb
REMARK  1 active torsions:
REMARK  status: ('A' for Active; 'I' for Inactive)
REMARK    1  A    between atoms: C_5  and  C_9
REMARK                            x       y       z     vdW  Elec       q    Type
REMARK                         _______ _______ _______ _____ _____    ______ ____
ROOT
ATOM      1  S   UNL     1      65.525 221.426 328.385  0.00  0.00    +0.000 S 
ATOM      2  N   UNL     1      63.195 221.071 329.924  0.00  0.00    +0.000 NA
ATOM      3  N   UNL     1      63.248 222.862 328.270  0.00  0.00    +0.000 NA
ATOM      4  C   UNL     1      61.930 221.417 329.352  0.00  0.00    +0.000 C 
ATOM      5  C   UNL     1      61.952 222.525 328.489  0.00  0.00    +0.000 C 
ATOM      6  C   UNL     1      63.769 219.819 329.504  0.00  0.00    +0.000 C 
ATOM      7  C   UNL     1      63.979 222.007 329.047  0.00  0.00    +0.000 C 
ATOM      8  C   UNL     1      65.053 219.846 328.735  0.00  0.00    +0.000 C 
ENDROOT
BRANCH   5   9
ATOM      9  C   UNL     1      60.824 223.192 327.857  0.00  0.00    +0.000 A 
ATOM     10  C   UNL     1      59.520 223.038 328.338  0.00  0.00    +0.000 A 
ATOM     11  C   UNL     1      61.029 224.006 326.739  0.00  0.00    +0.000 A 
ATOM     12  C   UNL     1      58.448 223.681 327.721  0.00  0.00    +0.000 A 
ATOM     13  C   UNL     1      59.961 224.651 326.118  0.00  0.00    +0.000 A 
ATOM     14  C   UNL     1      58.671 224.488 326.610  0.00  0.00    +0.000 A 
ENDBRANCH   5   9
TORSDOF 1
ENDMDL
MODEL 2
REMARK VINA RESULT:      -3.9      8.922     10.143
REMARK  Name = 26879_Levamisole.pdbqt.pdb
REMARK  1 active torsions:
REMARK  status: ('A' for Active; 'I' for Inactive)
REMARK    1  A    between atoms: C_5  and  C_9
REMARK                            x       y       z     vdW  Elec       q    Type
REMARK                         _______ _______ _______ _____ _____    ______ ____
ROOT
ATOM      1  S   UNL     1      55.606 215.719 330.587  0.00  0.00    +0.000 S 
ATOM      2  N   UNL     1      54.377 217.955 331.776  0.00  0.00    +0.000 NA
ATOM      3  N   UNL     1      56.013 216.690 333.067  0.00  0.00    +0.000 NA
ATOM      4  C   UNL     1      55.106 218.708 332.749  0.00  0.00    +0.000 C 
ATOM      5  C   UNL     1      55.961 217.951 333.567  0.00  0.00    +0.000 C 
ATOM      6  C   UNL     1      54.718 218.188 330.396  0.00  0.00    +0.000 C 
ATOM      7  C   UNL     1      55.148 216.686 332.009  0.00  0.00    +0.000 C 
ATOM      8  C   UNL     1      55.316 217.062 329.611  0.00  0.00    +0.000 C 
ENDROOT
BRANCH   5   9
ATOM      9  C   UNL     1      56.733 218.399 334.716  0.00  0.00    +0.000 A 
ATOM     10  C   UNL     1      56.167 219.209 335.706  0.00  0.00    +0.000 A 
ATOM     11  C   UNL     1      58.074 218.025 334.847  0.00  0.00    +0.000 A 
ATOM     12  C   UNL     1      56.920 219.633 336.800  0.00  0.00    +0.000 A 
ATOM     13  C   UNL     1      58.830 218.447 335.939  0.00  0.00    +0.000 A 
ATOM     14  C   UNL     1      58.252 219.251 336.915  0.00  0.00    +0.000 A 
ENDBRANCH   5   9
TORSDOF 1
ENDMDL
MODEL 3
REMARK VINA RESULT:      -3.8     23.387     24.284
REMARK  Name = 26879_Levamisole.pdbqt.pdb
REMARK  1 active torsions:
REMARK  status: ('A' for Active; 'I' for Inactive)
REMARK    1  A    between atoms: C_5  and  C_9
REMARK                            x       y       z     vdW  Elec       q    Type
REMARK                         _______ _______ _______ _____ _____    ______ ____
ROOT
ATOM      1  S   UNL     1      60.924 231.206 353.926  0.00  0.00    +0.000 S 
ATOM      2  N   UNL     1      60.188 230.254 351.380  0.00  0.00    +0.000 NA
ATOM      3  N   UNL     1      62.192 231.627 351.586  0.00  0.00    +0.000 NA
ATOM      4  C   UNL     1      61.214 229.992 350.419  0.00  0.00    +0.000 C 
ATOM      5  C   UNL     1      62.313 230.864 350.470  0.00  0.00    +0.000 C 
ATOM      6  C   UNL     1      60.005 229.262 352.409  0.00  0.00    +0.000 C 
ATOM      7  C   UNL     1      61.003 231.257 352.149  0.00  0.00    +0.000 C 
ATOM      8  C   UNL     1      60.288 229.648 353.828  0.00  0.00    +0.000 C 
ENDROOT
BRANCH   5   9
ATOM      9  C   UNL     1      63.445 230.937 349.559  0.00  0.00    +0.000 A 
ATOM     10  C   UNL     1      63.429 230.287 348.321  0.00  0.00    +0.000 A 
ATOM     11  C   UNL     1      64.585 231.664 349.915  0.00  0.00    +0.000 A 
ATOM     12  C   UNL     1      64.522 230.363 347.459  0.00  0.00    +0.000 A 
ATOM     13  C   UNL     1      65.680 231.743 349.057  0.00  0.00    +0.000 A 
ATOM     14  C   UNL     1      65.648 231.092 347.828  0.00  0.00    +0.000 A 
ENDBRANCH   5   9
TORSDOF 1
ENDMDL
MODEL 4
REMARK VINA RESULT:      -3.7      9.172     10.801
REMARK  Name = 26879_Levamisole.pdbqt.pdb
REMARK  1 active torsions:
REMARK  status: ('A' for Active; 'I' for Inactive)
REMARK    1  A    between atoms: C_5  and  C_9
REMARK                            x       y       z     vdW  Elec       q    Type
REMARK                         _______ _______ _______ _____ _____    ______ ____
ROOT
ATOM      1  S   UNL     1      50.900 218.334 331.118  0.00  0.00    +0.000 S 
ATOM      2  N   UNL     1      53.321 219.109 329.908  0.00  0.00    +0.000 NA
ATOM      3  N   UNL     1      53.299 218.650 332.302  0.00  0.00    +0.000 NA
ATOM      4  C   UNL     1      54.551 218.622 330.451  0.00  0.00    +0.000 C 
ATOM      5  C   UNL     1      54.565 218.471 331.848  0.00  0.00    +0.000 C 
ATOM      6  C   UNL     1      52.571 218.190 329.091  0.00  0.00    +0.000 C 
ATOM      7  C   UNL     1      52.561 218.968 331.197  0.00  0.00    +0.000 C 
ATOM      8  C   UNL     1      51.226 217.743 329.573  0.00  0.00    +0.000 C 
ENDROOT
BRANCH   5   9
ATOM      9  C   UNL     1      55.690 218.119 332.701  0.00  0.00    +0.000 A 
ATOM     10  C   UNL     1      56.757 217.352 332.224  0.00  0.00    +0.000 A 
ATOM     11  C   UNL     1      55.719 218.546 334.032  0.00  0.00    +0.000 A 
ATOM     12  C   UNL     1      57.827 217.019 333.054  0.00  0.00    +0.000 A 
ATOM     13  C   UNL     1      56.786 218.217 334.866  0.00  0.00    +0.000 A 
ATOM     14  C   UNL     1      57.840 217.453 334.375  0.00  0.00    +0.000 A 
ENDBRANCH   5   9
TORSDOF 1
ENDMDL
MODEL 5
REMARK VINA RESULT:      -3.7     28.233     29.396
REMARK  Name = 26879_Levamisole.pdbqt.pdb
REMARK  1 active torsions:
REMARK  status: ('A' for Active; 'I' for Inactive)
REMARK    1  A    between atoms: C_5  and  C_9
REMARK                            x       y       z     vdW  Elec       q    Type
REMARK                         _______ _______ _______ _____ _____    ______ ____
ROOT
ATOM      1  S   UNL     1      54.636 246.658 347.249  0.00  0.00    +0.000 S 
ATOM      2  N   UNL     1      53.478 244.876 345.403  0.00  0.00    +0.000 NA
ATOM      3  N   UNL     1      54.940 243.983 347.137  0.00  0.00    +0.000 NA
ATOM      4  C   UNL     1      53.188 243.540 345.822  0.00  0.00    +0.000 C 
ATOM      5  C   UNL     1      54.105 242.992 346.735  0.00  0.00    +0.000 C 
ATOM      6  C   UNL     1      52.555 245.897 345.831  0.00  0.00    +0.000 C 
ATOM      7  C   UNL     1      54.564 245.085 346.421  0.00  0.00    +0.000 C 
ATOM      8  C   UNL     1      53.051 246.960 346.761  0.00  0.00    +0.000 C 
ENDROOT
BRANCH   5   9
ATOM      9  C   UNL     1      54.157 241.632 347.248  0.00  0.00    +0.000 A 
ATOM     10  C   UNL     1      53.100 240.737 347.055  0.00  0.00    +0.000 A 
ATOM     11  C   UNL     1      55.280 241.193 347.955  0.00  0.00    +0.000 A 
ATOM     12  C   UNL     1      53.162 239.437 347.554  0.00  0.00    +0.000 A 
ATOM     13  C   UNL     1      55.348 239.894 348.456  0.00  0.00    +0.000 A 
ATOM     14  C   UNL     1      54.288 239.017 348.255  0.00  0.00    +0.000 A 
ENDBRANCH   5   9
TORSDOF 1
ENDMDL
MODEL 6
REMARK VINA RESULT:      -3.7     22.897     24.593
REMARK  Name = 26879_Levamisole.pdbqt.pdb
REMARK  1 active torsions:
REMARK  status: ('A' for Active; 'I' for Inactive)
REMARK    1  A    between atoms: C_5  and  C_9
REMARK                            x       y       z     vdW  Elec       q    Type
REMARK                         _______ _______ _______ _____ _____    ______ ____
ROOT
ATOM      1  S   UNL     1      52.373 245.117 325.074  0.00  0.00    +0.000 S 
ATOM      2  N   UNL     1      53.298 243.952 327.464  0.00  0.00    +0.000 NA
ATOM      3  N   UNL     1      51.204 245.200 327.500  0.00  0.00    +0.000 NA
ATOM      4  C   UNL     1      52.342 243.520 328.436  0.00  0.00    +0.000 C 
ATOM      5  C   UNL     1      51.189 244.316 328.530  0.00  0.00    +0.000 C 
ATOM      6  C   UNL     1      53.490 243.090 326.326  0.00  0.00    +0.000 C 
ATOM      7  C   UNL     1      52.383 244.973 326.847  0.00  0.00    +0.000 C 
ATOM      8  C   UNL     1      53.110 243.604 324.972  0.00  0.00    +0.000 C 
ENDROOT
BRANCH   5   9
ATOM      9  C   UNL     1      50.103 244.215 329.493  0.00  0.00    +0.000 A 
ATOM     10  C   UNL     1      50.348 243.953 330.845  0.00  0.00    +0.000 A 
ATOM     11  C   UNL     1      48.779 244.374 329.075  0.00  0.00    +0.000 A 
ATOM     12  C   UNL     1      49.298 243.856 331.757  0.00  0.00    +0.000 A 
ATOM     13  C   UNL     1      47.726 244.277 329.982  0.00  0.00    +0.000 A 
ATOM     14  C   UNL     1      47.986 244.018 331.324  0.00  0.00    +0.000 A 
ENDBRANCH   5   9
TORSDOF 1
ENDMDL
MODEL 7
REMARK VINA RESULT:      -3.6     26.151     26.587
REMARK  Name = 26879_Levamisole.pdbqt.pdb
REMARK  1 active torsions:
REMARK  status: ('A' for Active; 'I' for Inactive)
REMARK    1  A    between atoms: C_5  and  C_9
REMARK                            x       y       z     vdW  Elec       q    Type
REMARK                         _______ _______ _______ _____ _____    ______ ____
ROOT
ATOM      1  S   UNL     1      45.988 235.110 346.753  0.00  0.00    +0.000 S 
ATOM      2  N   UNL     1      44.754 232.588 346.540  0.00  0.00    +0.000 NA
ATOM      3  N   UNL     1      43.996 234.393 345.086  0.00  0.00    +0.000 NA
ATOM      4  C   UNL     1      44.236 232.179 345.271  0.00  0.00    +0.000 C 
ATOM      5  C   UNL     1      43.694 233.212 344.489  0.00  0.00    +0.000 C 
ATOM      6  C   UNL     1      46.180 232.487 346.713  0.00  0.00    +0.000 C 
ATOM      7  C   UNL     1      44.648 234.057 346.240  0.00  0.00    +0.000 C 
ATOM      8  C   UNL     1      46.965 233.746 346.912  0.00  0.00    +0.000 C 
ENDROOT
BRANCH   5   9
ATOM      9  C   UNL     1      42.987 233.103 343.222  0.00  0.00    +0.000 A 
ATOM     10  C   UNL     1      41.970 232.163 343.032  0.00  0.00    +0.000 A 
ATOM     11  C   UNL     1      43.322 233.946 342.159  0.00  0.00    +0.000 A 
ATOM     12  C   UNL     1      41.303 232.067 341.812  0.00  0.00    +0.000 A 
ATOM     13  C   UNL     1      42.658 233.855 340.937  0.00  0.00    +0.000 A 
ATOM     14  C   UNL     1      41.648 232.915 340.764  0.00  0.00    +0.000 A 
ENDBRANCH   5   9
TORSDOF 1
ENDMDL
MODEL 8
REMARK VINA RESULT:      -3.5     26.350     27.354
REMARK  Name = 26879_Levamisole.pdbqt.pdb
REMARK  1 active torsions:
REMARK  status: ('A' for Active; 'I' for Inactive)
REMARK    1  A    between atoms: C_5  and  C_9
REMARK                            x       y       z     vdW  Elec       q    Type
REMARK                         _______ _______ _______ _____ _____    ______ ____
ROOT
ATOM      1  S   UNL     1      56.701 232.947 354.276  0.00  0.00    +0.000 S 
ATOM      2  N   UNL     1      55.028 230.719 353.873  0.00  0.00    +0.000 NA
ATOM      3  N   UNL     1      57.386 230.539 353.280  0.00  0.00    +0.000 NA
ATOM      4  C   UNL     1      55.588 229.408 353.975  0.00  0.00    +0.000 C 
ATOM      5  C   UNL     1      56.912 229.290 353.521  0.00  0.00    +0.000 C 
ATOM      6  C   UNL     1      54.748 231.396 355.114  0.00  0.00    +0.000 C 
ATOM      7  C   UNL     1      56.333 231.377 353.524  0.00  0.00    +0.000 C 
ATOM      8  C   UNL     1      55.512 232.643 355.432  0.00  0.00    +0.000 C 
ENDROOT
BRANCH   5   9
ATOM      9  C   UNL     1      57.709 228.081 353.379  0.00  0.00    +0.000 A 
ATOM     10  C   UNL     1      57.115 226.816 353.340  0.00  0.00    +0.000 A 
ATOM     11  C   UNL     1      59.101 228.167 353.283  0.00  0.00    +0.000 A 
ATOM     12  C   UNL     1      57.891 225.665 353.207  0.00  0.00    +0.000 A 
ATOM     13  C   UNL     1      59.881 227.020 353.149  0.00  0.00    +0.000 A 
ATOM     14  C   UNL     1      59.275 225.769 353.111  0.00  0.00    +0.000 A 
ENDBRANCH   5   9
TORSDOF 1
ENDMDL
MODEL 9
REMARK VINA RESULT:      -3.5     21.639     22.605
REMARK  Name = 26879_Levamisole.pdbqt.pdb
REMARK  1 active torsions:
REMARK  status: ('A' for Active; 'I' for Inactive)
REMARK    1  A    between atoms: C_5  and  C_9
REMARK                            x       y       z     vdW  Elec       q    Type
REMARK                         _______ _______ _______ _____ _____    ______ ____
ROOT
ATOM      1  S   UNL     1      68.716 244.119 326.382  0.00  0.00    +0.000 S 
ATOM      2  N   UNL     1      65.994 244.627 326.889  0.00  0.00    +0.000 NA
ATOM      3  N   UNL     1      67.281 243.375 328.538  0.00  0.00    +0.000 NA
ATOM      4  C   UNL     1      65.558 244.768 328.243  0.00  0.00    +0.000 C 
ATOM      5  C   UNL     1      66.229 243.954 329.171  0.00  0.00    +0.000 C 
ATOM      6  C   UNL     1      66.664 245.763 326.308  0.00  0.00    +0.000 C 
ATOM      7  C   UNL     1      67.191 243.788 327.238  0.00  0.00    +0.000 C 
ATOM      8  C   UNL     1      68.102 245.618 325.918  0.00  0.00    +0.000 C 
ENDROOT
BRANCH   5   9
ATOM      9  C   UNL     1      65.938 243.776 330.585  0.00  0.00    +0.000 A 
ATOM     10  C   UNL     1      66.721 242.946 331.394  0.00  0.00    +0.000 A 
ATOM     11  C   UNL     1      64.853 244.439 331.166  0.00  0.00    +0.000 A 
ATOM     12  C   UNL     1      66.430 242.783 332.747  0.00  0.00    +0.000 A 
ATOM     13  C   UNL     1      64.557 244.279 332.518  0.00  0.00    +0.000 A 
ATOM     14  C   UNL     1      65.347 243.451 333.308  0.00  0.00    +0.000 A 
ENDBRANCH   5   9
TORSDOF 1
ENDMDL
