MODEL 1
REMARK VINA RESULT:      -4.4      0.000      0.000
REMARK  Name = 27924_Phorbol.pdbqt.pdb
REMARK  26 active torsions:
REMARK  status: ('A' for Active; 'I' for Inactive)
REMARK    1  A    between atoms: O_1  and  C_10
REMARK    2  A    between atoms: O_1  and  C_26
REMARK    3  A    between atoms: O_2  and  C_13
REMARK    4  A    between atoms: O_2  and  C_28
REMARK    5  A    between atoms: O_3  and  C_14
REMARK    6  A    between atoms: O_4  and  C_20
REMARK    7  A    between atoms: O_7  and  C_29
REMARK    8  A    between atoms: C_11  and  C_16
REMARK    9  A    between atoms: C_11  and  C_17
REMARK   10  A    between atoms: C_15  and  C_21
REMARK   11  A    between atoms: C_22  and  C_29
REMARK   12  A    between atoms: C_26  and  C_30
REMARK   13  A    between atoms: C_27  and  C_31
REMARK   14  A    between atoms: C_28  and  C_32
REMARK   15  A    between atoms: C_32  and  C_33
REMARK   16  A    between atoms: C_33  and  C_34
REMARK   17  A    between atoms: C_34  and  C_35
REMARK   18  A    between atoms: C_35  and  C_36
REMARK   19  A    between atoms: C_36  and  C_37
REMARK   20  A    between atoms: C_37  and  C_38
REMARK   21  A    between atoms: C_38  and  C_39
REMARK   22  A    between atoms: C_39  and  C_40
REMARK   23  A    between atoms: C_40  and  C_41
REMARK   24  A    between atoms: C_41  and  C_42
REMARK   25  A    between atoms: C_42  and  C_43
REMARK   26  A    between atoms: C_43  and  C_44
REMARK                            x       y       z     vdW  Elec       q    Type
REMARK                         _______ _______ _______ _____ _____    ______ ____
ROOT
ATOM      1  O   UNL     1      74.097 225.818 335.503  0.00  0.00    +0.000 OA
ATOM      2  C   UNL     1      72.819 221.289 340.814  0.00  0.00    +0.000 C 
ATOM      3  C   UNL     1      72.408 219.861 340.507  0.00  0.00    +0.000 C 
ATOM      4  C   UNL     1      71.380 220.885 341.068  0.00  0.00    +0.000 C 
ATOM      5  C   UNL     1      73.422 222.160 339.754  0.00  0.00    +0.000 C 
ATOM      6  C   UNL     1      72.466 219.416 339.034  0.00  0.00    +0.000 C 
ATOM      7  C   UNL     1      73.260 221.714 338.229  0.00  0.00    +0.000 C 
ATOM      8  C   UNL     1      73.595 220.171 338.248  0.00  0.00    +0.000 C 
ATOM      9  C   UNL     1      70.995 220.839 342.537  0.00  0.00    +0.000 C 
ATOM     10  C   UNL     1      70.257 221.437 340.225  0.00  0.00    +0.000 C 
ATOM     11  C   UNL     1      74.154 222.690 337.307  0.00  0.00    +0.000 C 
ATOM     12  C   UNL     1      73.173 223.641 339.975  0.00  0.00    +0.000 C 
ATOM     13  C   UNL     1      73.680 224.211 337.281  0.00  0.00    +0.000 C 
ATOM     14  C   UNL     1      73.819 219.518 336.884  0.00  0.00    +0.000 C 
ATOM     15  C   UNL     1      74.218 224.463 339.740  0.00  0.00    +0.000 C 
ATOM     16  C   UNL     1      74.257 225.132 338.378  0.00  0.00    +0.000 C 
ATOM     17  C   UNL     1      74.266 222.423 335.812  0.00  0.00    +0.000 C 
ATOM     18  C   UNL     1      74.084 224.660 335.893  0.00  0.00    +0.000 C 
ATOM     19  C   UNL     1      74.303 223.502 335.019  0.00  0.00    +0.000 C 
ATOM     20  C   UNL     1      74.491 223.619 333.557  0.00  0.00    +0.000 C 
ENDROOT
BRANCH   7  21
ATOM     21  O   UNL     1      71.904 221.821 337.776  0.00  0.00    +0.000 OA
ATOM     22  H   UNL     1      71.569 220.912 337.607  0.00  0.00    +0.000 HD
ENDBRANCH   7  21
BRANCH  13  23
ATOM     23  O   UNL     1      72.236 224.316 337.259  0.00  0.00    +0.000 OA
ATOM     24  H   UNL     1      71.948 224.294 338.196  0.00  0.00    +0.000 HD
ENDBRANCH  13  23
BRANCH   3  25
ATOM     25  O   UNL     1      73.065 218.954 341.431  0.00  0.00    +0.000 OA
BRANCH  25  27
ATOM     26  O   UNL     1      75.285 218.942 341.099  0.00  0.00    +0.000 OA
ATOM     27  C   UNL     1      74.341 219.086 341.873  0.00  0.00    +0.000 C 
ATOM     28  C   UNL     1      74.573 219.490 343.298  0.00  0.00    +0.000 C 
ENDBRANCH  25  27
ENDBRANCH   3  25
BRANCH  15  29
ATOM     29  C   UNL     1      75.554 224.324 340.422  0.00  0.00    +0.000 C 
BRANCH  29  30
ATOM     30  O   UNL     1      75.521 225.079 341.621  0.00  0.00    +0.000 OA
ATOM     31  H   UNL     1      74.987 225.872 341.437  0.00  0.00    +0.000 HD
ENDBRANCH  29  30
ENDBRANCH  15  29
BRANCH   6  32
ATOM     32  O   UNL     1      72.717 217.984 339.009  0.00  0.00    +0.000 OA
BRANCH  32  34
ATOM     33  O   UNL     1      71.909 215.909 339.211  0.00  0.00    +0.000 OA
ATOM     34  C   UNL     1      71.801 217.031 338.723  0.00  0.00    +0.000 C 
BRANCH  34  35
ATOM     35  C   UNL     1      70.652 217.360 337.802  0.00  0.00    +0.000 C 
BRANCH  35  36
ATOM     36  C   UNL     1      69.328 216.835 338.343  0.00  0.00    +0.000 C 
BRANCH  36  37
ATOM     37  C   UNL     1      68.866 217.513 339.639  0.00  0.00    +0.000 C 
BRANCH  37  38
ATOM     38  C   UNL     1      67.510 218.223 339.534  0.00  0.00    +0.000 C 
BRANCH  38  39
ATOM     39  C   UNL     1      67.611 219.577 338.823  0.00  0.00    +0.000 C 
BRANCH  39  40
ATOM     40  C   UNL     1      66.477 219.830 337.826  0.00  0.00    +0.000 C 
BRANCH  40  41
ATOM     41  C   UNL     1      65.928 218.544 337.203  0.00  0.00    +0.000 C 
BRANCH  41  42
ATOM     42  C   UNL     1      65.975 218.545 335.672  0.00  0.00    +0.000 C 
BRANCH  42  43
ATOM     43  C   UNL     1      65.733 219.898 334.999  0.00  0.00    +0.000 C 
BRANCH  43  44
ATOM     44  C   UNL     1      66.950 220.517 334.302  0.00  0.00    +0.000 C 
BRANCH  44  45
ATOM     45  C   UNL     1      68.042 219.530 333.879  0.00  0.00    +0.000 C 
BRANCH  45  46
ATOM     46  C   UNL     1      69.415 219.743 334.519  0.00  0.00    +0.000 C 
ATOM     47  C   UNL     1      69.387 220.682 335.714  0.00  0.00    +0.000 C 
ENDBRANCH  45  46
ENDBRANCH  44  45
ENDBRANCH  43  44
ENDBRANCH  42  43
ENDBRANCH  41  42
ENDBRANCH  40  41
ENDBRANCH  39  40
ENDBRANCH  38  39
ENDBRANCH  37  38
ENDBRANCH  36  37
ENDBRANCH  35  36
ENDBRANCH  34  35
ENDBRANCH  32  34
ENDBRANCH   6  32
TORSDOF 20
ENDMDL
MODEL 2
REMARK VINA RESULT:      -4.1      4.813     10.202
REMARK  Name = 27924_Phorbol.pdbqt.pdb
REMARK  26 active torsions:
REMARK  status: ('A' for Active; 'I' for Inactive)
REMARK    1  A    between atoms: O_1  and  C_10
REMARK    2  A    between atoms: O_1  and  C_26
REMARK    3  A    between atoms: O_2  and  C_13
REMARK    4  A    between atoms: O_2  and  C_28
REMARK    5  A    between atoms: O_3  and  C_14
REMARK    6  A    between atoms: O_4  and  C_20
REMARK    7  A    between atoms: O_7  and  C_29
REMARK    8  A    between atoms: C_11  and  C_16
REMARK    9  A    between atoms: C_11  and  C_17
REMARK   10  A    between atoms: C_15  and  C_21
REMARK   11  A    between atoms: C_22  and  C_29
REMARK   12  A    between atoms: C_26  and  C_30
REMARK   13  A    between atoms: C_27  and  C_31
REMARK   14  A    between atoms: C_28  and  C_32
REMARK   15  A    between atoms: C_32  and  C_33
REMARK   16  A    between atoms: C_33  and  C_34
REMARK   17  A    between atoms: C_34  and  C_35
REMARK   18  A    between atoms: C_35  and  C_36
REMARK   19  A    between atoms: C_36  and  C_37
REMARK   20  A    between atoms: C_37  and  C_38
REMARK   21  A    between atoms: C_38  and  C_39
REMARK   22  A    between atoms: C_39  and  C_40
REMARK   23  A    between atoms: C_40  and  C_41
REMARK   24  A    between atoms: C_41  and  C_42
REMARK   25  A    between atoms: C_42  and  C_43
REMARK   26  A    between atoms: C_43  and  C_44
REMARK                            x       y       z     vdW  Elec       q    Type
REMARK                         _______ _______ _______ _____ _____    ______ ____
ROOT
ATOM      1  O   UNL     1      60.282 217.504 331.244  0.00  0.00    +0.000 OA
ATOM      2  C   UNL     1      67.005 218.010 333.456  0.00  0.00    +0.000 C 
ATOM      3  C   UNL     1      67.303 218.486 334.866  0.00  0.00    +0.000 C 
ATOM      4  C   UNL     1      67.587 219.398 333.638  0.00  0.00    +0.000 C 
ATOM      5  C   UNL     1      65.627 217.566 333.070  0.00  0.00    +0.000 C 
ATOM      6  C   UNL     1      66.103 218.664 335.814  0.00  0.00    +0.000 C 
ATOM      7  C   UNL     1      64.409 217.970 334.021  0.00  0.00    +0.000 C 
ATOM      8  C   UNL     1      64.946 217.659 335.474  0.00  0.00    +0.000 C 
ATOM      9  C   UNL     1      69.009 219.551 333.126  0.00  0.00    +0.000 C 
ATOM     10  C   UNL     1      66.765 220.630 333.348  0.00  0.00    +0.000 C 
ATOM     11  C   UNL     1      63.080 217.215 333.509  0.00  0.00    +0.000 C 
ATOM     12  C   UNL     1      65.322 217.755 331.595  0.00  0.00    +0.000 C 
ATOM     13  C   UNL     1      62.564 217.664 332.070  0.00  0.00    +0.000 C 
ATOM     14  C   UNL     1      63.899 217.660 336.588  0.00  0.00    +0.000 C 
ATOM     15  C   UNL     1      64.659 216.747 330.989  0.00  0.00    +0.000 C 
ATOM     16  C   UNL     1      63.155 216.910 330.859  0.00  0.00    +0.000 C 
ATOM     17  C   UNL     1      61.786 217.341 334.303  0.00  0.00    +0.000 C 
ATOM     18  C   UNL     1      61.067 217.474 332.180  0.00  0.00    +0.000 C 
ATOM     19  C   UNL     1      60.656 217.412 333.587  0.00  0.00    +0.000 C 
ATOM     20  C   UNL     1      59.243 217.452 334.018  0.00  0.00    +0.000 C 
ENDROOT
BRANCH   7  21
ATOM     21  O   UNL     1      64.142 219.378 333.989  0.00  0.00    +0.000 OA
ATOM     22  H   UNL     1      64.648 219.764 333.239  0.00  0.00    +0.000 HD
ENDBRANCH   7  21
BRANCH  13  23
ATOM     23  O   UNL     1      62.707 219.093 331.877  0.00  0.00    +0.000 OA
ATOM     24  H   UNL     1      62.809 219.478 332.772  0.00  0.00    +0.000 HD
ENDBRANCH  13  23
BRANCH   3  25
ATOM     25  O   UNL     1      68.394 217.707 335.423  0.00  0.00    +0.000 OA
BRANCH  25  27
ATOM     26  O   UNL     1      67.761 215.590 335.821  0.00  0.00    +0.000 OA
ATOM     27  C   UNL     1      68.545 216.367 335.278  0.00  0.00    +0.000 C 
ATOM     28  C   UNL     1      69.630 215.855 334.379  0.00  0.00    +0.000 C 
ENDBRANCH  25  27
ENDBRANCH   3  25
BRANCH  15  29
ATOM     29  C   UNL     1      65.152 215.323 330.968  0.00  0.00    +0.000 C 
BRANCH  29  30
ATOM     30  O   UNL     1      66.375 215.288 330.252  0.00  0.00    +0.000 OA
ATOM     31  H   UNL     1      66.169 215.538 329.333  0.00  0.00    +0.000 HD
ENDBRANCH  29  30
ENDBRANCH  15  29
BRANCH   6  32
ATOM     32  O   UNL     1      66.569 218.442 337.173  0.00  0.00    +0.000 OA
BRANCH  32  34
ATOM     33  O   UNL     1      66.542 220.577 337.839  0.00  0.00    +0.000 OA
ATOM     34  C   UNL     1      66.840 219.409 338.078  0.00  0.00    +0.000 C 
BRANCH  34  35
ATOM     35  C   UNL     1      67.510 219.039 339.379  0.00  0.00    +0.000 C 
BRANCH  35  36
ATOM     36  C   UNL     1      68.788 218.243 339.148  0.00  0.00    +0.000 C 
BRANCH  36  37
ATOM     37  C   UNL     1      70.039 218.867 339.776  0.00  0.00    +0.000 C 
BRANCH  37  38
ATOM     38  C   UNL     1      69.830 220.280 340.337  0.00  0.00    +0.000 C 
BRANCH  38  39
ATOM     39  C   UNL     1      71.065 221.170 340.161  0.00  0.00    +0.000 C 
BRANCH  39  40
ATOM     40  C   UNL     1      70.735 222.584 339.676  0.00  0.00    +0.000 C 
BRANCH  40  41
ATOM     41  C   UNL     1      69.463 222.646 338.827  0.00  0.00    +0.000 C 
BRANCH  41  42
ATOM     42  C   UNL     1      69.709 223.157 337.404  0.00  0.00    +0.000 C 
BRANCH  42  43
ATOM     43  C   UNL     1      69.494 222.136 336.283  0.00  0.00    +0.000 C 
BRANCH  43  44
ATOM     44  C   UNL     1      69.930 220.703 336.601  0.00  0.00    +0.000 C 
BRANCH  44  45
ATOM     45  C   UNL     1      71.225 220.240 335.927  0.00  0.00    +0.000 C 
BRANCH  45  46
ATOM     46  C   UNL     1      72.156 219.387 336.790  0.00  0.00    +0.000 C 
ATOM     47  C   UNL     1      71.854 217.898 336.719  0.00  0.00    +0.000 C 
ENDBRANCH  45  46
ENDBRANCH  44  45
ENDBRANCH  43  44
ENDBRANCH  42  43
ENDBRANCH  41  42
ENDBRANCH  40  41
ENDBRANCH  39  40
ENDBRANCH  38  39
ENDBRANCH  37  38
ENDBRANCH  36  37
ENDBRANCH  35  36
ENDBRANCH  34  35
ENDBRANCH  32  34
ENDBRANCH   6  32
TORSDOF 20
ENDMDL
MODEL 3
REMARK VINA RESULT:      -4.0      4.459      7.783
REMARK  Name = 27924_Phorbol.pdbqt.pdb
REMARK  26 active torsions:
REMARK  status: ('A' for Active; 'I' for Inactive)
REMARK    1  A    between atoms: O_1  and  C_10
REMARK    2  A    between atoms: O_1  and  C_26
REMARK    3  A    between atoms: O_2  and  C_13
REMARK    4  A    between atoms: O_2  and  C_28
REMARK    5  A    between atoms: O_3  and  C_14
REMARK    6  A    between atoms: O_4  and  C_20
REMARK    7  A    between atoms: O_7  and  C_29
REMARK    8  A    between atoms: C_11  and  C_16
REMARK    9  A    between atoms: C_11  and  C_17
REMARK   10  A    between atoms: C_15  and  C_21
REMARK   11  A    between atoms: C_22  and  C_29
REMARK   12  A    between atoms: C_26  and  C_30
REMARK   13  A    between atoms: C_27  and  C_31
REMARK   14  A    between atoms: C_28  and  C_32
REMARK   15  A    between atoms: C_32  and  C_33
REMARK   16  A    between atoms: C_33  and  C_34
REMARK   17  A    between atoms: C_34  and  C_35
REMARK   18  A    between atoms: C_35  and  C_36
REMARK   19  A    between atoms: C_36  and  C_37
REMARK   20  A    between atoms: C_37  and  C_38
REMARK   21  A    between atoms: C_38  and  C_39
REMARK   22  A    between atoms: C_39  and  C_40
REMARK   23  A    between atoms: C_40  and  C_41
REMARK   24  A    between atoms: C_41  and  C_42
REMARK   25  A    between atoms: C_42  and  C_43
REMARK   26  A    between atoms: C_43  and  C_44
REMARK                            x       y       z     vdW  Elec       q    Type
REMARK                         _______ _______ _______ _____ _____    ______ ____
ROOT
ATOM      1  O   UNL     1      79.831 230.897 344.887  0.00  0.00    +0.000 OA
ATOM      2  C   UNL     1      77.507 224.372 343.342  0.00  0.00    +0.000 C 
ATOM      3  C   UNL     1      76.875 224.097 341.991  0.00  0.00    +0.000 C 
ATOM      4  C   UNL     1      76.009 224.152 343.282  0.00  0.00    +0.000 C 
ATOM      5  C   UNL     1      78.308 225.618 343.576  0.00  0.00    +0.000 C 
ATOM      6  C   UNL     1      76.935 225.225 340.944  0.00  0.00    +0.000 C 
ATOM      7  C   UNL     1      78.155 226.820 342.534  0.00  0.00    +0.000 C 
ATOM      8  C   UNL     1      78.219 226.109 341.125  0.00  0.00    +0.000 C 
ATOM      9  C   UNL     1      75.542 222.860 343.932  0.00  0.00    +0.000 C 
ATOM     10  C   UNL     1      75.045 225.281 343.553  0.00  0.00    +0.000 C 
ATOM     11  C   UNL     1      79.252 227.949 342.883  0.00  0.00    +0.000 C 
ATOM     12  C   UNL     1      78.305 226.075 345.022  0.00  0.00    +0.000 C 
ATOM     13  C   UNL     1      79.048 228.673 344.287  0.00  0.00    +0.000 C 
ATOM     14  C   UNL     1      78.401 227.031 339.919  0.00  0.00    +0.000 C 
ATOM     15  C   UNL     1      79.487 226.505 345.515  0.00  0.00    +0.000 C 
ATOM     16  C   UNL     1      79.714 228.006 345.511  0.00  0.00    +0.000 C 
ATOM     17  C   UNL     1      79.397 229.166 341.978  0.00  0.00    +0.000 C 
ATOM     18  C   UNL     1      79.598 230.059 344.028  0.00  0.00    +0.000 C 
ATOM     19  C   UNL     1      79.662 230.329 342.587  0.00  0.00    +0.000 C 
ATOM     20  C   UNL     1      79.946 231.668 342.029  0.00  0.00    +0.000 C 
ENDROOT
BRANCH   7  21
ATOM     21  O   UNL     1      76.864 227.439 342.610  0.00  0.00    +0.000 OA
ATOM     22  H   UNL     1      76.878 228.077 343.357  0.00  0.00    +0.000 HD
ENDBRANCH   7  21
BRANCH  13  23
ATOM     23  O   UNL     1      77.646 228.915 344.561  0.00  0.00    +0.000 OA
ATOM     24  H   UNL     1      77.283 228.065 344.886  0.00  0.00    +0.000 HD
ENDBRANCH  13  23
BRANCH   3  25
ATOM     25  O   UNL     1      77.315 222.803 341.501  0.00  0.00    +0.000 OA
BRANCH  25  27
ATOM     26  O   UNL     1      78.674 221.352 342.545  0.00  0.00    +0.000 OA
ATOM     27  C   UNL     1      78.538 222.262 341.728  0.00  0.00    +0.000 C 
ATOM     28  C   UNL     1      79.701 222.734 340.908  0.00  0.00    +0.000 C 
ENDBRANCH  25  27
ENDBRANCH   3  25
BRANCH  15  29
ATOM     29  C   UNL     1      80.740 225.669 345.513  0.00  0.00    +0.000 C 
BRANCH  29  30
ATOM     30  O   UNL     1      80.462 224.452 346.185  0.00  0.00    +0.000 OA
ATOM     31  H   UNL     1      79.557 224.196 345.936  0.00  0.00    +0.000 HD
ENDBRANCH  29  30
ENDBRANCH  15  29
BRANCH   6  32
ATOM     32  O   UNL     1      76.938 224.611 339.626  0.00  0.00    +0.000 OA
BRANCH  32  34
ATOM     33  O   UNL     1      76.167 224.530 337.528  0.00  0.00    +0.000 OA
ATOM     34  C   UNL     1      75.932 224.683 338.724  0.00  0.00    +0.000 C 
BRANCH  34  35
ATOM     35  C   UNL     1      74.526 224.950 339.202  0.00  0.00    +0.000 C 
BRANCH  35  36
ATOM     36  C   UNL     1      73.647 223.711 339.087  0.00  0.00    +0.000 C 
BRANCH  36  37
ATOM     37  C   UNL     1      72.809 223.417 340.337  0.00  0.00    +0.000 C 
BRANCH  37  38
ATOM     38  C   UNL     1      72.522 221.928 340.572  0.00  0.00    +0.000 C 
BRANCH  38  39
ATOM     39  C   UNL     1      71.024 221.632 340.696  0.00  0.00    +0.000 C 
BRANCH  39  40
ATOM     40  C   UNL     1      70.534 220.542 339.739  0.00  0.00    +0.000 C 
BRANCH  40  41
ATOM     41  C   UNL     1      69.251 220.926 338.998  0.00  0.00    +0.000 C 
BRANCH  41  42
ATOM     42  C   UNL     1      69.368 220.793 337.477  0.00  0.00    +0.000 C 
BRANCH  42  43
ATOM     43  C   UNL     1      69.543 222.105 336.705  0.00  0.00    +0.000 C 
BRANCH  43  44
ATOM     44  C   UNL     1      70.947 222.715 336.748  0.00  0.00    +0.000 C 
BRANCH  44  45
ATOM     45  C   UNL     1      72.098 221.747 336.459  0.00  0.00    +0.000 C 
BRANCH  45  46
ATOM     46  C   UNL     1      72.869 221.999 335.162  0.00  0.00    +0.000 C 
ATOM     47  C   UNL     1      73.830 223.174 335.246  0.00  0.00    +0.000 C 
ENDBRANCH  45  46
ENDBRANCH  44  45
ENDBRANCH  43  44
ENDBRANCH  42  43
ENDBRANCH  41  42
ENDBRANCH  40  41
ENDBRANCH  39  40
ENDBRANCH  38  39
ENDBRANCH  37  38
ENDBRANCH  36  37
ENDBRANCH  35  36
ENDBRANCH  34  35
ENDBRANCH  32  34
ENDBRANCH   6  32
TORSDOF 20
ENDMDL
MODEL 4
REMARK VINA RESULT:      -3.9      2.136      3.489
REMARK  Name = 27924_Phorbol.pdbqt.pdb
REMARK  26 active torsions:
REMARK  status: ('A' for Active; 'I' for Inactive)
REMARK    1  A    between atoms: O_1  and  C_10
REMARK    2  A    between atoms: O_1  and  C_26
REMARK    3  A    between atoms: O_2  and  C_13
REMARK    4  A    between atoms: O_2  and  C_28
REMARK    5  A    between atoms: O_3  and  C_14
REMARK    6  A    between atoms: O_4  and  C_20
REMARK    7  A    between atoms: O_7  and  C_29
REMARK    8  A    between atoms: C_11  and  C_16
REMARK    9  A    between atoms: C_11  and  C_17
REMARK   10  A    between atoms: C_15  and  C_21
REMARK   11  A    between atoms: C_22  and  C_29
REMARK   12  A    between atoms: C_26  and  C_30
REMARK   13  A    between atoms: C_27  and  C_31
REMARK   14  A    between atoms: C_28  and  C_32
REMARK   15  A    between atoms: C_32  and  C_33
REMARK   16  A    between atoms: C_33  and  C_34
REMARK   17  A    between atoms: C_34  and  C_35
REMARK   18  A    between atoms: C_35  and  C_36
REMARK   19  A    between atoms: C_36  and  C_37
REMARK   20  A    between atoms: C_37  and  C_38
REMARK   21  A    between atoms: C_38  and  C_39
REMARK   22  A    between atoms: C_39  and  C_40
REMARK   23  A    between atoms: C_40  and  C_41
REMARK   24  A    between atoms: C_41  and  C_42
REMARK   25  A    between atoms: C_42  and  C_43
REMARK   26  A    between atoms: C_43  and  C_44
REMARK                            x       y       z     vdW  Elec       q    Type
REMARK                         _______ _______ _______ _____ _____    ______ ____
ROOT
ATOM      1  O   UNL     1      75.252 224.917 334.068  0.00  0.00    +0.000 OA
ATOM      2  C   UNL     1      72.222 221.128 339.247  0.00  0.00    +0.000 C 
ATOM      3  C   UNL     1      70.853 220.511 339.029  0.00  0.00    +0.000 C 
ATOM      4  C   UNL     1      71.037 221.738 339.968  0.00  0.00    +0.000 C 
ATOM      5  C   UNL     1      73.032 221.630 338.089  0.00  0.00    +0.000 C 
ATOM      6  C   UNL     1      70.264 220.593 337.609  0.00  0.00    +0.000 C 
ATOM      7  C   UNL     1      72.287 221.873 336.697  0.00  0.00    +0.000 C 
ATOM      8  C   UNL     1      71.391 220.584 336.517  0.00  0.00    +0.000 C 
ATOM      9  C   UNL     1      71.053 221.539 341.474  0.00  0.00    +0.000 C 
ATOM     10  C   UNL     1      70.526 223.110 339.603  0.00  0.00    +0.000 C 
ATOM     11  C   UNL     1      73.392 222.212 335.572  0.00  0.00    +0.000 C 
ATOM     12  C   UNL     1      73.988 222.748 338.460  0.00  0.00    +0.000 C 
ATOM     13  C   UNL     1      74.179 223.579 335.792  0.00  0.00    +0.000 C 
ATOM     14  C   UNL     1      70.784 220.381 335.129  0.00  0.00    +0.000 C 
ATOM     15  C   UNL     1      75.222 222.682 337.916  0.00  0.00    +0.000 C 
ATOM     16  C   UNL     1      75.452 223.509 336.663  0.00  0.00    +0.000 C 
ATOM     17  C   UNL     1      72.963 222.386 334.121  0.00  0.00    +0.000 C 
ATOM     18  C   UNL     1      74.483 224.018 334.377  0.00  0.00    +0.000 C 
ATOM     19  C   UNL     1      73.606 223.331 333.422  0.00  0.00    +0.000 C 
ATOM     20  C   UNL     1      73.513 223.708 331.996  0.00  0.00    +0.000 C 
ENDROOT
BRANCH   7  21
ATOM     21  O   UNL     1      71.381 222.982 336.755  0.00  0.00    +0.000 OA
ATOM     22  H   UNL     1      70.552 222.673 337.184  0.00  0.00    +0.000 HD
ENDBRANCH   7  21
BRANCH  13  23
ATOM     23  O   UNL     1      73.302 224.622 336.285  0.00  0.00    +0.000 OA
ATOM     24  H   UNL     1      73.866 225.222 336.816  0.00  0.00    +0.000 HD
ENDBRANCH  13  23
BRANCH   3  25
ATOM     25  O   UNL     1      70.817 219.184 339.615  0.00  0.00    +0.000 OA
BRANCH  25  27
ATOM     26  O   UNL     1      72.187 217.785 338.515  0.00  0.00    +0.000 OA
ATOM     27  C   UNL     1      71.839 218.292 339.580  0.00  0.00    +0.000 C 
ATOM     28  C   UNL     1      72.586 217.999 340.847  0.00  0.00    +0.000 C 
ENDBRANCH  25  27
ENDBRANCH   3  25
BRANCH  15  29
ATOM     29  C   UNL     1      76.139 221.498 338.077  0.00  0.00    +0.000 C 
BRANCH  29  30
ATOM     30  O   UNL     1      77.343 221.771 337.380  0.00  0.00    +0.000 OA
ATOM     31  H   UNL     1      78.030 221.206 337.777  0.00  0.00    +0.000 HD
ENDBRANCH  29  30
ENDBRANCH  15  29
BRANCH   6  32
ATOM     32  O   UNL     1      69.385 219.450 337.423  0.00  0.00    +0.000 OA
BRANCH  32  34
ATOM     33  O   UNL     1      67.536 220.113 338.493  0.00  0.00    +0.000 OA
ATOM     34  C   UNL     1      68.042 219.457 337.585  0.00  0.00    +0.000 C 
BRANCH  34  35
ATOM     35  C   UNL     1      67.179 218.655 336.644  0.00  0.00    +0.000 C 
BRANCH  35  36
ATOM     36  C   UNL     1      65.722 219.099 336.699  0.00  0.00    +0.000 C 
BRANCH  36  37
ATOM     37  C   UNL     1      64.770 218.235 335.865  0.00  0.00    +0.000 C 
BRANCH  37  38
ATOM     38  C   UNL     1      64.836 216.734 336.179  0.00  0.00    +0.000 C 
BRANCH  38  39
ATOM     39  C   UNL     1      65.179 215.891 334.946  0.00  0.00    +0.000 C 
BRANCH  39  40
ATOM     40  C   UNL     1      64.926 216.616 333.621  0.00  0.00    +0.000 C 
BRANCH  40  41
ATOM     41  C   UNL     1      66.091 216.491 332.637  0.00  0.00    +0.000 C 
BRANCH  41  42
ATOM     42  C   UNL     1      67.366 217.192 333.115  0.00  0.00    +0.000 C 
BRANCH  42  43
ATOM     43  C   UNL     1      67.727 218.490 332.386  0.00  0.00    +0.000 C 
BRANCH  43  44
ATOM     44  C   UNL     1      67.724 219.755 333.249  0.00  0.00    +0.000 C 
BRANCH  44  45
ATOM     45  C   UNL     1      66.381 220.484 333.351  0.00  0.00    +0.000 C 
BRANCH  45  46
ATOM     46  C   UNL     1      65.385 220.204 332.224  0.00  0.00    +0.000 C 
ATOM     47  C   UNL     1      65.431 221.234 331.106  0.00  0.00    +0.000 C 
ENDBRANCH  45  46
ENDBRANCH  44  45
ENDBRANCH  43  44
ENDBRANCH  42  43
ENDBRANCH  41  42
ENDBRANCH  40  41
ENDBRANCH  39  40
ENDBRANCH  38  39
ENDBRANCH  37  38
ENDBRANCH  36  37
ENDBRANCH  35  36
ENDBRANCH  34  35
ENDBRANCH  32  34
ENDBRANCH   6  32
TORSDOF 20
ENDMDL
MODEL 5
REMARK VINA RESULT:      -3.7     16.080     19.893
REMARK  Name = 27924_Phorbol.pdbqt.pdb
REMARK  26 active torsions:
REMARK  status: ('A' for Active; 'I' for Inactive)
REMARK    1  A    between atoms: O_1  and  C_10
REMARK    2  A    between atoms: O_1  and  C_26
REMARK    3  A    between atoms: O_2  and  C_13
REMARK    4  A    between atoms: O_2  and  C_28
REMARK    5  A    between atoms: O_3  and  C_14
REMARK    6  A    between atoms: O_4  and  C_20
REMARK    7  A    between atoms: O_7  and  C_29
REMARK    8  A    between atoms: C_11  and  C_16
REMARK    9  A    between atoms: C_11  and  C_17
REMARK   10  A    between atoms: C_15  and  C_21
REMARK   11  A    between atoms: C_22  and  C_29
REMARK   12  A    between atoms: C_26  and  C_30
REMARK   13  A    between atoms: C_27  and  C_31
REMARK   14  A    between atoms: C_28  and  C_32
REMARK   15  A    between atoms: C_32  and  C_33
REMARK   16  A    between atoms: C_33  and  C_34
REMARK   17  A    between atoms: C_34  and  C_35
REMARK   18  A    between atoms: C_35  and  C_36
REMARK   19  A    between atoms: C_36  and  C_37
REMARK   20  A    between atoms: C_37  and  C_38
REMARK   21  A    between atoms: C_38  and  C_39
REMARK   22  A    between atoms: C_39  and  C_40
REMARK   23  A    between atoms: C_40  and  C_41
REMARK   24  A    between atoms: C_41  and  C_42
REMARK   25  A    between atoms: C_42  and  C_43
REMARK   26  A    between atoms: C_43  and  C_44
REMARK                            x       y       z     vdW  Elec       q    Type
REMARK                         _______ _______ _______ _____ _____    ______ ____
ROOT
ATOM      1  O   UNL     1      64.583 224.804 355.086  0.00  0.00    +0.000 OA
ATOM      2  C   UNL     1      64.331 229.823 350.076  0.00  0.00    +0.000 C 
ATOM      3  C   UNL     1      63.962 231.246 350.451  0.00  0.00    +0.000 C 
ATOM      4  C   UNL     1      62.968 230.344 349.666  0.00  0.00    +0.000 C 
ATOM      5  C   UNL     1      64.727 228.830 351.127  0.00  0.00    +0.000 C 
ATOM      6  C   UNL     1      63.836 231.566 351.952  0.00  0.00    +0.000 C 
ATOM      7  C   UNL     1      64.376 229.161 352.650  0.00  0.00    +0.000 C 
ATOM      8  C   UNL     1      64.798 230.675 352.814  0.00  0.00    +0.000 C 
ATOM      9  C   UNL     1      62.798 230.535 348.168  0.00  0.00    +0.000 C 
ATOM     10  C   UNL     1      61.707 229.804 350.296  0.00  0.00    +0.000 C 
ATOM     11  C   UNL     1      65.073 228.055 353.593  0.00  0.00    +0.000 C 
ATOM     12  C   UNL     1      64.428 227.392 350.743  0.00  0.00    +0.000 C 
ATOM     13  C   UNL     1      64.514 226.574 353.419  0.00  0.00    +0.000 C 
ATOM     14  C   UNL     1      64.863 231.198 354.249  0.00  0.00    +0.000 C 
ATOM     15  C   UNL     1      65.381 226.484 351.043  0.00  0.00    +0.000 C 
ATOM     16  C   UNL     1      65.188 225.706 352.333  0.00  0.00    +0.000 C 
ATOM     17  C   UNL     1      64.987 228.193 355.108  0.00  0.00    +0.000 C 
ATOM     18  C   UNL     1      64.692 225.988 354.803  0.00  0.00    +0.000 C 
ATOM     19  C   UNL     1      64.849 227.054 355.799  0.00  0.00    +0.000 C 
ATOM     20  C   UNL     1      64.821 226.807 357.256  0.00  0.00    +0.000 C 
ENDROOT
BRANCH   7  21
ATOM     21  O   UNL     1      62.965 229.112 352.902  0.00  0.00    +0.000 OA
ATOM     22  H   UNL     1      62.828 228.649 353.758  0.00  0.00    +0.000 HD
ENDBRANCH   7  21
BRANCH  13  23
ATOM     23  O   UNL     1      63.078 226.567 353.234  0.00  0.00    +0.000 OA
ATOM     24  H   UNL     1      62.840 225.648 352.989  0.00  0.00    +0.000 HD
ENDBRANCH  13  23
BRANCH   3  25
ATOM     25  O   UNL     1      64.794 232.177 349.710  0.00  0.00    +0.000 OA
BRANCH  25  27
ATOM     26  O   UNL     1      66.210 231.669 348.043  0.00  0.00    +0.000 OA
ATOM     27  C   UNL     1      66.036 231.902 349.238  0.00  0.00    +0.000 C 
ATOM     28  C   UNL     1      67.199 231.969 350.182  0.00  0.00    +0.000 C 
ENDBRANCH  25  27
ENDBRANCH   3  25
BRANCH  15  29
ATOM     29  C   UNL     1      66.805 226.585 350.565  0.00  0.00    +0.000 C 
BRANCH  29  30
ATOM     30  O   UNL     1      67.653 226.093 351.589  0.00  0.00    +0.000 OA
ATOM     31  H   UNL     1      67.118 226.057 352.402  0.00  0.00    +0.000 HD
ENDBRANCH  29  30
ENDBRANCH  15  29
BRANCH   6  32
ATOM     32  O   UNL     1      64.162 232.971 352.139  0.00  0.00    +0.000 OA
BRANCH  32  34
ATOM     33  O   UNL     1      63.201 234.863 351.434  0.00  0.00    +0.000 OA
ATOM     34  C   UNL     1      63.266 233.974 352.279  0.00  0.00    +0.000 C 
BRANCH  34  35
ATOM     35  C   UNL     1      62.351 233.987 353.479  0.00  0.00    +0.000 C 
BRANCH  35  36
ATOM     36  C   UNL     1      60.930 233.579 353.109  0.00  0.00    +0.000 C 
BRANCH  36  37
ATOM     37  C   UNL     1      60.449 232.293 353.791  0.00  0.00    +0.000 C 
BRANCH  37  38
ATOM     38  C   UNL     1      61.446 231.694 354.792  0.00  0.00    +0.000 C 
BRANCH  38  39
ATOM     39  C   UNL     1      60.780 230.725 355.774  0.00  0.00    +0.000 C 
BRANCH  39  40
ATOM     40  C   UNL     1      61.528 229.397 355.925  0.00  0.00    +0.000 C 
BRANCH  40  41
ATOM     41  C   UNL     1      60.711 228.192 355.452  0.00  0.00    +0.000 C 
BRANCH  41  42
ATOM     42  C   UNL     1      61.085 226.890 356.167  0.00  0.00    +0.000 C 
BRANCH  42  43
ATOM     43  C   UNL     1      60.596 225.600 355.500  0.00  0.00    +0.000 C 
BRANCH  43  44
ATOM     44  C   UNL     1      59.777 225.787 354.219  0.00  0.00    +0.000 C 
BRANCH  44  45
ATOM     45  C   UNL     1      58.426 225.066 354.187  0.00  0.00    +0.000 C 
BRANCH  45  46
ATOM     46  C   UNL     1      57.266 225.852 353.573  0.00  0.00    +0.000 C 
ATOM     47  C   UNL     1      56.473 225.059 352.547  0.00  0.00    +0.000 C 
ENDBRANCH  45  46
ENDBRANCH  44  45
ENDBRANCH  43  44
ENDBRANCH  42  43
ENDBRANCH  41  42
ENDBRANCH  40  41
ENDBRANCH  39  40
ENDBRANCH  38  39
ENDBRANCH  37  38
ENDBRANCH  36  37
ENDBRANCH  35  36
ENDBRANCH  34  35
ENDBRANCH  32  34
ENDBRANCH   6  32
TORSDOF 20
ENDMDL
MODEL 6
REMARK VINA RESULT:      -3.5     13.545     17.340
REMARK  Name = 27924_Phorbol.pdbqt.pdb
REMARK  26 active torsions:
REMARK  status: ('A' for Active; 'I' for Inactive)
REMARK    1  A    between atoms: O_1  and  C_10
REMARK    2  A    between atoms: O_1  and  C_26
REMARK    3  A    between atoms: O_2  and  C_13
REMARK    4  A    between atoms: O_2  and  C_28
REMARK    5  A    between atoms: O_3  and  C_14
REMARK    6  A    between atoms: O_4  and  C_20
REMARK    7  A    between atoms: O_7  and  C_29
REMARK    8  A    between atoms: C_11  and  C_16
REMARK    9  A    between atoms: C_11  and  C_17
REMARK   10  A    between atoms: C_15  and  C_21
REMARK   11  A    between atoms: C_22  and  C_29
REMARK   12  A    between atoms: C_26  and  C_30
REMARK   13  A    between atoms: C_27  and  C_31
REMARK   14  A    between atoms: C_28  and  C_32
REMARK   15  A    between atoms: C_32  and  C_33
REMARK   16  A    between atoms: C_33  and  C_34
REMARK   17  A    between atoms: C_34  and  C_35
REMARK   18  A    between atoms: C_35  and  C_36
REMARK   19  A    between atoms: C_36  and  C_37
REMARK   20  A    between atoms: C_37  and  C_38
REMARK   21  A    between atoms: C_38  and  C_39
REMARK   22  A    between atoms: C_39  and  C_40
REMARK   23  A    between atoms: C_40  and  C_41
REMARK   24  A    between atoms: C_41  and  C_42
REMARK   25  A    between atoms: C_42  and  C_43
REMARK   26  A    between atoms: C_43  and  C_44
REMARK                            x       y       z     vdW  Elec       q    Type
REMARK                         _______ _______ _______ _____ _____    ______ ____
ROOT
ATOM      1  O   UNL     1      80.750 232.890 340.946  0.00  0.00    +0.000 OA
ATOM      2  C   UNL     1      76.535 238.436 339.592  0.00  0.00    +0.000 C 
ATOM      3  C   UNL     1      75.278 238.245 338.764  0.00  0.00    +0.000 C 
ATOM      4  C   UNL     1      76.517 238.981 338.178  0.00  0.00    +0.000 C 
ATOM      5  C   UNL     1      77.253 237.259 340.182  0.00  0.00    +0.000 C 
ATOM      6  C   UNL     1      74.886 236.799 338.408  0.00  0.00    +0.000 C 
ATOM      7  C   UNL     1      76.920 235.806 339.608  0.00  0.00    +0.000 C 
ATOM      8  C   UNL     1      75.343 235.788 339.518  0.00  0.00    +0.000 C 
ATOM      9  C   UNL     1      76.522 240.498 338.094  0.00  0.00    +0.000 C 
ATOM     10  C   UNL     1      77.375 238.370 337.098  0.00  0.00    +0.000 C 
ATOM     11  C   UNL     1      77.657 234.706 340.527  0.00  0.00    +0.000 C 
ATOM     12  C   UNL     1      78.738 237.497 340.384  0.00  0.00    +0.000 C 
ATOM     13  C   UNL     1      79.248 234.745 340.479  0.00  0.00    +0.000 C 
ATOM     14  C   UNL     1      74.702 234.420 339.285  0.00  0.00    +0.000 C 
ATOM     15  C   UNL     1      79.263 237.041 341.542  0.00  0.00    +0.000 C 
ATOM     16  C   UNL     1      79.946 235.686 341.486  0.00  0.00    +0.000 C 
ATOM     17  C   UNL     1      77.422 233.224 340.265  0.00  0.00    +0.000 C 
ATOM     18  C   UNL     1      79.623 233.296 340.704  0.00  0.00    +0.000 C 
ATOM     19  C   UNL     1      78.480 232.419 340.428  0.00  0.00    +0.000 C 
ATOM     20  C   UNL     1      78.595 230.947 340.346  0.00  0.00    +0.000 C 
ENDROOT
BRANCH   7  21
ATOM     21  O   UNL     1      77.397 235.633 338.267  0.00  0.00    +0.000 OA
ATOM     22  H   UNL     1      77.441 236.520 337.845  0.00  0.00    +0.000 HD
ENDBRANCH   7  21
BRANCH  13  23
ATOM     23  O   UNL     1      79.732 235.013 339.140  0.00  0.00    +0.000 OA
ATOM     24  H   UNL     1      79.059 234.643 338.530  0.00  0.00    +0.000 HD
ENDBRANCH  13  23
BRANCH   3  25
ATOM     25  O   UNL     1      74.199 239.035 339.327  0.00  0.00    +0.000 OA
BRANCH  25  27
ATOM     26  O   UNL     1      73.544 238.217 341.313  0.00  0.00    +0.000 OA
ATOM     27  C   UNL     1      73.946 239.173 340.653  0.00  0.00    +0.000 C 
ATOM     28  C   UNL     1      74.246 240.486 341.312  0.00  0.00    +0.000 C 
ENDBRANCH  25  27
ENDBRANCH   3  25
BRANCH  15  29
ATOM     29  C   UNL     1      78.752 237.444 342.901  0.00  0.00    +0.000 C 
BRANCH  29  30
ATOM     30  O   UNL     1      78.599 236.271 343.682  0.00  0.00    +0.000 OA
ATOM     31  H   UNL     1      78.622 236.551 344.614  0.00  0.00    +0.000 HD
ENDBRANCH  29  30
ENDBRANCH  15  29
BRANCH   6  32
ATOM     32  O   UNL     1      73.440 236.752 338.260  0.00  0.00    +0.000 OA
BRANCH  32  34
ATOM     33  O   UNL     1      71.552 237.336 337.213  0.00  0.00    +0.000 OA
ATOM     34  C   UNL     1      72.753 237.088 337.144  0.00  0.00    +0.000 C 
BRANCH  34  35
ATOM     35  C   UNL     1      73.476 237.155 335.821  0.00  0.00    +0.000 C 
BRANCH  35  36
ATOM     36  C   UNL     1      72.549 236.831 334.656  0.00  0.00    +0.000 C 
BRANCH  36  37
ATOM     37  C   UNL     1      72.729 235.420 334.084  0.00  0.00    +0.000 C 
BRANCH  37  38
ATOM     38  C   UNL     1      71.771 235.075 332.936  0.00  0.00    +0.000 C 
BRANCH  38  39
ATOM     39  C   UNL     1      72.099 235.840 331.649  0.00  0.00    +0.000 C 
BRANCH  39  40
ATOM     40  C   UNL     1      72.880 235.010 330.626  0.00  0.00    +0.000 C 
BRANCH  40  41
ATOM     41  C   UNL     1      74.284 235.557 330.356  0.00  0.00    +0.000 C 
BRANCH  41  42
ATOM     42  C   UNL     1      74.414 237.056 330.637  0.00  0.00    +0.000 C 
BRANCH  42  43
ATOM     43  C   UNL     1      75.290 237.436 331.834  0.00  0.00    +0.000 C 
BRANCH  43  44
ATOM     44  C   UNL     1      74.887 238.719 332.568  0.00  0.00    +0.000 C 
BRANCH  44  45
ATOM     45  C   UNL     1      73.874 239.607 331.840  0.00  0.00    +0.000 C 
BRANCH  45  46
ATOM     46  C   UNL     1      72.497 239.723 332.496  0.00  0.00    +0.000 C 
ATOM     47  C   UNL     1      71.345 239.483 331.533  0.00  0.00    +0.000 C 
ENDBRANCH  45  46
ENDBRANCH  44  45
ENDBRANCH  43  44
ENDBRANCH  42  43
ENDBRANCH  41  42
ENDBRANCH  40  41
ENDBRANCH  39  40
ENDBRANCH  38  39
ENDBRANCH  37  38
ENDBRANCH  36  37
ENDBRANCH  35  36
ENDBRANCH  34  35
ENDBRANCH  32  34
ENDBRANCH   6  32
TORSDOF 20
ENDMDL
MODEL 7
REMARK VINA RESULT:      -3.3     32.473     35.408
REMARK  Name = 27924_Phorbol.pdbqt.pdb
REMARK  26 active torsions:
REMARK  status: ('A' for Active; 'I' for Inactive)
REMARK    1  A    between atoms: O_1  and  C_10
REMARK    2  A    between atoms: O_1  and  C_26
REMARK    3  A    between atoms: O_2  and  C_13
REMARK    4  A    between atoms: O_2  and  C_28
REMARK    5  A    between atoms: O_3  and  C_14
REMARK    6  A    between atoms: O_4  and  C_20
REMARK    7  A    between atoms: O_7  and  C_29
REMARK    8  A    between atoms: C_11  and  C_16
REMARK    9  A    between atoms: C_11  and  C_17
REMARK   10  A    between atoms: C_15  and  C_21
REMARK   11  A    between atoms: C_22  and  C_29
REMARK   12  A    between atoms: C_26  and  C_30
REMARK   13  A    between atoms: C_27  and  C_31
REMARK   14  A    between atoms: C_28  and  C_32
REMARK   15  A    between atoms: C_32  and  C_33
REMARK   16  A    between atoms: C_33  and  C_34
REMARK   17  A    between atoms: C_34  and  C_35
REMARK   18  A    between atoms: C_35  and  C_36
REMARK   19  A    between atoms: C_36  and  C_37
REMARK   20  A    between atoms: C_37  and  C_38
REMARK   21  A    between atoms: C_38  and  C_39
REMARK   22  A    between atoms: C_39  and  C_40
REMARK   23  A    between atoms: C_40  and  C_41
REMARK   24  A    between atoms: C_41  and  C_42
REMARK   25  A    between atoms: C_42  and  C_43
REMARK   26  A    between atoms: C_43  and  C_44
REMARK                            x       y       z     vdW  Elec       q    Type
REMARK                         _______ _______ _______ _____ _____    ______ ____
ROOT
ATOM      1  O   UNL     1      43.295 241.556 335.393  0.00  0.00    +0.000 OA
ATOM      2  C   UNL     1      47.421 245.365 331.053  0.00  0.00    +0.000 C 
ATOM      3  C   UNL     1      47.939 244.746 329.769  0.00  0.00    +0.000 C 
ATOM      4  C   UNL     1      48.890 245.000 330.974  0.00  0.00    +0.000 C 
ATOM      5  C   UNL     1      46.291 244.732 331.810  0.00  0.00    +0.000 C 
ATOM      6  C   UNL     1      47.386 243.362 329.383  0.00  0.00    +0.000 C 
ATOM      7  C   UNL     1      45.914 243.216 331.475  0.00  0.00    +0.000 C 
ATOM      8  C   UNL     1      45.916 243.167 329.896  0.00  0.00    +0.000 C 
ATOM      9  C   UNL     1      49.829 246.194 330.956  0.00  0.00    +0.000 C 
ATOM     10  C   UNL     1      49.456 243.870 331.799  0.00  0.00    +0.000 C 
ATOM     11  C   UNL     1      44.559 242.835 332.261  0.00  0.00    +0.000 C 
ATOM     12  C   UNL     1      46.320 245.028 333.298  0.00  0.00    +0.000 C 
ATOM     13  C   UNL     1      44.683 242.823 333.849  0.00  0.00    +0.000 C 
ATOM     14  C   UNL     1      45.296 241.919 329.266  0.00  0.00    +0.000 C 
ATOM     15  C   UNL     1      45.131 245.313 333.872  0.00  0.00    +0.000 C 
ATOM     16  C   UNL     1      44.427 244.164 334.571  0.00  0.00    +0.000 C 
ATOM     17  C   UNL     1      43.914 241.473 332.037  0.00  0.00    +0.000 C 
ATOM     18  C   UNL     1      43.683 241.761 334.252  0.00  0.00    +0.000 C 
ATOM     19  C   UNL     1      43.360 240.897 333.112  0.00  0.00    +0.000 C 
ATOM     20  C   UNL     1      42.587 239.643 333.243  0.00  0.00    +0.000 C 
ENDROOT
BRANCH   7  21
ATOM     21  O   UNL     1      46.931 242.300 331.903  0.00  0.00    +0.000 OA
ATOM     22  H   UNL     1      46.501 241.433 332.077  0.00  0.00    +0.000 HD
ENDBRANCH   7  21
BRANCH  13  23
ATOM     23  O   UNL     1      45.951 242.268 334.278  0.00  0.00    +0.000 OA
ATOM     24  H   UNL     1      46.643 242.846 333.894  0.00  0.00    +0.000 HD
ENDBRANCH  13  23
BRANCH   3  25
ATOM     25  O   UNL     1      47.891 245.728 328.701  0.00  0.00    +0.000 OA
BRANCH  25  27
ATOM     26  O   UNL     1      47.208 247.861 328.855  0.00  0.00    +0.000 OA
ATOM     27  C   UNL     1      46.946 246.693 328.575  0.00  0.00    +0.000 C 
ATOM     28  C   UNL     1      45.606 246.323 328.012  0.00  0.00    +0.000 C 
ENDBRANCH  25  27
ENDBRANCH   3  25
BRANCH  15  29
ATOM     29  C   UNL     1      44.231 246.427 333.408  0.00  0.00    +0.000 C 
BRANCH  29  30
ATOM     30  O   UNL     1      42.924 246.174 333.895  0.00  0.00    +0.000 OA
ATOM     31  H   UNL     1      42.467 245.652 333.212  0.00  0.00    +0.000 HD
ENDBRANCH  29  30
ENDBRANCH  15  29
BRANCH   6  32
ATOM     32  O   UNL     1      47.424 243.253 327.934  0.00  0.00    +0.000 OA
BRANCH  32  34
ATOM     33  O   UNL     1      48.059 241.305 327.038  0.00  0.00    +0.000 OA
ATOM     34  C   UNL     1      48.293 242.496 327.225  0.00  0.00    +0.000 C 
BRANCH  34  35
ATOM     35  C   UNL     1      49.545 243.129 326.671  0.00  0.00    +0.000 C 
BRANCH  35  36
ATOM     36  C   UNL     1      50.662 242.107 326.494  0.00  0.00    +0.000 C 
BRANCH  36  37
ATOM     37  C   UNL     1      52.009 242.714 326.088  0.00  0.00    +0.000 C 
BRANCH  37  38
ATOM     38  C   UNL     1      51.969 243.541 324.796  0.00  0.00    +0.000 C 
BRANCH  38  39
ATOM     39  C   UNL     1      52.433 244.986 325.010  0.00  0.00    +0.000 C 
BRANCH  39  40
ATOM     40  C   UNL     1      53.860 245.249 324.523  0.00  0.00    +0.000 C 
BRANCH  40  41
ATOM     41  C   UNL     1      54.321 244.255 323.453  0.00  0.00    +0.000 C 
BRANCH  41  42
ATOM     42  C   UNL     1      55.303 244.861 322.446  0.00  0.00    +0.000 C 
BRANCH  42  43
ATOM     43  C   UNL     1      54.722 245.916 321.500  0.00  0.00    +0.000 C 
BRANCH  43  44
ATOM     44  C   UNL     1      55.360 247.306 321.587  0.00  0.00    +0.000 C 
BRANCH  44  45
ATOM     45  C   UNL     1      56.400 247.488 322.696  0.00  0.00    +0.000 C 
BRANCH  45  46
ATOM     46  C   UNL     1      55.980 248.385 323.863  0.00  0.00    +0.000 C 
ATOM     47  C   UNL     1      56.682 249.734 323.873  0.00  0.00    +0.000 C 
ENDBRANCH  45  46
ENDBRANCH  44  45
ENDBRANCH  43  44
ENDBRANCH  42  43
ENDBRANCH  41  42
ENDBRANCH  40  41
ENDBRANCH  39  40
ENDBRANCH  38  39
ENDBRANCH  37  38
ENDBRANCH  36  37
ENDBRANCH  35  36
ENDBRANCH  34  35
ENDBRANCH  32  34
ENDBRANCH   6  32
TORSDOF 20
ENDMDL
MODEL 8
REMARK VINA RESULT:      -3.3     30.677     34.799
REMARK  Name = 27924_Phorbol.pdbqt.pdb
REMARK  26 active torsions:
REMARK  status: ('A' for Active; 'I' for Inactive)
REMARK    1  A    between atoms: O_1  and  C_10
REMARK    2  A    between atoms: O_1  and  C_26
REMARK    3  A    between atoms: O_2  and  C_13
REMARK    4  A    between atoms: O_2  and  C_28
REMARK    5  A    between atoms: O_3  and  C_14
REMARK    6  A    between atoms: O_4  and  C_20
REMARK    7  A    between atoms: O_7  and  C_29
REMARK    8  A    between atoms: C_11  and  C_16
REMARK    9  A    between atoms: C_11  and  C_17
REMARK   10  A    between atoms: C_15  and  C_21
REMARK   11  A    between atoms: C_22  and  C_29
REMARK   12  A    between atoms: C_26  and  C_30
REMARK   13  A    between atoms: C_27  and  C_31
REMARK   14  A    between atoms: C_28  and  C_32
REMARK   15  A    between atoms: C_32  and  C_33
REMARK   16  A    between atoms: C_33  and  C_34
REMARK   17  A    between atoms: C_34  and  C_35
REMARK   18  A    between atoms: C_35  and  C_36
REMARK   19  A    between atoms: C_36  and  C_37
REMARK   20  A    between atoms: C_37  and  C_38
REMARK   21  A    between atoms: C_38  and  C_39
REMARK   22  A    between atoms: C_39  and  C_40
REMARK   23  A    between atoms: C_40  and  C_41
REMARK   24  A    between atoms: C_41  and  C_42
REMARK   25  A    between atoms: C_42  and  C_43
REMARK   26  A    between atoms: C_43  and  C_44
REMARK                            x       y       z     vdW  Elec       q    Type
REMARK                         _______ _______ _______ _____ _____    ______ ____
ROOT
ATOM      1  O   UNL     1      43.165 241.384 335.365  0.00  0.00    +0.000 OA
ATOM      2  C   UNL     1      47.129 245.655 331.314  0.00  0.00    +0.000 C 
ATOM      3  C   UNL     1      47.727 245.129 330.023  0.00  0.00    +0.000 C 
ATOM      4  C   UNL     1      48.622 245.398 331.266  0.00  0.00    +0.000 C 
ATOM      5  C   UNL     1      46.027 244.913 332.008  0.00  0.00    +0.000 C 
ATOM      6  C   UNL     1      47.286 243.727 329.564  0.00  0.00    +0.000 C 
ATOM      7  C   UNL     1      45.769 243.390 331.601  0.00  0.00    +0.000 C 
ATOM      8  C   UNL     1      45.819 243.408 330.022  0.00  0.00    +0.000 C 
ATOM      9  C   UNL     1      49.474 246.655 331.326  0.00  0.00    +0.000 C 
ATOM     10  C   UNL     1      49.244 244.277 332.063  0.00  0.00    +0.000 C 
ATOM     11  C   UNL     1      44.423 242.881 332.328  0.00  0.00    +0.000 C 
ATOM     12  C   UNL     1      45.992 245.146 333.507  0.00  0.00    +0.000 C 
ATOM     13  C   UNL     1      44.503 242.811 333.918  0.00  0.00    +0.000 C 
ATOM     14  C   UNL     1      45.309 242.147 329.324  0.00  0.00    +0.000 C 
ATOM     15  C   UNL     1      44.770 245.323 334.056  0.00  0.00    +0.000 C 
ATOM     16  C   UNL     1      44.130 244.099 334.685  0.00  0.00    +0.000 C 
ATOM     17  C   UNL     1      43.884 241.488 332.030  0.00  0.00    +0.000 C 
ATOM     18  C   UNL     1      43.569 241.665 334.246  0.00  0.00    +0.000 C 
ATOM     19  C   UNL     1      43.342 240.829 333.062  0.00  0.00    +0.000 C 
ATOM     20  C   UNL     1      42.657 239.520 333.119  0.00  0.00    +0.000 C 
ENDROOT
BRANCH   7  21
ATOM     21  O   UNL     1      46.836 242.530 332.024  0.00  0.00    +0.000 OA
ATOM     22  H   UNL     1      46.465 241.628 332.149  0.00  0.00    +0.000 HD
ENDBRANCH   7  21
BRANCH  13  23
ATOM     23  O   UNL     1      45.794 242.329 334.363  0.00  0.00    +0.000 OA
ATOM     24  H   UNL     1      45.634 241.873 335.216  0.00  0.00    +0.000 HD
ENDBRANCH  13  23
BRANCH   3  25
ATOM     25  O   UNL     1      47.639 246.149 328.994  0.00  0.00    +0.000 OA
BRANCH  25  27
ATOM     26  O   UNL     1      46.820 248.232 329.181  0.00  0.00    +0.000 OA
ATOM     27  C   UNL     1      46.634 247.054 328.881  0.00  0.00    +0.000 C 
ATOM     28  C   UNL     1      45.322 246.608 328.308  0.00  0.00    +0.000 C 
ENDBRANCH  25  27
ENDBRANCH   3  25
BRANCH  15  29
ATOM     29  C   UNL     1      43.806 246.390 333.608  0.00  0.00    +0.000 C 
BRANCH  29  30
ATOM     30  O   UNL     1      44.460 247.644 333.697  0.00  0.00    +0.000 OA
ATOM     31  H   UNL     1      44.279 247.992 334.589  0.00  0.00    +0.000 HD
ENDBRANCH  29  30
ENDBRANCH  15  29
BRANCH   6  32
ATOM     32  O   UNL     1      47.373 243.683 328.114  0.00  0.00    +0.000 OA
BRANCH  32  34
ATOM     33  O   UNL     1      49.471 243.613 327.343  0.00  0.00    +0.000 OA
ATOM     34  C   UNL     1      48.360 243.092 327.404  0.00  0.00    +0.000 C 
BRANCH  34  35
ATOM     35  C   UNL     1      48.083 241.791 326.691  0.00  0.00    +0.000 C 
BRANCH  35  36
ATOM     36  C   UNL     1      49.173 241.459 325.680  0.00  0.00    +0.000 C 
BRANCH  36  37
ATOM     37  C   UNL     1      48.882 240.220 324.826  0.00  0.00    +0.000 C 
BRANCH  37  38
ATOM     38  C   UNL     1      49.253 238.888 325.493  0.00  0.00    +0.000 C 
BRANCH  38  39
ATOM     39  C   UNL     1      48.035 237.985 325.714  0.00  0.00    +0.000 C 
BRANCH  39  40
ATOM     40  C   UNL     1      48.019 236.749 324.811  0.00  0.00    +0.000 C 
BRANCH  40  41
ATOM     41  C   UNL     1      49.303 236.587 323.992  0.00  0.00    +0.000 C 
BRANCH  41  42
ATOM     42  C   UNL     1      49.361 235.272 323.210  0.00  0.00    +0.000 C 
BRANCH  42  43
ATOM     43  C   UNL     1      49.327 233.994 324.053  0.00  0.00    +0.000 C 
BRANCH  43  44
ATOM     44  C   UNL     1      48.121 233.078 323.817  0.00  0.00    +0.000 C 
BRANCH  44  45
ATOM     45  C   UNL     1      47.015 233.656 322.929  0.00  0.00    +0.000 C 
BRANCH  45  46
ATOM     46  C   UNL     1      45.744 234.102 323.655  0.00  0.00    +0.000 C 
ATOM     47  C   UNL     1      45.040 235.269 322.981  0.00  0.00    +0.000 C 
ENDBRANCH  45  46
ENDBRANCH  44  45
ENDBRANCH  43  44
ENDBRANCH  42  43
ENDBRANCH  41  42
ENDBRANCH  40  41
ENDBRANCH  39  40
ENDBRANCH  38  39
ENDBRANCH  37  38
ENDBRANCH  36  37
ENDBRANCH  35  36
ENDBRANCH  34  35
ENDBRANCH  32  34
ENDBRANCH   6  32
TORSDOF 20
ENDMDL
MODEL 9
REMARK VINA RESULT:      -3.3     19.733     22.981
REMARK  Name = 27924_Phorbol.pdbqt.pdb
REMARK  26 active torsions:
REMARK  status: ('A' for Active; 'I' for Inactive)
REMARK    1  A    between atoms: O_1  and  C_10
REMARK    2  A    between atoms: O_1  and  C_26
REMARK    3  A    between atoms: O_2  and  C_13
REMARK    4  A    between atoms: O_2  and  C_28
REMARK    5  A    between atoms: O_3  and  C_14
REMARK    6  A    between atoms: O_4  and  C_20
REMARK    7  A    between atoms: O_7  and  C_29
REMARK    8  A    between atoms: C_11  and  C_16
REMARK    9  A    between atoms: C_11  and  C_17
REMARK   10  A    between atoms: C_15  and  C_21
REMARK   11  A    between atoms: C_22  and  C_29
REMARK   12  A    between atoms: C_26  and  C_30
REMARK   13  A    between atoms: C_27  and  C_31
REMARK   14  A    between atoms: C_28  and  C_32
REMARK   15  A    between atoms: C_32  and  C_33
REMARK   16  A    between atoms: C_33  and  C_34
REMARK   17  A    between atoms: C_34  and  C_35
REMARK   18  A    between atoms: C_35  and  C_36
REMARK   19  A    between atoms: C_36  and  C_37
REMARK   20  A    between atoms: C_37  and  C_38
REMARK   21  A    between atoms: C_38  and  C_39
REMARK   22  A    between atoms: C_39  and  C_40
REMARK   23  A    between atoms: C_40  and  C_41
REMARK   24  A    between atoms: C_41  and  C_42
REMARK   25  A    between atoms: C_42  and  C_43
REMARK   26  A    between atoms: C_43  and  C_44
REMARK                            x       y       z     vdW  Elec       q    Type
REMARK                         _______ _______ _______ _____ _____    ______ ____
ROOT
ATOM      1  O   UNL     1      49.845 224.827 352.982  0.00  0.00    +0.000 OA
ATOM      2  C   UNL     1      56.408 225.622 355.562  0.00  0.00    +0.000 C 
ATOM      3  C   UNL     1      57.319 224.416 355.693  0.00  0.00    +0.000 C 
ATOM      4  C   UNL     1      56.691 225.083 356.950  0.00  0.00    +0.000 C 
ATOM      5  C   UNL     1      55.169 225.562 354.720  0.00  0.00    +0.000 C 
ATOM      6  C   UNL     1      56.824 223.093 355.081  0.00  0.00    +0.000 C 
ATOM      7  C   UNL     1      54.615 224.125 354.294  0.00  0.00    +0.000 C 
ATOM      8  C   UNL     1      55.908 223.344 353.831  0.00  0.00    +0.000 C 
ATOM      9  C   UNL     1      57.535 226.003 357.816  0.00  0.00    +0.000 C 
ATOM     10  C   UNL     1      55.610 224.410 357.759  0.00  0.00    +0.000 C 
ATOM     11  C   UNL     1      53.412 224.327 353.239  0.00  0.00    +0.000 C 
ATOM     12  C   UNL     1      54.079 226.512 355.179  0.00  0.00    +0.000 C 
ATOM     13  C   UNL     1      52.116 225.043 353.826  0.00  0.00    +0.000 C 
ATOM     14  C   UNL     1      55.664 222.034 353.081  0.00  0.00    +0.000 C 
ATOM     15  C   UNL     1      53.419 227.178 354.207  0.00  0.00    +0.000 C 
ATOM     16  C   UNL     1      52.093 226.586 353.764  0.00  0.00    +0.000 C 
ATOM     17  C   UNL     1      52.768 223.110 352.587  0.00  0.00    +0.000 C 
ATOM     18  C   UNL     1      50.999 224.426 353.012  0.00  0.00    +0.000 C 
ATOM     19  C   UNL     1      51.446 223.176 352.386  0.00  0.00    +0.000 C 
ATOM     20  C   UNL     1      50.524 222.236 351.714  0.00  0.00    +0.000 C 
ENDROOT
BRANCH   7  21
ATOM     21  O   UNL     1      54.088 223.397 355.411  0.00  0.00    +0.000 OA
ATOM     22  H   UNL     1      53.378 223.941 355.818  0.00  0.00    +0.000 HD
ENDBRANCH   7  21
BRANCH  13  23
ATOM     23  O   UNL     1      51.831 224.600 355.176  0.00  0.00    +0.000 OA
ATOM     24  H   UNL     1      51.728 225.414 355.712  0.00  0.00    +0.000 HD
ENDBRANCH  13  23
BRANCH   3  25
ATOM     25  O   UNL     1      58.670 224.782 355.310  0.00  0.00    +0.000 OA
BRANCH  25  27
ATOM     26  O   UNL     1      58.695 225.428 353.160  0.00  0.00    +0.000 OA
ATOM     27  C   UNL     1      58.988 225.665 354.330  0.00  0.00    +0.000 C 
ATOM     28  C   UNL     1      59.625 226.968 354.710  0.00  0.00    +0.000 C 
ENDBRANCH  25  27
ENDBRANCH   3  25
BRANCH  15  29
ATOM     29  C   UNL     1      54.103 228.048 353.185  0.00  0.00    +0.000 C 
BRANCH  29  30
ATOM     30  O   UNL     1      54.152 229.371 353.692  0.00  0.00    +0.000 OA
ATOM     31  H   UNL     1      54.869 229.827 353.216  0.00  0.00    +0.000 HD
ENDBRANCH  29  30
ENDBRANCH  15  29
BRANCH   6  32
ATOM     32  O   UNL     1      57.990 222.316 354.692  0.00  0.00    +0.000 OA
BRANCH  32  34
ATOM     33  O   UNL     1      58.574 221.160 356.516  0.00  0.00    +0.000 OA
ATOM     34  C   UNL     1      58.417 221.184 355.297  0.00  0.00    +0.000 C 
BRANCH  34  35
ATOM     35  C   UNL     1      58.697 219.959 354.463  0.00  0.00    +0.000 C 
BRANCH  35  36
ATOM     36  C   UNL     1      57.726 218.828 354.780  0.00  0.00    +0.000 C 
BRANCH  36  37
ATOM     37  C   UNL     1      58.368 217.629 355.487  0.00  0.00    +0.000 C 
BRANCH  37  38
ATOM     38  C   UNL     1      58.185 216.291 354.757  0.00  0.00    +0.000 C 
BRANCH  38  39
ATOM     39  C   UNL     1      56.977 216.296 353.816  0.00  0.00    +0.000 C 
BRANCH  39  40
ATOM     40  C   UNL     1      57.339 216.018 352.354  0.00  0.00    +0.000 C 
BRANCH  40  41
ATOM     41  C   UNL     1      58.140 217.152 351.708  0.00  0.00    +0.000 C 
BRANCH  41  42
ATOM     42  C   UNL     1      59.626 216.823 351.539  0.00  0.00    +0.000 C 
BRANCH  42  43
ATOM     43  C   UNL     1      59.977 215.333 351.491  0.00  0.00    +0.000 C 
BRANCH  43  44
ATOM     44  C   UNL     1      60.852 214.823 352.641  0.00  0.00    +0.000 C 
BRANCH  44  45
ATOM     45  C   UNL     1      62.257 214.360 352.248  0.00  0.00    +0.000 C 
BRANCH  45  46
ATOM     46  C   UNL     1      63.220 215.462 351.800  0.00  0.00    +0.000 C 
ATOM     47  C   UNL     1      63.614 215.363 350.335  0.00  0.00    +0.000 C 
ENDBRANCH  45  46
ENDBRANCH  44  45
ENDBRANCH  43  44
ENDBRANCH  42  43
ENDBRANCH  41  42
ENDBRANCH  40  41
ENDBRANCH  39  40
ENDBRANCH  38  39
ENDBRANCH  37  38
ENDBRANCH  36  37
ENDBRANCH  35  36
ENDBRANCH  34  35
ENDBRANCH  32  34
ENDBRANCH   6  32
TORSDOF 20
ENDMDL
