REMARK  Name = 2Methylcholine.pdbqt.pdb
REMARK  3 active torsions:
REMARK  status: ('A' for Active; 'I' for Inactive)
REMARK    1  A    between atoms: C_1  and  N_2
REMARK    2  A    between atoms: C_1  and  C_6
REMARK    3  A    between atoms: C_6  and  O_8
REMARK                            x       y       z     vdW  Elec       q    Type
REMARK                         _______ _______ _______ _____ _____    ______ ____
ROOT
ATOM      1  C   UNL     1       0.031   0.064   0.071  0.00  0.00    +0.000 C 
ENDROOT
BRANCH   1   2
ATOM      2  N   UNL     1      -1.395  -0.097  -0.134  0.00  0.00    +0.000 N 
ATOM      3  C   UNL     1      -1.657  -0.513  -1.515  0.00  0.00    +0.000 C 
ATOM      4  C   UNL     1      -1.920  -1.113   0.782  0.00  0.00    +0.000 C 
ATOM      5  C   UNL     1      -2.078   1.174   0.120  0.00  0.00    +0.000 C 
ENDBRANCH   1   2
BRANCH   1   6
ATOM      6  C   UNL     1       1.414   0.193   0.262  0.00  0.00    +0.000 C 
ATOM      7  C   UNL     1       2.332  -0.956   0.078  0.00  0.00    +0.000 C 
BRANCH   6   8
ATOM      8  O   UNL     1       1.987   1.373   0.625  0.00  0.00    +0.000 OA
ATOM      9  H   UNL     1       2.951   1.237   0.701  0.00  0.00    +0.000 HD
ENDBRANCH   6   8
ENDBRANCH   1   6
TORSDOF 3
