MODEL 1
REMARK VINA RESULT:      -3.1      0.000      0.000
REMARK  Name = 2Methylcholine.pdbqt.pdb
REMARK  3 active torsions:
REMARK  status: ('A' for Active; 'I' for Inactive)
REMARK    1  A    between atoms: C_1  and  N_2
REMARK    2  A    between atoms: C_1  and  C_6
REMARK    3  A    between atoms: C_6  and  O_8
REMARK                            x       y       z     vdW  Elec       q    Type
REMARK                         _______ _______ _______ _____ _____    ______ ____
ROOT
ATOM      1  C   UNL     1      48.767 235.149 324.023  0.00  0.00    +0.000 C 
ENDROOT
BRANCH   1   2
ATOM      2  N   UNL     1      48.657 236.593 323.950  0.00  0.00    +0.000 N 
ATOM      3  C   UNL     1      49.069 237.190 325.224  0.00  0.00    +0.000 C 
ATOM      4  C   UNL     1      49.515 237.106 322.879  0.00  0.00    +0.000 C 
ATOM      5  C   UNL     1      47.269 236.970 323.672  0.00  0.00    +0.000 C 
ENDBRANCH   1   2
BRANCH   1   6
ATOM      6  C   UNL     1      48.901 233.756 324.101  0.00  0.00    +0.000 C 
ATOM      7  C   UNL     1      48.057 232.850 323.286  0.00  0.00    +0.000 C 
BRANCH   6   8
ATOM      8  O   UNL     1      49.807 233.161 324.925  0.00  0.00    +0.000 OA
ATOM      9  H   UNL     1      49.346 232.475 325.445  0.00  0.00    +0.000 HD
ENDBRANCH   6   8
ENDBRANCH   1   6
TORSDOF 3
ENDMDL
MODEL 2
REMARK VINA RESULT:      -3.0      2.306      4.237
REMARK  Name = 2Methylcholine.pdbqt.pdb
REMARK  3 active torsions:
REMARK  status: ('A' for Active; 'I' for Inactive)
REMARK    1  A    between atoms: C_1  and  N_2
REMARK    2  A    between atoms: C_1  and  C_6
REMARK    3  A    between atoms: C_6  and  O_8
REMARK                            x       y       z     vdW  Elec       q    Type
REMARK                         _______ _______ _______ _____ _____    ______ ____
ROOT
ATOM      1  C   UNL     1      48.133 233.019 323.390  0.00  0.00    +0.000 C 
ENDROOT
BRANCH   1   2
ATOM      2  N   UNL     1      47.082 232.281 322.718  0.00  0.00    +0.000 N 
ATOM      3  C   UNL     1      47.655 231.455 321.651  0.00  0.00    +0.000 C 
ATOM      4  C   UNL     1      46.387 231.416 323.675  0.00  0.00    +0.000 C 
ATOM      5  C   UNL     1      46.118 233.216 322.132  0.00  0.00    +0.000 C 
ENDBRANCH   1   2
BRANCH   1   6
ATOM      6  C   UNL     1      49.138 233.726 324.065  0.00  0.00    +0.000 C 
ATOM      7  C   UNL     1      49.447 235.137 323.735  0.00  0.00    +0.000 C 
BRANCH   6   8
ATOM      8  O   UNL     1      49.881 233.160 325.055  0.00  0.00    +0.000 OA
ATOM      9  H   UNL     1      49.307 233.028 325.834  0.00  0.00    +0.000 HD
ENDBRANCH   6   8
ENDBRANCH   1   6
TORSDOF 3
ENDMDL
MODEL 3
REMARK VINA RESULT:      -3.0     21.763     22.543
REMARK  Name = 2Methylcholine.pdbqt.pdb
REMARK  3 active torsions:
REMARK  status: ('A' for Active; 'I' for Inactive)
REMARK    1  A    between atoms: C_1  and  N_2
REMARK    2  A    between atoms: C_1  and  C_6
REMARK    3  A    between atoms: C_6  and  O_8
REMARK                            x       y       z     vdW  Elec       q    Type
REMARK                         _______ _______ _______ _____ _____    ______ ____
ROOT
ATOM      1  C   UNL     1      64.529 241.018 338.811  0.00  0.00    +0.000 C 
ENDROOT
BRANCH   1   2
ATOM      2  N   UNL     1      64.300 242.047 339.806  0.00  0.00    +0.000 N 
ATOM      3  C   UNL     1      64.832 241.615 341.102  0.00  0.00    +0.000 C 
ATOM      4  C   UNL     1      64.966 243.289 339.403  0.00  0.00    +0.000 C 
ATOM      5  C   UNL     1      62.863 242.297 339.938  0.00  0.00    +0.000 C 
ENDBRANCH   1   2
BRANCH   1   6
ATOM      6  C   UNL     1      64.723 240.025 337.840  0.00  0.00    +0.000 C 
ATOM      7  C   UNL     1      65.848 239.064 337.929  0.00  0.00    +0.000 C 
BRANCH   6   8
ATOM      8  O   UNL     1      63.895 239.889 336.768  0.00  0.00    +0.000 OA
ATOM      9  H   UNL     1      64.308 239.269 336.137  0.00  0.00    +0.000 HD
ENDBRANCH   6   8
ENDBRANCH   1   6
TORSDOF 3
ENDMDL
MODEL 4
REMARK VINA RESULT:      -2.9      2.294      3.828
REMARK  Name = 2Methylcholine.pdbqt.pdb
REMARK  3 active torsions:
REMARK  status: ('A' for Active; 'I' for Inactive)
REMARK    1  A    between atoms: C_1  and  N_2
REMARK    2  A    between atoms: C_1  and  C_6
REMARK    3  A    between atoms: C_6  and  O_8
REMARK                            x       y       z     vdW  Elec       q    Type
REMARK                         _______ _______ _______ _____ _____    ______ ____
ROOT
ATOM      1  C   UNL     1      47.755 233.362 323.682  0.00  0.00    +0.000 C 
ENDROOT
BRANCH   1   2
ATOM      2  N   UNL     1      46.444 232.895 323.275  0.00  0.00    +0.000 N 
ATOM      3  C   UNL     1      45.412 233.504 324.119  0.00  0.00    +0.000 C 
ATOM      4  C   UNL     1      46.197 233.256 321.876  0.00  0.00    +0.000 C 
ATOM      5  C   UNL     1      46.374 231.438 323.411  0.00  0.00    +0.000 C 
ENDBRANCH   1   2
BRANCH   1   6
ATOM      6  C   UNL     1      49.033 233.801 324.054  0.00  0.00    +0.000 C 
ATOM      7  C   UNL     1      49.609 235.056 323.515  0.00  0.00    +0.000 C 
BRANCH   6   8
ATOM      8  O   UNL     1      49.812 233.104 324.926  0.00  0.00    +0.000 OA
ATOM      9  H   UNL     1      50.736 233.399 324.817  0.00  0.00    +0.000 HD
ENDBRANCH   6   8
ENDBRANCH   1   6
TORSDOF 3
ENDMDL
MODEL 5
REMARK VINA RESULT:      -2.9      2.784      4.529
REMARK  Name = 2Methylcholine.pdbqt.pdb
REMARK  3 active torsions:
REMARK  status: ('A' for Active; 'I' for Inactive)
REMARK    1  A    between atoms: C_1  and  N_2
REMARK    2  A    between atoms: C_1  and  C_6
REMARK    3  A    between atoms: C_6  and  O_8
REMARK                            x       y       z     vdW  Elec       q    Type
REMARK                         _______ _______ _______ _____ _____    ______ ____
ROOT
ATOM      1  C   UNL     1      49.072 238.266 325.186  0.00  0.00    +0.000 C 
ENDROOT
BRANCH   1   2
ATOM      2  N   UNL     1      48.714 237.242 324.225  0.00  0.00    +0.000 N 
ATOM      3  C   UNL     1      49.395 237.492 322.951  0.00  0.00    +0.000 C 
ATOM      4  C   UNL     1      49.107 235.924 324.729  0.00  0.00    +0.000 C 
ATOM      5  C   UNL     1      47.265 237.256 324.003  0.00  0.00    +0.000 C 
ENDBRANCH   1   2
BRANCH   1   6
ATOM      6  C   UNL     1      49.417 239.238 326.136  0.00  0.00    +0.000 C 
ATOM      7  C   UNL     1      48.478 240.321 326.513  0.00  0.00    +0.000 C 
BRANCH   6   8
ATOM      8  O   UNL     1      50.626 239.240 326.762  0.00  0.00    +0.000 OA
ATOM      9  H   UNL     1      50.808 238.336 327.084  0.00  0.00    +0.000 HD
ENDBRANCH   6   8
ENDBRANCH   1   6
TORSDOF 3
ENDMDL
MODEL 6
REMARK VINA RESULT:      -2.8     24.112     25.505
REMARK  Name = 2Methylcholine.pdbqt.pdb
REMARK  3 active torsions:
REMARK  status: ('A' for Active; 'I' for Inactive)
REMARK    1  A    between atoms: C_1  and  N_2
REMARK    2  A    between atoms: C_1  and  C_6
REMARK    3  A    between atoms: C_6  and  O_8
REMARK                            x       y       z     vdW  Elec       q    Type
REMARK                         _______ _______ _______ _____ _____    ______ ____
ROOT
ATOM      1  C   UNL     1      55.215 241.603 347.490  0.00  0.00    +0.000 C 
ENDROOT
BRANCH   1   2
ATOM      2  N   UNL     1      55.505 240.897 348.722  0.00  0.00    +0.000 N 
ATOM      3  C   UNL     1      56.891 241.149 349.128  0.00  0.00    +0.000 C 
ATOM      4  C   UNL     1      54.603 241.353 349.784  0.00  0.00    +0.000 C 
ATOM      5  C   UNL     1      55.319 239.458 348.523  0.00  0.00    +0.000 C 
ENDBRANCH   1   2
BRANCH   1   6
ATOM      6  C   UNL     1      54.962 242.289 346.294  0.00  0.00    +0.000 C 
ATOM      7  C   UNL     1      53.620 242.282 345.665  0.00  0.00    +0.000 C 
BRANCH   6   8
ATOM      8  O   UNL     1      55.929 242.996 345.647  0.00  0.00    +0.000 OA
ATOM      9  H   UNL     1      55.641 243.140 344.725  0.00  0.00    +0.000 HD
ENDBRANCH   6   8
ENDBRANCH   1   6
TORSDOF 3
ENDMDL
MODEL 7
REMARK VINA RESULT:      -2.8     23.942     24.611
REMARK  Name = 2Methylcholine.pdbqt.pdb
REMARK  3 active torsions:
REMARK  status: ('A' for Active; 'I' for Inactive)
REMARK    1  A    between atoms: C_1  and  N_2
REMARK    2  A    between atoms: C_1  and  C_6
REMARK    3  A    between atoms: C_6  and  O_8
REMARK                            x       y       z     vdW  Elec       q    Type
REMARK                         _______ _______ _______ _____ _____    ______ ____
ROOT
ATOM      1  C   UNL     1      53.542 240.623 347.413  0.00  0.00    +0.000 C 
ENDROOT
BRANCH   1   2
ATOM      2  N   UNL     1      54.504 241.707 347.457  0.00  0.00    +0.000 N 
ATOM      3  C   UNL     1      55.735 241.257 348.113  0.00  0.00    +0.000 C 
ATOM      4  C   UNL     1      54.819 242.152 346.097  0.00  0.00    +0.000 C 
ATOM      5  C   UNL     1      53.945 242.833 348.211  0.00  0.00    +0.000 C 
ENDBRANCH   1   2
BRANCH   1   6
ATOM      6  C   UNL     1      52.593 239.592 347.360  0.00  0.00    +0.000 C 
ATOM      7  C   UNL     1      51.786 239.222 348.547  0.00  0.00    +0.000 C 
BRANCH   6   8
ATOM      8  O   UNL     1      52.363 238.879 346.224  0.00  0.00    +0.000 OA
ATOM      9  H   UNL     1      53.135 238.978 345.636  0.00  0.00    +0.000 HD
ENDBRANCH   6   8
ENDBRANCH   1   6
TORSDOF 3
ENDMDL
MODEL 8
REMARK VINA RESULT:      -2.8      6.618      8.201
REMARK  Name = 2Methylcholine.pdbqt.pdb
REMARK  3 active torsions:
REMARK  status: ('A' for Active; 'I' for Inactive)
REMARK    1  A    between atoms: C_1  and  N_2
REMARK    2  A    between atoms: C_1  and  C_6
REMARK    3  A    between atoms: C_6  and  O_8
REMARK                            x       y       z     vdW  Elec       q    Type
REMARK                         _______ _______ _______ _____ _____    ______ ____
ROOT
ATOM      1  C   UNL     1      51.186 242.257 326.628  0.00  0.00    +0.000 C 
ENDROOT
BRANCH   1   2
ATOM      2  N   UNL     1      49.977 241.768 325.993  0.00  0.00    +0.000 N 
ATOM      3  C   UNL     1      48.810 242.471 326.535  0.00  0.00    +0.000 C 
ATOM      4  C   UNL     1      50.046 241.993 324.547  0.00  0.00    +0.000 C 
ATOM      5  C   UNL     1      49.831 240.333 326.247  0.00  0.00    +0.000 C 
ENDBRANCH   1   2
BRANCH   1   6
ATOM      6  C   UNL     1      52.370 242.711 327.226  0.00  0.00    +0.000 C 
ATOM      7  C   UNL     1      53.453 243.332 326.427  0.00  0.00    +0.000 C 
BRANCH   6   8
ATOM      8  O   UNL     1      52.590 242.607 328.565  0.00  0.00    +0.000 OA
ATOM      9  H   UNL     1      51.911 243.133 329.030  0.00  0.00    +0.000 HD
ENDBRANCH   6   8
ENDBRANCH   1   6
TORSDOF 3
ENDMDL
MODEL 9
REMARK VINA RESULT:      -2.7     24.412     25.288
REMARK  Name = 2Methylcholine.pdbqt.pdb
REMARK  3 active torsions:
REMARK  status: ('A' for Active; 'I' for Inactive)
REMARK    1  A    between atoms: C_1  and  N_2
REMARK    2  A    between atoms: C_1  and  C_6
REMARK    3  A    between atoms: C_6  and  O_8
REMARK                            x       y       z     vdW  Elec       q    Type
REMARK                         _______ _______ _______ _____ _____    ______ ____
ROOT
ATOM      1  C   UNL     1      54.092 240.681 347.913  0.00  0.00    +0.000 C 
ENDROOT
BRANCH   1   2
ATOM      2  N   UNL     1      52.956 239.963 348.456  0.00  0.00    +0.000 N 
ATOM      3  C   UNL     1      53.414 238.954 349.415  0.00  0.00    +0.000 C 
ATOM      4  C   UNL     1      52.053 240.897 349.135  0.00  0.00    +0.000 C 
ATOM      5  C   UNL     1      52.228 239.297 347.373  0.00  0.00    +0.000 C 
ENDBRANCH   1   2
BRANCH   1   6
ATOM      6  C   UNL     1      55.187 241.395 347.406  0.00  0.00    +0.000 C 
ATOM      7  C   UNL     1      55.035 242.349 346.281  0.00  0.00    +0.000 C 
BRANCH   6   8
ATOM      8  O   UNL     1      56.441 241.254 347.914  0.00  0.00    +0.000 OA
ATOM      9  H   UNL     1      56.812 242.143 348.071  0.00  0.00    +0.000 HD
ENDBRANCH   6   8
ENDBRANCH   1   6
TORSDOF 3
ENDMDL
