MODEL 1
REMARK VINA RESULT:      -7.2      0.000      0.000
REMARK  Name = 3035817_K252a.pdbqt.pdb
REMARK  3 active torsions:
REMARK  status: ('A' for Active; 'I' for Inactive)
REMARK    1  A    between atoms: C_3  and  O_7
REMARK    2  A    between atoms: C_3  and  C_9
REMARK    3  A    between atoms: C_9  and  O_11
REMARK                            x       y       z     vdW  Elec       q    Type
REMARK                         _______ _______ _______ _____ _____    ______ ____
ROOT
ATOM      1  O   UNL     1      51.887 245.308 324.525  0.00  0.00    +0.000 OA
ATOM      2  C   UNL     1      51.955 245.238 325.993  0.00  0.00    +0.000 C 
ATOM      3  C   UNL     1      52.792 243.918 326.279  0.00  0.00    +0.000 C 
ATOM      4  C   UNL     1      53.147 244.852 324.098  0.00  0.00    +0.000 C 
ATOM      5  C   UNL     1      53.539 243.856 325.026  0.00  0.00    +0.000 C 
ATOM      6  C   UNL     1      50.467 245.181 326.471  0.00  0.00    +0.000 C 
ATOM      7  N   UNL     1      52.636 246.470 326.442  0.00  0.00    +0.000 N 
ATOM      8  C   UNL     1      53.577 247.253 325.823  0.00  0.00    +0.000 A 
ATOM      9  C   UNL     1      54.229 246.993 324.617  0.00  0.00    +0.000 A 
ATOM     10  C   UNL     1      54.033 248.409 326.465  0.00  0.00    +0.000 A 
ATOM     11  N   UNL     1      54.051 245.874 323.863  0.00  0.00    +0.000 N 
ATOM     12  C   UNL     1      55.218 247.913 324.256  0.00  0.00    +0.000 A 
ATOM     13  C   UNL     1      55.074 246.044 322.914  0.00  0.00    +0.000 A 
ATOM     14  C   UNL     1      55.778 247.291 323.119  0.00  0.00    +0.000 A 
ATOM     15  C   UNL     1      55.427 245.182 321.862  0.00  0.00    +0.000 A 
ATOM     16  C   UNL     1      56.833 247.604 322.239  0.00  0.00    +0.000 A 
ATOM     17  C   UNL     1      57.167 246.737 321.199  0.00  0.00    +0.000 A 
ATOM     18  C   UNL     1      56.476 245.547 321.019  0.00  0.00    +0.000 A 
ATOM     19  C   UNL     1      55.674 249.091 324.883  0.00  0.00    +0.000 A 
ATOM     20  C   UNL     1      55.003 249.356 326.113  0.00  0.00    +0.000 A 
ATOM     21  C   UNL     1      56.684 250.092 324.632  0.00  0.00    +0.000 C 
ATOM     22  C   UNL     1      55.620 250.589 326.677  0.00  0.00    +0.000 C 
ATOM     23  N   UNL     1      56.553 250.917 325.756  0.00  0.00    +0.000 N 
ATOM     24  H   UNL     1      57.149 251.727 325.859  0.00  0.00    +0.000 HD
ATOM     25  O   UNL     1      57.487 250.277 323.730  0.00  0.00    +0.000 OA
ATOM     26  C   UNL     1      53.340 248.355 327.688  0.00  0.00    +0.000 A 
ATOM     27  C   UNL     1      52.523 247.162 327.674  0.00  0.00    +0.000 A 
ATOM     28  C   UNL     1      53.331 249.162 328.844  0.00  0.00    +0.000 A 
ATOM     29  C   UNL     1      51.760 246.824 328.805  0.00  0.00    +0.000 A 
ATOM     30  C   UNL     1      51.783 247.656 329.924  0.00  0.00    +0.000 A 
ATOM     31  C   UNL     1      52.550 248.810 329.944  0.00  0.00    +0.000 A 
ENDROOT
BRANCH   3  32
ATOM     32  O   UNL     1      53.720 244.016 327.370  0.00  0.00    +0.000 OA
ATOM     33  H   UNL     1      54.209 244.861 327.262  0.00  0.00    +0.000 HD
ENDBRANCH   3  32
BRANCH   3  34
ATOM     34  C   UNL     1      51.887 242.701 326.457  0.00  0.00    +0.000 C 
ATOM     35  O   UNL     1      51.564 242.321 327.585  0.00  0.00    +0.000 OA
BRANCH  34  36
ATOM     36  O   UNL     1      51.574 242.124 325.257  0.00  0.00    +0.000 OA
ATOM     37  C   UNL     1      50.217 241.997 324.930  0.00  0.00    +0.000 C 
ENDBRANCH  34  36
ENDBRANCH   3  34
TORSDOF 3
ENDMDL
MODEL 2
REMARK VINA RESULT:      -6.9      2.082      3.163
REMARK  Name = 3035817_K252a.pdbqt.pdb
REMARK  3 active torsions:
REMARK  status: ('A' for Active; 'I' for Inactive)
REMARK    1  A    between atoms: C_3  and  O_7
REMARK    2  A    between atoms: C_3  and  C_9
REMARK    3  A    between atoms: C_9  and  O_11
REMARK                            x       y       z     vdW  Elec       q    Type
REMARK                         _______ _______ _______ _____ _____    ______ ____
ROOT
ATOM      1  O   UNL     1      50.049 244.199 325.348  0.00  0.00    +0.000 OA
ATOM      2  C   UNL     1      50.102 243.543 326.664  0.00  0.00    +0.000 C 
ATOM      3  C   UNL     1      51.020 242.268 326.424  0.00  0.00    +0.000 C 
ATOM      4  C   UNL     1      51.341 244.026 324.823  0.00  0.00    +0.000 C 
ATOM      5  C   UNL     1      51.786 242.762 325.282  0.00  0.00    +0.000 C 
ATOM      6  C   UNL     1      48.614 243.216 327.020  0.00  0.00    +0.000 C 
ATOM      7  N   UNL     1      50.695 244.522 327.599  0.00  0.00    +0.000 N 
ATOM      8  C   UNL     1      51.590 245.539 327.387  0.00  0.00    +0.000 A 
ATOM      9  C   UNL     1      52.274 245.827 326.204  0.00  0.00    +0.000 A 
ATOM     10  C   UNL     1      51.960 246.357 328.459  0.00  0.00    +0.000 A 
ATOM     11  N   UNL     1      52.180 245.103 325.056  0.00  0.00    +0.000 N 
ATOM     12  C   UNL     1      53.205 246.867 326.286  0.00  0.00    +0.000 A 
ATOM     13  C   UNL     1      53.202 245.699 324.298  0.00  0.00    +0.000 A 
ATOM     14  C   UNL     1      53.819 246.792 325.017  0.00  0.00    +0.000 A 
ATOM     15  C   UNL     1      53.625 245.360 323.002  0.00  0.00    +0.000 A 
ATOM     16  C   UNL     1      54.863 247.493 324.380  0.00  0.00    +0.000 A 
ATOM     17  C   UNL     1      55.268 247.143 323.093  0.00  0.00    +0.000 A 
ATOM     18  C   UNL     1      54.659 246.093 322.420  0.00  0.00    +0.000 A 
ATOM     19  C   UNL     1      53.574 247.712 327.353  0.00  0.00    +0.000 A 
ATOM     20  C   UNL     1      52.871 247.417 328.558  0.00  0.00    +0.000 A 
ATOM     21  C   UNL     1      54.519 248.782 327.567  0.00  0.00    +0.000 C 
ATOM     22  C   UNL     1      53.398 248.346 329.596  0.00  0.00    +0.000 C 
ATOM     23  N   UNL     1      54.319 249.071 328.924  0.00  0.00    +0.000 N 
ATOM     24  H   UNL     1      54.860 249.800 329.369  0.00  0.00    +0.000 HD
ATOM     25  O   UNL     1      55.321 249.361 326.850  0.00  0.00    +0.000 OA
ATOM     26  C   UNL     1      51.257 245.773 329.528  0.00  0.00    +0.000 A 
ATOM     27  C   UNL     1      50.520 244.646 329.000  0.00  0.00    +0.000 A 
ATOM     28  C   UNL     1      51.179 246.039 330.910  0.00  0.00    +0.000 A 
ATOM     29  C   UNL     1      49.766 243.836 329.867  0.00  0.00    +0.000 A 
ATOM     30  C   UNL     1      49.719 244.142 331.227  0.00  0.00    +0.000 A 
ATOM     31  C   UNL     1      50.408 245.229 331.742  0.00  0.00    +0.000 A 
ENDROOT
BRANCH   3  32
ATOM     32  O   UNL     1      51.924 241.966 327.496  0.00  0.00    +0.000 OA
ATOM     33  H   UNL     1      52.264 242.820 327.842  0.00  0.00    +0.000 HD
ENDBRANCH   3  32
BRANCH   3  34
ATOM     34  C   UNL     1      50.195 241.037 326.059  0.00  0.00    +0.000 C 
ATOM     35  O   UNL     1      50.054 240.116 326.867  0.00  0.00    +0.000 OA
BRANCH  34  36
ATOM     36  O   UNL     1      49.730 241.102 324.774  0.00  0.00    +0.000 OA
ATOM     37  C   UNL     1      48.845 240.101 324.350  0.00  0.00    +0.000 C 
ENDBRANCH  34  36
ENDBRANCH   3  34
TORSDOF 3
ENDMDL
MODEL 3
REMARK VINA RESULT:      -6.9     15.277     17.043
REMARK  Name = 3035817_K252a.pdbqt.pdb
REMARK  3 active torsions:
REMARK  status: ('A' for Active; 'I' for Inactive)
REMARK    1  A    between atoms: C_3  and  O_7
REMARK    2  A    between atoms: C_3  and  C_9
REMARK    3  A    between atoms: C_9  and  O_11
REMARK                            x       y       z     vdW  Elec       q    Type
REMARK                         _______ _______ _______ _____ _____    ______ ____
ROOT
ATOM      1  O   UNL     1      70.913 241.625 330.090  0.00  0.00    +0.000 OA
ATOM      2  C   UNL     1      70.428 241.367 328.725  0.00  0.00    +0.000 C 
ATOM      3  C   UNL     1      70.141 239.803 328.707  0.00  0.00    +0.000 C 
ATOM      4  C   UNL     1      70.138 240.776 330.900  0.00  0.00    +0.000 C 
ATOM      5  C   UNL     1      69.908 239.606 330.135  0.00  0.00    +0.000 C 
ATOM      6  C   UNL     1      71.588 241.827 327.783  0.00  0.00    +0.000 C 
ATOM      7  N   UNL     1      69.210 242.185 328.549  0.00  0.00    +0.000 N 
ATOM      8  C   UNL     1      68.278 242.616 329.458  0.00  0.00    +0.000 A 
ATOM      9  C   UNL     1      68.191 242.267 330.806  0.00  0.00    +0.000 A 
ATOM     10  C   UNL     1      67.226 243.429 329.023  0.00  0.00    +0.000 A 
ATOM     11  N   UNL     1      69.023 241.395 331.438  0.00  0.00    +0.000 N 
ATOM     12  C   UNL     1      67.082 242.776 331.490  0.00  0.00    +0.000 A 
ATOM     13  C   UNL     1      68.365 241.270 332.675  0.00  0.00    +0.000 A 
ATOM     14  C   UNL     1      67.198 242.123 332.736  0.00  0.00    +0.000 A 
ATOM     15  C   UNL     1      68.728 240.466 333.768  0.00  0.00    +0.000 A 
ATOM     16  C   UNL     1      66.434 242.109 333.920  0.00  0.00    +0.000 A 
ATOM     17  C   UNL     1      66.812 241.306 334.996  0.00  0.00    +0.000 A 
ATOM     18  C   UNL     1      67.938 240.499 334.916  0.00  0.00    +0.000 A 
ATOM     19  C   UNL     1      66.026 243.611 331.070  0.00  0.00    +0.000 A 
ATOM     20  C   UNL     1      66.119 243.968 329.693  0.00  0.00    +0.000 A 
ATOM     21  C   UNL     1      64.834 244.173 331.658  0.00  0.00    +0.000 C 
ATOM     22  C   UNL     1      64.922 244.799 329.387  0.00  0.00    +0.000 C 
ATOM     23  N   UNL     1      64.270 244.851 330.569  0.00  0.00    +0.000 N 
ATOM     24  H   UNL     1      63.401 245.354 330.683  0.00  0.00    +0.000 HD
ATOM     25  O   UNL     1      64.344 244.140 332.778  0.00  0.00    +0.000 OA
ATOM     26  C   UNL     1      67.467 243.503 327.639  0.00  0.00    +0.000 A 
ATOM     27  C   UNL     1      68.652 242.722 327.362  0.00  0.00    +0.000 A 
ATOM     28  C   UNL     1      66.797 244.114 326.560  0.00  0.00    +0.000 A 
ATOM     29  C   UNL     1      69.096 242.572 326.036  0.00  0.00    +0.000 A 
ATOM     30  C   UNL     1      68.399 243.198 325.003  0.00  0.00    +0.000 A 
ATOM     31  C   UNL     1      67.271 243.962 325.258  0.00  0.00    +0.000 A 
ENDROOT
BRANCH   3  32
ATOM     32  O   UNL     1      68.964 239.415 327.984  0.00  0.00    +0.000 OA
ATOM     33  H   UNL     1      68.406 238.886 328.596  0.00  0.00    +0.000 HD
ENDBRANCH   3  32
BRANCH   3  34
ATOM     34  C   UNL     1      71.352 239.012 328.218  0.00  0.00    +0.000 C 
ATOM     35  O   UNL     1      71.446 238.680 327.034  0.00  0.00    +0.000 OA
BRANCH  34  36
ATOM     36  O   UNL     1      72.207 238.712 329.242  0.00  0.00    +0.000 OA
ATOM     37  C   UNL     1      73.569 238.986 329.056  0.00  0.00    +0.000 C 
ENDBRANCH  34  36
ENDBRANCH   3  34
TORSDOF 3
ENDMDL
MODEL 4
REMARK VINA RESULT:      -6.7     31.897     34.017
REMARK  Name = 3035817_K252a.pdbqt.pdb
REMARK  3 active torsions:
REMARK  status: ('A' for Active; 'I' for Inactive)
REMARK    1  A    between atoms: C_3  and  O_7
REMARK    2  A    between atoms: C_3  and  C_9
REMARK    3  A    between atoms: C_9  and  O_11
REMARK                            x       y       z     vdW  Elec       q    Type
REMARK                         _______ _______ _______ _____ _____    ______ ____
ROOT
ATOM      1  O   UNL     1      68.416 221.619 337.904  0.00  0.00    +0.000 OA
ATOM      2  C   UNL     1      68.270 220.161 338.040  0.00  0.00    +0.000 C 
ATOM      3  C   UNL     1      68.969 219.579 336.736  0.00  0.00    +0.000 C 
ATOM      4  C   UNL     1      69.691 221.787 337.335  0.00  0.00    +0.000 C 
ATOM      5  C   UNL     1      69.881 220.687 336.463  0.00  0.00    +0.000 C 
ATOM      6  C   UNL     1      66.729 219.908 338.120  0.00  0.00    +0.000 C 
ATOM      7  N   UNL     1      68.961 219.783 339.290  0.00  0.00    +0.000 N 
ATOM      8  C   UNL     1      70.030 220.353 339.933  0.00  0.00    +0.000 A 
ATOM      9  C   UNL     1      70.828 221.402 339.475  0.00  0.00    +0.000 A 
ATOM     10  C   UNL     1      70.465 219.809 341.146  0.00  0.00    +0.000 A 
ATOM     11  N   UNL     1      70.685 222.018 338.270  0.00  0.00    +0.000 N 
ATOM     12  C   UNL     1      71.918 221.729 340.290  0.00  0.00    +0.000 A 
ATOM     13  C   UNL     1      71.842 222.817 338.257  0.00  0.00    +0.000 A 
ATOM     14  C   UNL     1      72.590 222.677 339.487  0.00  0.00    +0.000 A 
ATOM     15  C   UNL     1      72.283 223.680 337.240  0.00  0.00    +0.000 A 
ATOM     16  C   UNL     1      73.778 223.423 339.624  0.00  0.00    +0.000 A 
ATOM     17  C   UNL     1      74.199 224.276 338.604  0.00  0.00    +0.000 A 
ATOM     18  C   UNL     1      73.463 224.398 337.434  0.00  0.00    +0.000 A 
ATOM     19  C   UNL     1      72.356 221.204 341.522  0.00  0.00    +0.000 A 
ATOM     20  C   UNL     1      71.537 220.135 341.989  0.00  0.00    +0.000 A 
ATOM     21  C   UNL     1      73.456 221.432 342.429  0.00  0.00    +0.000 C 
ATOM     22  C   UNL     1      72.148 219.654 343.259  0.00  0.00    +0.000 C 
ATOM     23  N   UNL     1      73.222 220.460 343.411  0.00  0.00    +0.000 N 
ATOM     24  H   UNL     1      73.849 220.377 344.198  0.00  0.00    +0.000 HD
ATOM     25  O   UNL     1      74.390 222.219 342.448  0.00  0.00    +0.000 OA
ATOM     26  C   UNL     1      69.604 218.707 341.298  0.00  0.00    +0.000 A 
ATOM     27  C   UNL     1      68.720 218.685 340.154  0.00  0.00    +0.000 A 
ATOM     28  C   UNL     1      69.484 217.684 342.260  0.00  0.00    +0.000 A 
ATOM     29  C   UNL     1      67.783 217.647 340.014  0.00  0.00    +0.000 A 
ATOM     30  C   UNL     1      67.702 216.658 340.995  0.00  0.00    +0.000 A 
ATOM     31  C   UNL     1      68.533 216.677 342.103  0.00  0.00    +0.000 A 
ENDROOT
BRANCH   3  32
ATOM     32  O   UNL     1      69.736 218.385 336.945  0.00  0.00    +0.000 OA
ATOM     33  H   UNL     1      70.548 218.459 336.397  0.00  0.00    +0.000 HD
ENDBRANCH   3  32
BRANCH   3  34
ATOM     34  C   UNL     1      67.969 219.379 335.600  0.00  0.00    +0.000 C 
ATOM     35  O   UNL     1      67.513 218.259 335.357  0.00  0.00    +0.000 OA
BRANCH  34  36
ATOM     36  O   UNL     1      67.734 220.543 334.922  0.00  0.00    +0.000 OA
ATOM     37  C   UNL     1      66.654 220.570 334.029  0.00  0.00    +0.000 C 
ENDBRANCH  34  36
ENDBRANCH   3  34
TORSDOF 3
ENDMDL
MODEL 5
REMARK VINA RESULT:      -6.6      2.901      6.778
REMARK  Name = 3035817_K252a.pdbqt.pdb
REMARK  3 active torsions:
REMARK  status: ('A' for Active; 'I' for Inactive)
REMARK    1  A    between atoms: C_3  and  O_7
REMARK    2  A    between atoms: C_3  and  C_9
REMARK    3  A    between atoms: C_9  and  O_11
REMARK                            x       y       z     vdW  Elec       q    Type
REMARK                         _______ _______ _______ _____ _____    ______ ____
ROOT
ATOM      1  O   UNL     1      51.765 243.293 328.794  0.00  0.00    +0.000 OA
ATOM      2  C   UNL     1      51.736 243.859 327.436  0.00  0.00    +0.000 C 
ATOM      3  C   UNL     1      50.205 243.779 327.017  0.00  0.00    +0.000 C 
ATOM      4  C   UNL     1      50.577 243.754 329.387  0.00  0.00    +0.000 C 
ATOM      5  C   UNL     1      49.611 243.795 328.351  0.00  0.00    +0.000 C 
ATOM      6  C   UNL     1      52.689 242.951 326.592  0.00  0.00    +0.000 C 
ATOM      7  N   UNL     1      52.239 245.244 327.546  0.00  0.00    +0.000 N 
ATOM      8  C   UNL     1      52.185 246.140 328.583  0.00  0.00    +0.000 A 
ATOM      9  C   UNL     1      51.506 245.989 329.792  0.00  0.00    +0.000 A 
ATOM     10  C   UNL     1      52.788 247.393 328.433  0.00  0.00    +0.000 A 
ATOM     11  N   UNL     1      50.744 244.912 330.127  0.00  0.00    +0.000 N 
ATOM     12  C   UNL     1      51.536 247.100 330.642  0.00  0.00    +0.000 A 
ATOM     13  C   UNL     1      50.158 245.378 331.317  0.00  0.00    +0.000 A 
ATOM     14  C   UNL     1      50.648 246.695 331.662  0.00  0.00    +0.000 A 
ATOM     15  C   UNL     1      49.229 244.717 332.137  0.00  0.00    +0.000 A 
ATOM     16  C   UNL     1      50.152 247.294 332.838  0.00  0.00    +0.000 A 
ATOM     17  C   UNL     1      49.231 246.621 333.640  0.00  0.00    +0.000 A 
ATOM     18  C   UNL     1      48.778 245.357 333.292  0.00  0.00    +0.000 A 
ATOM     19  C   UNL     1      52.155 248.360 330.513  0.00  0.00    +0.000 A 
ATOM     20  C   UNL     1      52.850 248.510 329.278  0.00  0.00    +0.000 A 
ATOM     21  C   UNL     1      52.236 249.574 331.290  0.00  0.00    +0.000 C 
ATOM     22  C   UNL     1      53.402 249.893 329.265  0.00  0.00    +0.000 C 
ATOM     23  N   UNL     1      52.996 250.399 330.450  0.00  0.00    +0.000 N 
ATOM     24  H   UNL     1      53.221 251.341 330.738  0.00  0.00    +0.000 HD
ATOM     25  O   UNL     1      51.808 249.912 332.384  0.00  0.00    +0.000 OA
ATOM     26  C   UNL     1      53.257 247.335 327.109  0.00  0.00    +0.000 A 
ATOM     27  C   UNL     1      52.892 246.043 326.574  0.00  0.00    +0.000 A 
ATOM     28  C   UNL     1      53.925 248.247 326.266  0.00  0.00    +0.000 A 
ATOM     29  C   UNL     1      53.189 245.731 325.235  0.00  0.00    +0.000 A 
ATOM     30  C   UNL     1      53.853 246.667 324.443  0.00  0.00    +0.000 A 
ATOM     31  C   UNL     1      54.222 247.903 324.949  0.00  0.00    +0.000 A 
ENDROOT
BRANCH   3  32
ATOM     32  O   UNL     1      49.722 244.911 326.278  0.00  0.00    +0.000 OA
ATOM     33  H   UNL     1      50.331 245.046 325.519  0.00  0.00    +0.000 HD
ENDBRANCH   3  32
BRANCH   3  34
ATOM     34  C   UNL     1      49.888 242.483 326.274  0.00  0.00    +0.000 C 
ATOM     35  O   UNL     1      49.971 242.429 325.045  0.00  0.00    +0.000 OA
BRANCH  34  36
ATOM     36  O   UNL     1      49.477 241.498 327.129  0.00  0.00    +0.000 OA
ATOM     37  C   UNL     1      48.758 240.423 326.588  0.00  0.00    +0.000 C 
ENDBRANCH  34  36
ENDBRANCH   3  34
TORSDOF 3
ENDMDL
MODEL 6
REMARK VINA RESULT:      -6.6     33.469     35.491
REMARK  Name = 3035817_K252a.pdbqt.pdb
REMARK  3 active torsions:
REMARK  status: ('A' for Active; 'I' for Inactive)
REMARK    1  A    between atoms: C_3  and  O_7
REMARK    2  A    between atoms: C_3  and  C_9
REMARK    3  A    between atoms: C_9  and  O_11
REMARK                            x       y       z     vdW  Elec       q    Type
REMARK                         _______ _______ _______ _____ _____    ______ ____
ROOT
ATOM      1  O   UNL     1      70.285 219.879 343.336  0.00  0.00    +0.000 OA
ATOM      2  C   UNL     1      71.739 219.701 343.481  0.00  0.00    +0.000 C 
ATOM      3  C   UNL     1      71.988 218.193 343.045  0.00  0.00    +0.000 C 
ATOM      4  C   UNL     1      69.959 219.140 342.185  0.00  0.00    +0.000 C 
ATOM      5  C   UNL     1      70.825 218.019 342.179  0.00  0.00    +0.000 C 
ATOM      6  C   UNL     1      72.041 220.002 344.985  0.00  0.00    +0.000 C 
ATOM      7  N   UNL     1      72.375 220.682 342.578  0.00  0.00    +0.000 N 
ATOM      8  C   UNL     1      71.942 221.232 341.399  0.00  0.00    +0.000 A 
ATOM      9  C   UNL     1      70.796 220.889 340.680  0.00  0.00    +0.000 A 
ATOM     10  C   UNL     1      72.738 222.186 340.757  0.00  0.00    +0.000 A 
ATOM     11  N   UNL     1      69.924 219.905 341.031  0.00  0.00    +0.000 N 
ATOM     12  C   UNL     1      70.636 221.542 339.453  0.00  0.00    +0.000 A 
ATOM     13  C   UNL     1      69.114 219.863 339.883  0.00  0.00    +0.000 A 
ATOM     14  C   UNL     1      69.514 220.870 338.923  0.00  0.00    +0.000 A 
ATOM     15  C   UNL     1      68.031 219.009 339.621  0.00  0.00    +0.000 A 
ATOM     16  C   UNL     1      68.789 220.953 337.717  0.00  0.00    +0.000 A 
ATOM     17  C   UNL     1      67.715 220.098 337.476  0.00  0.00    +0.000 A 
ATOM     18  C   UNL     1      67.347 219.142 338.413  0.00  0.00    +0.000 A 
ATOM     19  C   UNL     1      71.419 222.519 338.804  0.00  0.00    +0.000 A 
ATOM     20  C   UNL     1      72.587 222.870 339.543  0.00  0.00    +0.000 A 
ATOM     21  C   UNL     1      71.377 223.237 337.553  0.00  0.00    +0.000 C 
ATOM     22  C   UNL     1      73.330 223.861 338.718  0.00  0.00    +0.000 C 
ATOM     23  N   UNL     1      72.554 223.994 337.620  0.00  0.00    +0.000 N 
ATOM     24  H   UNL     1      72.799 224.613 336.859  0.00  0.00    +0.000 HD
ATOM     25  O   UNL     1      70.592 223.264 336.617  0.00  0.00    +0.000 OA
ATOM     26  C   UNL     1      73.866 222.236 341.596  0.00  0.00    +0.000 A 
ATOM     27  C   UNL     1      73.648 221.300 342.676  0.00  0.00    +0.000 A 
ATOM     28  C   UNL     1      75.086 222.942 341.555  0.00  0.00    +0.000 A 
ATOM     29  C   UNL     1      74.650 221.100 343.641  0.00  0.00    +0.000 A 
ATOM     30  C   UNL     1      75.839 221.824 343.558  0.00  0.00    +0.000 A 
ATOM     31  C   UNL     1      76.053 222.736 342.537  0.00  0.00    +0.000 A 
ENDROOT
BRANCH   3  32
ATOM     32  O   UNL     1      73.180 217.977 342.274  0.00  0.00    +0.000 OA
ATOM     33  H   UNL     1      72.954 218.151 341.333  0.00  0.00    +0.000 HD
ENDBRANCH   3  32
BRANCH   3  34
ATOM     34  C   UNL     1      71.948 217.244 344.240  0.00  0.00    +0.000 C 
ATOM     35  O   UNL     1      72.988 216.926 344.823  0.00  0.00    +0.000 OA
BRANCH  34  36
ATOM     36  O   UNL     1      70.679 216.802 344.493  0.00  0.00    +0.000 OA
ATOM     37  C   UNL     1      70.535 215.612 345.219  0.00  0.00    +0.000 C 
ENDBRANCH  34  36
ENDBRANCH   3  34
TORSDOF 3
ENDMDL
MODEL 7
REMARK VINA RESULT:      -6.5     31.821     34.416
REMARK  Name = 3035817_K252a.pdbqt.pdb
REMARK  3 active torsions:
REMARK  status: ('A' for Active; 'I' for Inactive)
REMARK    1  A    between atoms: C_3  and  O_7
REMARK    2  A    between atoms: C_3  and  C_9
REMARK    3  A    between atoms: C_9  and  O_11
REMARK                            x       y       z     vdW  Elec       q    Type
REMARK                         _______ _______ _______ _____ _____    ______ ____
ROOT
ATOM      1  O   UNL     1      66.571 220.472 337.495  0.00  0.00    +0.000 OA
ATOM      2  C   UNL     1      66.509 219.123 336.911  0.00  0.00    +0.000 C 
ATOM      3  C   UNL     1      67.569 219.165 335.728  0.00  0.00    +0.000 C 
ATOM      4  C   UNL     1      67.933 220.814 337.431  0.00  0.00    +0.000 C 
ATOM      5  C   UNL     1      68.431 220.226 336.243  0.00  0.00    +0.000 C 
ATOM      6  C   UNL     1      65.025 218.944 336.449  0.00  0.00    +0.000 C 
ATOM      7  N   UNL     1      66.874 218.181 337.988  0.00  0.00    +0.000 N 
ATOM      8  C   UNL     1      67.688 218.336 339.081  0.00  0.00    +0.000 A 
ATOM      9  C   UNL     1      68.494 219.435 339.382  0.00  0.00    +0.000 A 
ATOM     10  C   UNL     1      67.830 217.276 339.983  0.00  0.00    +0.000 A 
ATOM     11  N   UNL     1      68.625 220.540 338.598  0.00  0.00    +0.000 N 
ATOM     12  C   UNL     1      69.302 219.297 340.516  0.00  0.00    +0.000 A 
ATOM     13  C   UNL     1      69.678 221.195 339.261  0.00  0.00    +0.000 A 
ATOM     14  C   UNL     1      70.086 220.469 340.444  0.00  0.00    +0.000 A 
ATOM     15  C   UNL     1      70.303 222.402 338.906  0.00  0.00    +0.000 A 
ATOM     16  C   UNL     1      71.133 221.007 341.218  0.00  0.00    +0.000 A 
ATOM     17  C   UNL     1      71.739 222.208 340.851  0.00  0.00    +0.000 A 
ATOM     18  C   UNL     1      71.330 222.889 339.713  0.00  0.00    +0.000 A 
ATOM     19  C   UNL     1      69.441 218.244 341.443  0.00  0.00    +0.000 A 
ATOM     20  C   UNL     1      68.613 217.125 341.135  0.00  0.00    +0.000 A 
ATOM     21  C   UNL     1      70.241 217.974 342.614  0.00  0.00    +0.000 C 
ATOM     22  C   UNL     1      68.904 216.086 342.161  0.00  0.00    +0.000 C 
ATOM     23  N   UNL     1      69.834 216.675 342.944  0.00  0.00    +0.000 N 
ATOM     24  H   UNL     1      70.237 216.209 343.745  0.00  0.00    +0.000 HD
ATOM     25  O   UNL     1      71.073 218.616 343.238  0.00  0.00    +0.000 OA
ATOM     26  C   UNL     1      67.048 216.274 339.381  0.00  0.00    +0.000 A 
ATOM     27  C   UNL     1      66.500 216.824 338.161  0.00  0.00    +0.000 A 
ATOM     28  C   UNL     1      66.759 214.932 339.702  0.00  0.00    +0.000 A 
ATOM     29  C   UNL     1      65.718 216.014 337.319  0.00  0.00    +0.000 A 
ATOM     30  C   UNL     1      65.459 214.693 337.682  0.00  0.00    +0.000 A 
ATOM     31  C   UNL     1      65.965 214.159 338.857  0.00  0.00    +0.000 A 
ENDROOT
BRANCH   3  32
ATOM     32  O   UNL     1      68.345 217.968 335.571  0.00  0.00    +0.000 OA
ATOM     33  H   UNL     1      67.846 217.372 334.970  0.00  0.00    +0.000 HD
ENDBRANCH   3  32
BRANCH   3  34
ATOM     34  C   UNL     1      66.922 219.559 334.402  0.00  0.00    +0.000 C 
ATOM     35  O   UNL     1      66.638 220.736 334.169  0.00  0.00    +0.000 OA
BRANCH  34  36
ATOM     36  O   UNL     1      66.682 218.468 333.613  0.00  0.00    +0.000 OA
ATOM     37  C   UNL     1      65.598 218.530 332.727  0.00  0.00    +0.000 C 
ENDBRANCH  34  36
ENDBRANCH   3  34
TORSDOF 3
ENDMDL
MODEL 8
REMARK VINA RESULT:      -6.4     32.411     34.479
REMARK  Name = 3035817_K252a.pdbqt.pdb
REMARK  3 active torsions:
REMARK  status: ('A' for Active; 'I' for Inactive)
REMARK    1  A    between atoms: C_3  and  O_7
REMARK    2  A    between atoms: C_3  and  C_9
REMARK    3  A    between atoms: C_9  and  O_11
REMARK                            x       y       z     vdW  Elec       q    Type
REMARK                         _______ _______ _______ _____ _____    ______ ____
ROOT
ATOM      1  O   UNL     1      74.641 222.531 337.292  0.00  0.00    +0.000 OA
ATOM      2  C   UNL     1      75.163 223.472 338.296  0.00  0.00    +0.000 C 
ATOM      3  C   UNL     1      74.452 224.849 337.940  0.00  0.00    +0.000 C 
ATOM      4  C   UNL     1      73.297 222.909 337.129  0.00  0.00    +0.000 C 
ATOM      5  C   UNL     1      73.264 224.317 337.277  0.00  0.00    +0.000 C 
ATOM      6  C   UNL     1      76.714 223.470 338.094  0.00  0.00    +0.000 C 
ATOM      7  N   UNL     1      74.773 222.939 339.617  0.00  0.00    +0.000 N 
ATOM      8  C   UNL     1      73.699 222.174 339.997  0.00  0.00    +0.000 A 
ATOM      9  C   UNL     1      72.609 221.803 339.209  0.00  0.00    +0.000 A 
ATOM     10  C   UNL     1      73.590 221.764 341.329  0.00  0.00    +0.000 A 
ATOM     11  N   UNL     1      72.420 222.180 337.915  0.00  0.00    +0.000 N 
ATOM     12  C   UNL     1      71.600 221.097 339.872  0.00  0.00    +0.000 A 
ATOM     13  C   UNL     1      71.112 221.712 337.704  0.00  0.00    +0.000 A 
ATOM     14  C   UNL     1      70.605 221.026 338.872  0.00  0.00    +0.000 A 
ATOM     15  C   UNL     1      70.330 221.831 336.543  0.00  0.00    +0.000 A 
ATOM     16  C   UNL     1      69.301 220.495 338.810  0.00  0.00    +0.000 A 
ATOM     17  C   UNL     1      68.541 220.621 337.648  0.00  0.00    +0.000 A 
ATOM     18  C   UNL     1      69.049 221.280 336.537  0.00  0.00    +0.000 A 
ATOM     19  C   UNL     1      71.486 220.661 341.208  0.00  0.00    +0.000 A 
ATOM     20  C   UNL     1      72.603 221.038 342.009  0.00  0.00    +0.000 A 
ATOM     21  C   UNL     1      70.505 219.962 342.005  0.00  0.00    +0.000 C 
ATOM     22  C   UNL     1      72.318 220.558 343.389  0.00  0.00    +0.000 C 
ATOM     23  N   UNL     1      71.111 219.963 343.268  0.00  0.00    +0.000 N 
ATOM     24  H   UNL     1      70.642 219.532 344.052  0.00  0.00    +0.000 HD
ATOM     25  O   UNL     1      69.417 219.461 341.763  0.00  0.00    +0.000 OA
ATOM     26  C   UNL     1      74.711 222.379 341.916  0.00  0.00    +0.000 A 
ATOM     27  C   UNL     1      75.400 223.111 340.877  0.00  0.00    +0.000 A 
ATOM     28  C   UNL     1      75.218 222.441 343.230  0.00  0.00    +0.000 A 
ATOM     29  C   UNL     1      76.536 223.875 341.196  0.00  0.00    +0.000 A 
ATOM     30  C   UNL     1      76.999 223.903 342.511  0.00  0.00    +0.000 A 
ATOM     31  C   UNL     1      76.356 223.193 343.513  0.00  0.00    +0.000 A 
ENDROOT
BRANCH   3  32
ATOM     32  O   UNL     1      74.043 225.627 339.075  0.00  0.00    +0.000 OA
ATOM     33  H   UNL     1      73.064 225.699 339.043  0.00  0.00    +0.000 HD
ENDBRANCH   3  32
BRANCH   3  34
ATOM     34  C   UNL     1      75.297 225.694 336.991  0.00  0.00    +0.000 C 
ATOM     35  O   UNL     1      76.124 226.495 337.433  0.00  0.00    +0.000 OA
BRANCH  34  36
ATOM     36  O   UNL     1      74.965 225.470 335.683  0.00  0.00    +0.000 OA
ATOM     37  C   UNL     1      75.990 225.083 334.808  0.00  0.00    +0.000 C 
ENDBRANCH  34  36
ENDBRANCH   3  34
TORSDOF 3
ENDMDL
MODEL 9
REMARK VINA RESULT:      -6.3     31.938     34.380
REMARK  Name = 3035817_K252a.pdbqt.pdb
REMARK  3 active torsions:
REMARK  status: ('A' for Active; 'I' for Inactive)
REMARK    1  A    between atoms: C_3  and  O_7
REMARK    2  A    between atoms: C_3  and  C_9
REMARK    3  A    between atoms: C_9  and  O_11
REMARK                            x       y       z     vdW  Elec       q    Type
REMARK                         _______ _______ _______ _____ _____    ______ ____
ROOT
ATOM      1  O   UNL     1      69.243 216.308 338.759  0.00  0.00    +0.000 OA
ATOM      2  C   UNL     1      68.069 216.632 337.934  0.00  0.00    +0.000 C 
ATOM      3  C   UNL     1      66.843 216.500 338.936  0.00  0.00    +0.000 C 
ATOM      4  C   UNL     1      68.954 216.879 340.011  0.00  0.00    +0.000 C 
ATOM      5  C   UNL     1      67.554 216.754 340.187  0.00  0.00    +0.000 C 
ATOM      6  C   UNL     1      68.078 215.580 336.776  0.00  0.00    +0.000 C 
ATOM      7  N   UNL     1      68.271 218.008 337.436  0.00  0.00    +0.000 N 
ATOM      8  C   UNL     1      68.947 219.070 337.980  0.00  0.00    +0.000 A 
ATOM      9  C   UNL     1      69.531 219.138 339.246  0.00  0.00    +0.000 A 
ATOM     10  C   UNL     1      69.019 220.271 337.267  0.00  0.00    +0.000 A 
ATOM     11  N   UNL     1      69.490 218.145 340.175  0.00  0.00    +0.000 N 
ATOM     12  C   UNL     1      70.079 220.379 339.590  0.00  0.00    +0.000 A 
ATOM     13  C   UNL     1      70.032 218.816 341.286  0.00  0.00    +0.000 A 
ATOM     14  C   UNL     1      70.422 220.167 340.943  0.00  0.00    +0.000 A 
ATOM     15  C   UNL     1      70.224 218.319 342.585  0.00  0.00    +0.000 A 
ATOM     16  C   UNL     1      70.988 220.965 341.957  0.00  0.00    +0.000 A 
ATOM     17  C   UNL     1      71.173 220.453 343.240  0.00  0.00    +0.000 A 
ATOM     18  C   UNL     1      70.795 219.153 343.546  0.00  0.00    +0.000 A 
ATOM     19  C   UNL     1      70.176 221.590 338.875  0.00  0.00    +0.000 A 
ATOM     20  C   UNL     1      69.582 221.516 337.581  0.00  0.00    +0.000 A 
ATOM     21  C   UNL     1      70.683 222.918 339.123  0.00  0.00    +0.000 C 
ATOM     22  C   UNL     1      69.715 222.869 336.974  0.00  0.00    +0.000 C 
ATOM     23  N   UNL     1      70.354 223.577 337.931  0.00  0.00    +0.000 N 
ATOM     24  H   UNL     1      70.592 224.552 337.811  0.00  0.00    +0.000 HD
ATOM     25  O   UNL     1      71.258 223.444 340.064  0.00  0.00    +0.000 OA
ATOM     26  C   UNL     1      68.247 219.980 336.127  0.00  0.00    +0.000 A 
ATOM     27  C   UNL     1      67.776 218.620 336.257  0.00  0.00    +0.000 A 
ATOM     28  C   UNL     1      67.850 220.725 334.998  0.00  0.00    +0.000 A 
ATOM     29  C   UNL     1      66.925 218.079 335.277  0.00  0.00    +0.000 A 
ATOM     30  C   UNL     1      66.562 218.855 334.177  0.00  0.00    +0.000 A 
ATOM     31  C   UNL     1      67.020 220.155 334.034  0.00  0.00    +0.000 A 
ENDROOT
BRANCH   3  32
ATOM     32  O   UNL     1      65.820 217.494 338.772  0.00  0.00    +0.000 OA
ATOM     33  H   UNL     1      64.956 217.027 338.770  0.00  0.00    +0.000 HD
ENDBRANCH   3  32
BRANCH   3  34
ATOM     34  C   UNL     1      66.235 215.100 338.907  0.00  0.00    +0.000 C 
ATOM     35  O   UNL     1      66.790 214.164 339.488  0.00  0.00    +0.000 OA
BRANCH  34  36
ATOM     36  O   UNL     1      65.100 215.057 338.145  0.00  0.00    +0.000 OA
ATOM     37  C   UNL     1      63.955 214.481 338.712  0.00  0.00    +0.000 C 
ENDBRANCH  34  36
ENDBRANCH   3  34
TORSDOF 3
ENDMDL
