MODEL 1
REMARK VINA RESULT:      -4.3      0.000      0.000
REMARK  Name = 3136_Dimethoxy.pdbqt.pdb
REMARK  2 active torsions:
REMARK  status: ('A' for Active; 'I' for Inactive)
REMARK    1  A    between atoms: C_7  and  O_13
REMARK    2  A    between atoms: C_8  and  O_15
REMARK                            x       y       z     vdW  Elec       q    Type
REMARK                         _______ _______ _______ _____ _____    ______ ____
ROOT
ATOM      1  O   UNL     1      60.983 220.353 328.377  0.00  0.00    +0.000 OA
ATOM      2  O   UNL     1      63.494 224.991 327.615  0.00  0.00    +0.000 OA
ATOM      3  C   UNL     1      60.806 222.629 327.873  0.00  0.00    +0.000 A 
ATOM      4  C   UNL     1      61.458 223.842 327.699  0.00  0.00    +0.000 A 
ATOM      5  C   UNL     1      61.564 221.410 328.174  0.00  0.00    +0.000 C 
ATOM      6  C   UNL     1      62.918 223.931 327.820  0.00  0.00    +0.000 C 
ATOM      7  C   UNL     1      63.043 221.506 328.244  0.00  0.00    +0.000 C 
ATOM      8  C   UNL     1      63.665 222.700 328.175  0.00  0.00    +0.000 C 
ATOM      9  C   UNL     1      59.418 222.560 327.762  0.00  0.00    +0.000 A 
ATOM     10  C   UNL     1      60.727 224.994 327.407  0.00  0.00    +0.000 A 
ATOM     11  C   UNL     1      58.686 223.709 327.472  0.00  0.00    +0.000 A 
ATOM     12  C   UNL     1      59.340 224.926 327.294  0.00  0.00    +0.000 A 
ENDROOT
BRANCH   7  13
ATOM     13  O   UNL     1      63.701 220.313 328.484  0.00  0.00    +0.000 OA
ATOM     14  C   UNL     1      63.937 220.172 329.864  0.00  0.00    +0.000 C 
ENDBRANCH   7  13
BRANCH   8  15
ATOM     15  O   UNL     1      65.031 222.861 328.323  0.00  0.00    +0.000 OA
ATOM     16  C   UNL     1      65.682 222.504 327.126  0.00  0.00    +0.000 C 
ENDBRANCH   8  15
TORSDOF 2
ENDMDL
MODEL 2
REMARK VINA RESULT:      -4.2     22.673     24.773
REMARK  Name = 3136_Dimethoxy.pdbqt.pdb
REMARK  2 active torsions:
REMARK  status: ('A' for Active; 'I' for Inactive)
REMARK    1  A    between atoms: C_7  and  O_13
REMARK    2  A    between atoms: C_8  and  O_15
REMARK                            x       y       z     vdW  Elec       q    Type
REMARK                         _______ _______ _______ _____ _____    ______ ____
ROOT
ATOM      1  O   UNL     1      49.784 246.338 325.812  0.00  0.00    +0.000 OA
ATOM      2  O   UNL     1      52.516 242.561 328.395  0.00  0.00    +0.000 OA
ATOM      3  C   UNL     1      51.715 245.022 325.912  0.00  0.00    +0.000 A 
ATOM      4  C   UNL     1      52.437 244.056 326.598  0.00  0.00    +0.000 A 
ATOM      5  C   UNL     1      50.396 245.450 326.391  0.00  0.00    +0.000 C 
ATOM      6  C   UNL     1      51.901 243.449 327.821  0.00  0.00    +0.000 C 
ATOM      7  C   UNL     1      49.844 244.791 327.601  0.00  0.00    +0.000 C 
ATOM      8  C   UNL     1      50.589 243.928 328.321  0.00  0.00    +0.000 C 
ATOM      9  C   UNL     1      52.239 245.596 324.754  0.00  0.00    +0.000 A 
ATOM     10  C   UNL     1      53.688 243.653 326.129  0.00  0.00    +0.000 A 
ATOM     11  C   UNL     1      53.488 245.196 324.285  0.00  0.00    +0.000 A 
ATOM     12  C   UNL     1      54.213 244.224 324.972  0.00  0.00    +0.000 A 
ENDROOT
BRANCH   7  13
ATOM     13  O   UNL     1      48.578 245.205 327.973  0.00  0.00    +0.000 OA
ATOM     14  C   UNL     1      47.621 244.294 327.488  0.00  0.00    +0.000 C 
ENDBRANCH   7  13
BRANCH   8  15
ATOM     15  O   UNL     1      50.161 243.352 329.504  0.00  0.00    +0.000 OA
ATOM     16  C   UNL     1      50.389 244.240 330.572  0.00  0.00    +0.000 C 
ENDBRANCH   8  15
TORSDOF 2
ENDMDL
MODEL 3
REMARK VINA RESULT:      -4.0     20.024     22.680
REMARK  Name = 3136_Dimethoxy.pdbqt.pdb
REMARK  2 active torsions:
REMARK  status: ('A' for Active; 'I' for Inactive)
REMARK    1  A    between atoms: C_7  and  O_13
REMARK    2  A    between atoms: C_8  and  O_15
REMARK                            x       y       z     vdW  Elec       q    Type
REMARK                         _______ _______ _______ _____ _____    ______ ____
ROOT
ATOM      1  O   UNL     1      44.877 239.326 325.686  0.00  0.00    +0.000 OA
ATOM      2  O   UNL     1      50.099 239.809 326.628  0.00  0.00    +0.000 OA
ATOM      3  C   UNL     1      47.013 238.401 325.465  0.00  0.00    +0.000 A 
ATOM      4  C   UNL     1      48.375 238.539 325.689  0.00  0.00    +0.000 A 
ATOM      5  C   UNL     1      46.072 239.426 325.929  0.00  0.00    +0.000 C 
ATOM      6  C   UNL     1      48.904 239.715 326.387  0.00  0.00    +0.000 C 
ATOM      7  C   UNL     1      46.615 240.586 326.677  0.00  0.00    +0.000 C 
ATOM      8  C   UNL     1      47.945 240.768 326.805  0.00  0.00    +0.000 C 
ATOM      9  C   UNL     1      46.525 237.280 324.794  0.00  0.00    +0.000 A 
ATOM     10  C   UNL     1      49.260 237.554 325.248  0.00  0.00    +0.000 A 
ATOM     11  C   UNL     1      47.406 236.296 324.352  0.00  0.00    +0.000 A 
ATOM     12  C   UNL     1      48.774 236.432 324.579  0.00  0.00    +0.000 A 
ENDROOT
BRANCH   7  13
ATOM     13  O   UNL     1      45.672 241.492 327.128  0.00  0.00    +0.000 OA
ATOM     14  C   UNL     1      45.304 241.173 328.448  0.00  0.00    +0.000 C 
ENDBRANCH   7  13
BRANCH   8  15
ATOM     15  O   UNL     1      48.511 241.874 327.414  0.00  0.00    +0.000 OA
ATOM     16  C   UNL     1      48.687 242.898 326.464  0.00  0.00    +0.000 C 
ENDBRANCH   8  15
TORSDOF 2
ENDMDL
MODEL 4
REMARK VINA RESULT:      -4.0     18.150     20.193
REMARK  Name = 3136_Dimethoxy.pdbqt.pdb
REMARK  2 active torsions:
REMARK  status: ('A' for Active; 'I' for Inactive)
REMARK    1  A    between atoms: C_7  and  O_13
REMARK    2  A    between atoms: C_8  and  O_15
REMARK                            x       y       z     vdW  Elec       q    Type
REMARK                         _______ _______ _______ _____ _____    ______ ____
ROOT
ATOM      1  O   UNL     1      44.957 236.155 324.874  0.00  0.00    +0.000 OA
ATOM      2  O   UNL     1      49.954 234.978 323.444  0.00  0.00    +0.000 OA
ATOM      3  C   UNL     1      46.464 234.526 324.138  0.00  0.00    +0.000 A 
ATOM      4  C   UNL     1      47.759 234.225 323.742  0.00  0.00    +0.000 A 
ATOM      5  C   UNL     1      46.111 235.881 324.574  0.00  0.00    +0.000 C 
ATOM      6  C   UNL     1      48.801 235.258 323.744  0.00  0.00    +0.000 C 
ATOM      7  C   UNL     1      47.186 236.903 324.618  0.00  0.00    +0.000 C 
ATOM      8  C   UNL     1      48.418 236.635 324.139  0.00  0.00    +0.000 C 
ATOM      9  C   UNL     1      45.482 233.536 324.126  0.00  0.00    +0.000 A 
ATOM     10  C   UNL     1      48.084 232.931 323.335  0.00  0.00    +0.000 A 
ATOM     11  C   UNL     1      45.804 232.243 323.719  0.00  0.00    +0.000 A 
ATOM     12  C   UNL     1      47.105 231.940 323.324  0.00  0.00    +0.000 A 
ENDROOT
BRANCH   7  13
ATOM     13  O   UNL     1      46.799 238.147 325.083  0.00  0.00    +0.000 OA
ATOM     14  C   UNL     1      47.113 238.260 326.450  0.00  0.00    +0.000 C 
ENDBRANCH   7  13
BRANCH   8  15
ATOM     15  O   UNL     1      49.433 237.573 324.072  0.00  0.00    +0.000 OA
ATOM     16  C   UNL     1      49.367 238.255 322.842  0.00  0.00    +0.000 C 
ENDBRANCH   8  15
TORSDOF 2
ENDMDL
MODEL 5
REMARK VINA RESULT:      -4.0     20.699     22.561
REMARK  Name = 3136_Dimethoxy.pdbqt.pdb
REMARK  2 active torsions:
REMARK  status: ('A' for Active; 'I' for Inactive)
REMARK    1  A    between atoms: C_7  and  O_13
REMARK    2  A    between atoms: C_8  and  O_15
REMARK                            x       y       z     vdW  Elec       q    Type
REMARK                         _______ _______ _______ _____ _____    ______ ____
ROOT
ATOM      1  O   UNL     1      76.158 237.866 341.429  0.00  0.00    +0.000 OA
ATOM      2  O   UNL     1      73.649 234.394 338.260  0.00  0.00    +0.000 OA
ATOM      3  C   UNL     1      76.164 235.754 340.426  0.00  0.00    +0.000 A 
ATOM      4  C   UNL     1      75.498 234.840 339.621  0.00  0.00    +0.000 A 
ATOM      5  C   UNL     1      75.594 237.082 340.678  0.00  0.00    +0.000 C 
ATOM      6  C   UNL     1      74.208 235.181 339.011  0.00  0.00    +0.000 C 
ATOM      7  C   UNL     1      74.314 237.431 340.015  0.00  0.00    +0.000 C 
ATOM      8  C   UNL     1      73.621 236.508 339.316  0.00  0.00    +0.000 C 
ATOM      9  C   UNL     1      77.386 235.415 341.005  0.00  0.00    +0.000 A 
ATOM     10  C   UNL     1      76.053 233.582 339.384  0.00  0.00    +0.000 A 
ATOM     11  C   UNL     1      77.941 234.159 340.771  0.00  0.00    +0.000 A 
ATOM     12  C   UNL     1      77.275 233.242 339.960  0.00  0.00    +0.000 A 
ENDROOT
BRANCH   7  13
ATOM     13  O   UNL     1      73.855 238.713 340.255  0.00  0.00    +0.000 OA
ATOM     14  C   UNL     1      72.962 238.700 341.342  0.00  0.00    +0.000 C 
ENDBRANCH   7  13
BRANCH   8  15
ATOM     15  O   UNL     1      72.381 236.750 338.751  0.00  0.00    +0.000 OA
ATOM     16  C   UNL     1      72.541 237.440 337.535  0.00  0.00    +0.000 C 
ENDBRANCH   8  15
TORSDOF 2
ENDMDL
MODEL 6
REMARK VINA RESULT:      -4.0     26.064     27.096
REMARK  Name = 3136_Dimethoxy.pdbqt.pdb
REMARK  2 active torsions:
REMARK  status: ('A' for Active; 'I' for Inactive)
REMARK    1  A    between atoms: C_7  and  O_13
REMARK    2  A    between atoms: C_8  and  O_15
REMARK                            x       y       z     vdW  Elec       q    Type
REMARK                         _______ _______ _______ _____ _____    ______ ____
ROOT
ATOM      1  O   UNL     1      54.017 228.743 353.485  0.00  0.00    +0.000 OA
ATOM      2  O   UNL     1      53.566 223.510 352.586  0.00  0.00    +0.000 OA
ATOM      3  C   UNL     1      55.090 226.672 353.324  0.00  0.00    +0.000 A 
ATOM      4  C   UNL     1      54.968 225.306 353.114  0.00  0.00    +0.000 A 
ATOM      5  C   UNL     1      53.915 227.547 353.250  0.00  0.00    +0.000 C 
ATOM      6  C   UNL     1      53.662 224.707 352.821  0.00  0.00    +0.000 C 
ATOM      7  C   UNL     1      52.608 226.935 352.904  0.00  0.00    +0.000 C 
ATOM      8  C   UNL     1      52.475 225.597 352.800  0.00  0.00    +0.000 C 
ATOM      9  C   UNL     1      56.337 227.227 353.608  0.00  0.00    +0.000 A 
ATOM     10  C   UNL     1      56.094 224.484 353.182  0.00  0.00    +0.000 A 
ATOM     11  C   UNL     1      57.463 226.409 353.677  0.00  0.00    +0.000 A 
ATOM     12  C   UNL     1      57.342 225.038 353.463  0.00  0.00    +0.000 A 
ENDROOT
BRANCH   7  13
ATOM     13  O   UNL     1      51.550 227.819 352.803  0.00  0.00    +0.000 OA
ATOM     14  C   UNL     1      50.879 227.897 354.037  0.00  0.00    +0.000 C 
ENDBRANCH   7  13
BRANCH   8  15
ATOM     15  O   UNL     1      51.267 224.964 352.567  0.00  0.00    +0.000 OA
ATOM     16  C   UNL     1      50.961 225.018 351.194  0.00  0.00    +0.000 C 
ENDBRANCH   8  15
TORSDOF 2
ENDMDL
MODEL 7
REMARK VINA RESULT:      -3.8     23.034     24.597
REMARK  Name = 3136_Dimethoxy.pdbqt.pdb
REMARK  2 active torsions:
REMARK  status: ('A' for Active; 'I' for Inactive)
REMARK    1  A    between atoms: C_7  and  O_13
REMARK    2  A    between atoms: C_8  and  O_15
REMARK                            x       y       z     vdW  Elec       q    Type
REMARK                         _______ _______ _______ _____ _____    ______ ____
ROOT
ATOM      1  O   UNL     1      53.434 245.593 325.755  0.00  0.00    +0.000 OA
ATOM      2  O   UNL     1      50.275 243.324 329.397  0.00  0.00    +0.000 OA
ATOM      3  C   UNL     1      52.349 245.787 327.817  0.00  0.00    +0.000 A 
ATOM      4  C   UNL     1      51.506 245.205 328.753  0.00  0.00    +0.000 A 
ATOM      5  C   UNL     1      52.732 245.059 326.603  0.00  0.00    +0.000 C 
ATOM      6  C   UNL     1      50.975 243.853 328.546  0.00  0.00    +0.000 C 
ATOM      7  C   UNL     1      52.229 243.674 326.430  0.00  0.00    +0.000 C 
ATOM      8  C   UNL     1      51.331 243.150 327.289  0.00  0.00    +0.000 C 
ATOM      9  C   UNL     1      52.841 247.075 328.024  0.00  0.00    +0.000 A 
ATOM     10  C   UNL     1      51.153 245.906 329.908  0.00  0.00    +0.000 A 
ATOM     11  C   UNL     1      52.489 247.777 329.175  0.00  0.00    +0.000 A 
ATOM     12  C   UNL     1      51.645 247.192 330.117  0.00  0.00    +0.000 A 
ENDROOT
BRANCH   7  13
ATOM     13  O   UNL     1      52.664 243.025 325.289  0.00  0.00    +0.000 OA
ATOM     14  C   UNL     1      51.826 243.354 324.208  0.00  0.00    +0.000 C 
ENDBRANCH   7  13
BRANCH   8  15
ATOM     15  O   UNL     1      50.760 241.900 327.130  0.00  0.00    +0.000 OA
ATOM     16  C   UNL     1      49.491 242.032 326.535  0.00  0.00    +0.000 C 
ENDBRANCH   8  15
TORSDOF 2
ENDMDL
MODEL 8
REMARK VINA RESULT:      -3.8     26.154     26.780
REMARK  Name = 3136_Dimethoxy.pdbqt.pdb
REMARK  2 active torsions:
REMARK  status: ('A' for Active; 'I' for Inactive)
REMARK    1  A    between atoms: C_7  and  O_13
REMARK    2  A    between atoms: C_8  and  O_15
REMARK                            x       y       z     vdW  Elec       q    Type
REMARK                         _______ _______ _______ _____ _____    ______ ____
ROOT
ATOM      1  O   UNL     1      54.677 229.467 353.546  0.00  0.00    +0.000 OA
ATOM      2  O   UNL     1      56.177 224.354 353.521  0.00  0.00    +0.000 OA
ATOM      3  C   UNL     1      54.052 227.231 353.264  0.00  0.00    +0.000 A 
ATOM      4  C   UNL     1      54.448 225.902 353.233  0.00  0.00    +0.000 A 
ATOM      5  C   UNL     1      55.018 228.292 353.569  0.00  0.00    +0.000 C 
ATOM      6  C   UNL     1      55.842 225.530 353.498  0.00  0.00    +0.000 C 
ATOM      7  C   UNL     1      56.413 227.897 353.884  0.00  0.00    +0.000 C 
ATOM      8  C   UNL     1      56.818 226.617 353.755  0.00  0.00    +0.000 C 
ATOM      9  C   UNL     1      52.725 227.571 353.004  0.00  0.00    +0.000 A 
ATOM     10  C   UNL     1      53.518 224.901 352.947  0.00  0.00    +0.000 A 
ATOM     11  C   UNL     1      51.795 226.574 352.717  0.00  0.00    +0.000 A 
ATOM     12  C   UNL     1      52.192 225.239 352.689  0.00  0.00    +0.000 A 
ENDROOT
BRANCH   7  13
ATOM     13  O   UNL     1      57.262 228.939 354.210  0.00  0.00    +0.000 OA
ATOM     14  C   UNL     1      57.771 229.520 353.033  0.00  0.00    +0.000 C 
ENDBRANCH   7  13
BRANCH   8  15
ATOM     15  O   UNL     1      58.124 226.205 353.948  0.00  0.00    +0.000 OA
ATOM     16  C   UNL     1      58.780 226.113 352.705  0.00  0.00    +0.000 C 
ENDBRANCH   8  15
TORSDOF 2
ENDMDL
MODEL 9
REMARK VINA RESULT:      -3.8     18.346     21.286
REMARK  Name = 3136_Dimethoxy.pdbqt.pdb
REMARK  2 active torsions:
REMARK  status: ('A' for Active; 'I' for Inactive)
REMARK    1  A    between atoms: C_7  and  O_13
REMARK    2  A    between atoms: C_8  and  O_15
REMARK                            x       y       z     vdW  Elec       q    Type
REMARK                         _______ _______ _______ _____ _____    ______ ____
ROOT
ATOM      1  O   UNL     1      44.928 236.474 323.247  0.00  0.00    +0.000 OA
ATOM      2  O   UNL     1      49.678 237.633 325.365  0.00  0.00    +0.000 OA
ATOM      3  C   UNL     1      47.064 235.720 323.826  0.00  0.00    +0.000 A 
ATOM      4  C   UNL     1      48.309 236.028 324.355  0.00  0.00    +0.000 A 
ATOM      5  C   UNL     1      46.007 236.735 323.760  0.00  0.00    +0.000 C 
ATOM      6  C   UNL     1      48.598 237.378 324.852  0.00  0.00    +0.000 C 
ATOM      7  C   UNL     1      46.297 238.082 324.312  0.00  0.00    +0.000 C 
ATOM      8  C   UNL     1      47.536 238.408 324.732  0.00  0.00    +0.000 C 
ATOM      9  C   UNL     1      46.805 234.434 323.352  0.00  0.00    +0.000 A 
ATOM     10  C   UNL     1      49.304 235.052 324.418  0.00  0.00    +0.000 A 
ATOM     11  C   UNL     1      47.797 233.458 323.412  0.00  0.00    +0.000 A 
ATOM     12  C   UNL     1      49.047 233.767 323.946  0.00  0.00    +0.000 A 
ENDROOT
BRANCH   7  13
ATOM     13  O   UNL     1      45.245 238.979 324.263  0.00  0.00    +0.000 OA
ATOM     14  C   UNL     1      44.596 239.014 325.510  0.00  0.00    +0.000 C 
ENDBRANCH   7  13
BRANCH   8  15
ATOM     15  O   UNL     1      47.887 239.671 325.172  0.00  0.00    +0.000 OA
ATOM     16  C   UNL     1      48.306 240.454 324.079  0.00  0.00    +0.000 C 
ENDBRANCH   8  15
TORSDOF 2
ENDMDL
