MODEL 1
REMARK VINA RESULT:      -4.4      0.000      0.000
REMARK  Name = 326_Cuminaldehyde.pdb
REMARK  1 active torsions:
REMARK  status: ('A' for Active; 'I' for Inactive)
REMARK    1  A    between atoms: C_1  and  C_7
REMARK                            x       y       z     vdW  Elec       q    Type
REMARK                         _______ _______ _______ _____ _____    ______ ____
ROOT
ATOM      1  C   UNL     1      70.550 220.836 340.651  0.00  0.00    +0.000 C 
ATOM      2  C   UNL     1      71.032 222.143 340.754  0.00  0.00    +0.000 C 
ATOM      3  C   UNL     1      69.739 220.485 339.569  0.00  0.00    +0.000 C 
ATOM      4  C   UNL     1      70.707 223.090 339.784  0.00  0.00    +0.000 C 
ATOM      5  C   UNL     1      69.413 221.432 338.599  0.00  0.00    +0.000 C 
ATOM      6  C   UNL     1      69.898 222.734 338.708  0.00  0.00    +0.000 C 
ATOM      7  O   UNL     1      69.290 224.501 336.898  0.00  0.00    +0.000 OA
ATOM      8  C   UNL     1      69.565 223.702 337.716  0.00  0.00    +0.000 C 
ENDROOT
BRANCH   1   9
ATOM      9  C   UNL     1      70.892 219.844 341.666  0.00  0.00    +0.000 C 
ATOM     10  C   UNL     1      70.395 219.966 343.085  0.00  0.00    +0.000 C 
ATOM     11  C   UNL     1      71.756 218.651 341.343  0.00  0.00    +0.000 C 
ENDBRANCH   1   9
TORSDOF 1
ENDMDL
MODEL 2
REMARK VINA RESULT:      -4.3     14.027     15.603
REMARK  Name = 326_Cuminaldehyde.pdb
REMARK  1 active torsions:
REMARK  status: ('A' for Active; 'I' for Inactive)
REMARK    1  A    between atoms: C_1  and  C_7
REMARK                            x       y       z     vdW  Elec       q    Type
REMARK                         _______ _______ _______ _____ _____    ______ ____
ROOT
ATOM      1  C   UNL     1      56.116 218.262 334.697  0.00  0.00    +0.000 C 
ATOM      2  C   UNL     1      56.329 217.083 335.416  0.00  0.00    +0.000 C 
ATOM      3  C   UNL     1      56.266 219.494 335.339  0.00  0.00    +0.000 C 
ATOM      4  C   UNL     1      56.690 217.135 336.761  0.00  0.00    +0.000 C 
ATOM      5  C   UNL     1      56.627 219.547 336.684  0.00  0.00    +0.000 C 
ATOM      6  C   UNL     1      56.838 218.366 337.394  0.00  0.00    +0.000 C 
ATOM      7  O   UNL     1      57.511 218.464 339.905  0.00  0.00    +0.000 OA
ATOM      8  C   UNL     1      57.207 218.420 338.770  0.00  0.00    +0.000 C 
ENDROOT
BRANCH   1   9
ATOM      9  C   UNL     1      55.739 218.207 333.288  0.00  0.00    +0.000 C 
ATOM     10  C   UNL     1      56.503 217.362 332.300  0.00  0.00    +0.000 C 
ATOM     11  C   UNL     1      54.567 218.993 332.756  0.00  0.00    +0.000 C 
ENDBRANCH   1   9
TORSDOF 1
ENDMDL
MODEL 3
REMARK VINA RESULT:      -4.3     12.959     13.898
REMARK  Name = 326_Cuminaldehyde.pdb
REMARK  1 active torsions:
REMARK  status: ('A' for Active; 'I' for Inactive)
REMARK    1  A    between atoms: C_1  and  C_7
REMARK                            x       y       z     vdW  Elec       q    Type
REMARK                         _______ _______ _______ _____ _____    ______ ____
ROOT
ATOM      1  C   UNL     1      57.555 218.505 338.307  0.00  0.00    +0.000 C 
ATOM      2  C   UNL     1      57.755 219.616 337.483  0.00  0.00    +0.000 C 
ATOM      3  C   UNL     1      56.822 217.417 337.829  0.00  0.00    +0.000 C 
ATOM      4  C   UNL     1      57.228 219.636 336.192  0.00  0.00    +0.000 C 
ATOM      5  C   UNL     1      56.293 217.438 336.539  0.00  0.00    +0.000 C 
ATOM      6  C   UNL     1      56.498 218.548 335.722  0.00  0.00    +0.000 C 
ATOM      7  O   UNL     1      55.512 218.587 333.315  0.00  0.00    +0.000 OA
ATOM      8  C   UNL     1      55.957 218.569 334.403  0.00  0.00    +0.000 C 
ENDROOT
BRANCH   1   9
ATOM      9  C   UNL     1      58.109 218.484 339.658  0.00  0.00    +0.000 C 
ATOM     10  C   UNL     1      58.144 217.216 340.474  0.00  0.00    +0.000 C 
ATOM     11  C   UNL     1      58.670 219.728 340.299  0.00  0.00    +0.000 C 
ENDBRANCH   1   9
TORSDOF 1
ENDMDL
MODEL 4
REMARK VINA RESULT:      -4.0     31.079     32.278
REMARK  Name = 326_Cuminaldehyde.pdb
REMARK  1 active torsions:
REMARK  status: ('A' for Active; 'I' for Inactive)
REMARK    1  A    between atoms: C_1  and  C_7
REMARK                            x       y       z     vdW  Elec       q    Type
REMARK                         _______ _______ _______ _____ _____    ______ ____
ROOT
ATOM      1  C   UNL     1      53.945 244.521 323.976  0.00  0.00    +0.000 C 
ATOM      2  C   UNL     1      52.960 243.782 323.316  0.00  0.00    +0.000 C 
ATOM      3  C   UNL     1      54.081 244.404 325.361  0.00  0.00    +0.000 C 
ATOM      4  C   UNL     1      52.120 242.933 324.035  0.00  0.00    +0.000 C 
ATOM      5  C   UNL     1      53.240 243.556 326.081  0.00  0.00    +0.000 C 
ATOM      6  C   UNL     1      52.261 242.821 325.416  0.00  0.00    +0.000 C 
ATOM      7  O   UNL     1      50.692 241.237 326.758  0.00  0.00    +0.000 OA
ATOM      8  C   UNL     1      51.401 241.953 326.151  0.00  0.00    +0.000 C 
ENDROOT
BRANCH   1   9
ATOM      9  C   UNL     1      54.826 245.410 323.223  0.00  0.00    +0.000 C 
ATOM     10  C   UNL     1      54.995 246.860 323.604  0.00  0.00    +0.000 C 
ATOM     11  C   UNL     1      55.606 244.919 322.030  0.00  0.00    +0.000 C 
ENDBRANCH   1   9
TORSDOF 1
ENDMDL
MODEL 5
REMARK VINA RESULT:      -4.0      2.183      3.244
REMARK  Name = 326_Cuminaldehyde.pdb
REMARK  1 active torsions:
REMARK  status: ('A' for Active; 'I' for Inactive)
REMARK    1  A    between atoms: C_1  and  C_7
REMARK                            x       y       z     vdW  Elec       q    Type
REMARK                         _______ _______ _______ _____ _____    ______ ____
ROOT
ATOM      1  C   UNL     1      70.408 221.565 339.688  0.00  0.00    +0.000 C 
ATOM      2  C   UNL     1      69.796 220.324 339.884  0.00  0.00    +0.000 C 
ATOM      3  C   UNL     1      69.923 222.422 338.698  0.00  0.00    +0.000 C 
ATOM      4  C   UNL     1      68.708 219.946 339.098  0.00  0.00    +0.000 C 
ATOM      5  C   UNL     1      68.835 222.044 337.911  0.00  0.00    +0.000 C 
ATOM      6  C   UNL     1      68.230 220.805 338.113  0.00  0.00    +0.000 C 
ATOM      7  O   UNL     1      66.200 220.099 336.646  0.00  0.00    +0.000 OA
ATOM      8  C   UNL     1      67.118 220.419 337.309  0.00  0.00    +0.000 C 
ENDROOT
BRANCH   1   9
ATOM      9  C   UNL     1      71.547 221.961 340.511  0.00  0.00    +0.000 C 
ATOM     10  C   UNL     1      72.422 223.130 340.135  0.00  0.00    +0.000 C 
ATOM     11  C   UNL     1      71.900 221.219 341.776  0.00  0.00    +0.000 C 
ENDBRANCH   1   9
TORSDOF 1
ENDMDL
MODEL 6
REMARK VINA RESULT:      -4.0     31.086     32.507
REMARK  Name = 326_Cuminaldehyde.pdb
REMARK  1 active torsions:
REMARK  status: ('A' for Active; 'I' for Inactive)
REMARK    1  A    between atoms: C_1  and  C_7
REMARK                            x       y       z     vdW  Elec       q    Type
REMARK                         _______ _______ _______ _____ _____    ______ ____
ROOT
ATOM      1  C   UNL     1      54.146 245.473 324.627  0.00  0.00    +0.000 C 
ATOM      2  C   UNL     1      53.423 246.299 325.491  0.00  0.00    +0.000 C 
ATOM      3  C   UNL     1      54.178 244.096 324.859  0.00  0.00    +0.000 C 
ATOM      4  C   UNL     1      52.737 245.754 326.575  0.00  0.00    +0.000 C 
ATOM      5  C   UNL     1      53.494 243.549 325.944  0.00  0.00    +0.000 C 
ATOM      6  C   UNL     1      52.774 244.380 326.801  0.00  0.00    +0.000 C 
ATOM      7  O   UNL     1      51.496 243.361 328.825  0.00  0.00    +0.000 OA
ATOM      8  C   UNL     1      52.074 243.821 327.910  0.00  0.00    +0.000 C 
ENDROOT
BRANCH   1   9
ATOM      9  C   UNL     1      54.863 246.044 323.491  0.00  0.00    +0.000 C 
ATOM     10  C   UNL     1      55.304 247.487 323.483  0.00  0.00    +0.000 C 
ATOM     11  C   UNL     1      55.196 245.219 322.274  0.00  0.00    +0.000 C 
ENDBRANCH   1   9
TORSDOF 1
ENDMDL
MODEL 7
REMARK VINA RESULT:      -3.9     15.981     17.728
REMARK  Name = 326_Cuminaldehyde.pdb
REMARK  1 active torsions:
REMARK  status: ('A' for Active; 'I' for Inactive)
REMARK    1  A    between atoms: C_1  and  C_7
REMARK                            x       y       z     vdW  Elec       q    Type
REMARK                         _______ _______ _______ _____ _____    ______ ____
ROOT
ATOM      1  C   UNL     1      55.151 218.332 331.091  0.00  0.00    +0.000 C 
ATOM      2  C   UNL     1      56.225 217.518 331.458  0.00  0.00    +0.000 C 
ATOM      3  C   UNL     1      54.461 219.046 332.074  0.00  0.00    +0.000 C 
ATOM      4  C   UNL     1      56.606 217.419 332.796  0.00  0.00    +0.000 C 
ATOM      5  C   UNL     1      54.841 218.947 333.411  0.00  0.00    +0.000 C 
ATOM      6  C   UNL     1      55.914 218.133 333.770  0.00  0.00    +0.000 C 
ATOM      7  O   UNL     1      56.624 217.949 336.267  0.00  0.00    +0.000 OA
ATOM      8  C   UNL     1      56.303 218.032 335.138  0.00  0.00    +0.000 C 
ENDROOT
BRANCH   1   9
ATOM      9  C   UNL     1      54.752 218.436 329.690  0.00  0.00    +0.000 C 
ATOM     10  C   UNL     1      55.718 218.133 328.572  0.00  0.00    +0.000 C 
ATOM     11  C   UNL     1      53.357 218.851 329.297  0.00  0.00    +0.000 C 
ENDBRANCH   1   9
TORSDOF 1
ENDMDL
MODEL 8
REMARK VINA RESULT:      -3.9     13.620     14.187
REMARK  Name = 326_Cuminaldehyde.pdb
REMARK  1 active torsions:
REMARK  status: ('A' for Active; 'I' for Inactive)
REMARK    1  A    between atoms: C_1  and  C_7
REMARK                            x       y       z     vdW  Elec       q    Type
REMARK                         _______ _______ _______ _____ _____    ______ ____
ROOT
ATOM      1  C   UNL     1      76.155 234.398 339.032  0.00  0.00    +0.000 C 
ATOM      2  C   UNL     1      76.518 234.517 337.688  0.00  0.00    +0.000 C 
ATOM      3  C   UNL     1      74.809 234.499 339.392  0.00  0.00    +0.000 C 
ATOM      4  C   UNL     1      75.545 234.732 336.714  0.00  0.00    +0.000 C 
ATOM      5  C   UNL     1      73.835 234.715 338.418  0.00  0.00    +0.000 C 
ATOM      6  C   UNL     1      74.205 234.832 337.080  0.00  0.00    +0.000 C 
ATOM      7  O   UNL     1      72.388 235.236 335.262  0.00  0.00    +0.000 OA
ATOM      8  C   UNL     1      73.209 235.053 336.084  0.00  0.00    +0.000 C 
ENDROOT
BRANCH   1   9
ATOM      9  C   UNL     1      77.174 234.171 340.052  0.00  0.00    +0.000 C 
ATOM     10  C   UNL     1      77.562 235.250 341.032  0.00  0.00    +0.000 C 
ATOM     11  C   UNL     1      77.886 232.847 340.173  0.00  0.00    +0.000 C 
ENDBRANCH   1   9
TORSDOF 1
ENDMDL
MODEL 9
REMARK VINA RESULT:      -3.9     32.401     33.711
REMARK  Name = 326_Cuminaldehyde.pdb
REMARK  1 active torsions:
REMARK  status: ('A' for Active; 'I' for Inactive)
REMARK    1  A    between atoms: C_1  and  C_7
REMARK                            x       y       z     vdW  Elec       q    Type
REMARK                         _______ _______ _______ _____ _____    ______ ____
ROOT
ATOM      1  C   UNL     1      55.933 247.093 322.873  0.00  0.00    +0.000 C 
ATOM      2  C   UNL     1      56.133 246.053 321.962  0.00  0.00    +0.000 C 
ATOM      3  C   UNL     1      54.953 246.963 323.860  0.00  0.00    +0.000 C 
ATOM      4  C   UNL     1      55.362 244.894 322.039  0.00  0.00    +0.000 C 
ATOM      5  C   UNL     1      54.181 245.805 323.937  0.00  0.00    +0.000 C 
ATOM      6  C   UNL     1      54.387 244.772 323.025  0.00  0.00    +0.000 C 
ATOM      7  O   UNL     1      52.947 242.609 323.168  0.00  0.00    +0.000 OA
ATOM      8  C   UNL     1      53.598 243.587 323.103  0.00  0.00    +0.000 C 
ENDROOT
BRANCH   1   9
ATOM      9  C   UNL     1      56.741 248.307 322.793  0.00  0.00    +0.000 C 
ATOM     10  C   UNL     1      57.815 248.470 321.747  0.00  0.00    +0.000 C 
ATOM     11  C   UNL     1      56.538 249.452 323.753  0.00  0.00    +0.000 C 
ENDBRANCH   1   9
TORSDOF 1
ENDMDL
