MODEL 1
REMARK VINA RESULT:      -4.6      0.000      0.000
REMARK  Name = 3363_5FluorouracilDeoxyriboside.pdbqt.pdb
REMARK  4 active torsions:
REMARK  status: ('A' for Active; 'I' for Inactive)
REMARK    1  A    between atoms: N_4  and  C1*_13
REMARK    2  A    between atoms: C3*_12  and  O3*_16
REMARK    3  A    between atoms: C4*_15  and  C5*_18
REMARK    4  A    between atoms: C5*_18  and  O5*_19
REMARK                            x       y       z     vdW  Elec       q    Type
REMARK                         _______ _______ _______ _____ _____    ______ ____
ROOT
ATOM      1  F   UNL     1      66.383 244.990 341.662  0.00  0.00    +0.000 F 
ATOM      2  O   UNL     1      62.049 242.292 339.805  0.00  0.00    +0.000 OA
ATOM      3  O   UNL     1      63.776 246.084 341.730  0.00  0.00    +0.000 OA
ATOM      4  N   UNL     1      64.406 242.474 339.976  0.00  0.00    +0.000 N 
ATOM      5  N   UNL     1      62.971 244.197 340.682  0.00  0.00    +0.000 N 
ATOM      6  C   UNL     1      63.065 242.905 340.111  0.00  0.00    +0.000 C 
ATOM      7  C   UNL     1      65.369 243.323 340.390  0.00  0.00    +0.000 C 
ATOM      8  C   UNL     1      65.381 244.502 340.913  0.00  0.00    +0.000 C 
ATOM      9  C   UNL     1      63.998 245.027 341.153  0.00  0.00    +0.000 C 
ATOM     10  H   UNL     1      62.030 244.531 340.836  0.00  0.00    +0.000 HD
ENDROOT
BRANCH   4  13
ATOM     11  O4* UNL     1      65.434 240.300 340.237  0.00  0.00    +0.000 OA
ATOM     12  C3* UNL     1      65.105 239.463 338.102  0.00  0.00    +0.000 A 
ATOM     13  C1* UNL     1      64.772 241.262 339.464  0.00  0.00    +0.000 A 
ATOM     14  C2* UNL     1      64.560 240.758 338.166  0.00  0.00    +0.000 A 
ATOM     15  C4* UNL     1      65.645 239.189 339.411  0.00  0.00    +0.000 A 
BRANCH  12  16
ATOM     16  O3* UNL     1      64.606 238.473 337.302  0.00  0.00    +0.000 OA
ATOM     17  H3* UNL     1      63.758 238.127 337.634  0.00  0.00    +0.000 HD
ENDBRANCH  12  16
BRANCH  15  18
ATOM     18  C5* UNL     1      66.111 237.956 339.906  0.00  0.00    +0.000 C 
BRANCH  18  19
ATOM     19  O5* UNL     1      66.571 236.798 340.369  0.00  0.00    +0.000 OA
ATOM     20  H5* UNL     1      66.964 236.273 339.650  0.00  0.00    +0.000 HD
ENDBRANCH  18  19
ENDBRANCH  15  18
ENDBRANCH   4  13
TORSDOF 4
ENDMDL
MODEL 2
REMARK VINA RESULT:      -4.6     14.312     15.841
REMARK  Name = 3363_5FluorouracilDeoxyriboside.pdbqt.pdb
REMARK  4 active torsions:
REMARK  status: ('A' for Active; 'I' for Inactive)
REMARK    1  A    between atoms: N_4  and  C1*_13
REMARK    2  A    between atoms: C3*_12  and  O3*_16
REMARK    3  A    between atoms: C4*_15  and  C5*_18
REMARK    4  A    between atoms: C5*_18  and  O5*_19
REMARK                            x       y       z     vdW  Elec       q    Type
REMARK                         _______ _______ _______ _____ _____    ______ ____
ROOT
ATOM      1  F   UNL     1      50.371 241.391 352.183  0.00  0.00    +0.000 F 
ATOM      2  O   UNL     1      51.735 237.790 348.351  0.00  0.00    +0.000 OA
ATOM      3  O   UNL     1      48.744 239.166 351.548  0.00  0.00    +0.000 OA
ATOM      4  N   UNL     1      52.111 239.886 349.392  0.00  0.00    +0.000 N 
ATOM      5  N   UNL     1      50.231 238.567 349.895  0.00  0.00    +0.000 N 
ATOM      6  C   UNL     1      51.416 238.682 349.128  0.00  0.00    +0.000 C 
ATOM      7  C   UNL     1      51.568 240.723 350.300  0.00  0.00    +0.000 C 
ATOM      8  C   UNL     1      50.509 240.704 351.036  0.00  0.00    +0.000 C 
ATOM      9  C   UNL     1      49.729 239.436 350.873  0.00  0.00    +0.000 C 
ATOM     10  H   UNL     1      49.722 237.704 349.770  0.00  0.00    +0.000 HD
ENDROOT
BRANCH   4  13
ATOM     11  O4* UNL     1      53.340 241.182 347.760  0.00  0.00    +0.000 OA
ATOM     12  C3* UNL     1      55.483 240.421 348.207  0.00  0.00    +0.000 A 
ATOM     13  C1* UNL     1      53.287 240.237 348.793  0.00  0.00    +0.000 A 
ATOM     14  C2* UNL     1      54.587 239.776 349.077  0.00  0.00    +0.000 A 
ATOM     15  C4* UNL     1      54.685 241.304 347.391  0.00  0.00    +0.000 A 
BRANCH  12  16
ATOM     16  O3* UNL     1      56.777 240.712 348.536  0.00  0.00    +0.000 OA
ATOM     17  H3* UNL     1      56.898 240.810 349.498  0.00  0.00    +0.000 HD
ENDBRANCH  12  16
BRANCH  15  18
ATOM     18  C5* UNL     1      55.140 242.308 346.514  0.00  0.00    +0.000 C 
BRANCH  18  19
ATOM     19  O5* UNL     1      55.585 243.243 345.681  0.00  0.00    +0.000 OA
ATOM     20  H5* UNL     1      54.854 243.607 345.152  0.00  0.00    +0.000 HD
ENDBRANCH  18  19
ENDBRANCH  15  18
ENDBRANCH   4  13
TORSDOF 4
ENDMDL
MODEL 3
REMARK VINA RESULT:      -4.3      4.997      6.289
REMARK  Name = 3363_5FluorouracilDeoxyriboside.pdbqt.pdb
REMARK  4 active torsions:
REMARK  status: ('A' for Active; 'I' for Inactive)
REMARK    1  A    between atoms: N_4  and  C1*_13
REMARK    2  A    between atoms: C3*_12  and  O3*_16
REMARK    3  A    between atoms: C4*_15  and  C5*_18
REMARK    4  A    between atoms: C5*_18  and  O5*_19
REMARK                            x       y       z     vdW  Elec       q    Type
REMARK                         _______ _______ _______ _____ _____    ______ ____
ROOT
ATOM      1  F   UNL     1      69.760 238.403 343.018  0.00  0.00    +0.000 F 
ATOM      2  O   UNL     1      65.285 235.704 341.536  0.00  0.00    +0.000 OA
ATOM      3  O   UNL     1      68.357 236.706 344.795  0.00  0.00    +0.000 OA
ATOM      4  N   UNL     1      66.893 237.381 341.066  0.00  0.00    +0.000 N 
ATOM      5  N   UNL     1      66.793 236.304 343.153  0.00  0.00    +0.000 N 
ATOM      6  C   UNL     1      66.231 236.412 341.858  0.00  0.00    +0.000 C 
ATOM      7  C   UNL     1      67.922 238.041 341.634  0.00  0.00    +0.000 C 
ATOM      8  C   UNL     1      68.495 238.013 342.789  0.00  0.00    +0.000 C 
ATOM      9  C   UNL     1      67.903 236.971 343.689  0.00  0.00    +0.000 C 
ATOM     10  H   UNL     1      66.378 235.596 343.742  0.00  0.00    +0.000 HD
ENDROOT
BRANCH   4  13
ATOM     11  O4* UNL     1      67.231 237.107 338.686  0.00  0.00    +0.000 OA
ATOM     12  C3* UNL     1      65.558 238.504 337.900  0.00  0.00    +0.000 A 
ATOM     13  C1* UNL     1      66.555 237.673 339.775  0.00  0.00    +0.000 A 
ATOM     14  C2* UNL     1      65.530 238.517 339.306  0.00  0.00    +0.000 A 
ATOM     15  C4* UNL     1      66.627 237.610 337.527  0.00  0.00    +0.000 A 
BRANCH  12  16
ATOM     16  O3* UNL     1      64.446 238.667 337.122  0.00  0.00    +0.000 OA
ATOM     17  H3* UNL     1      63.969 237.829 336.983  0.00  0.00    +0.000 HD
ENDBRANCH  12  16
BRANCH  15  18
ATOM     18  C5* UNL     1      66.919 237.108 336.244  0.00  0.00    +0.000 C 
BRANCH  18  19
ATOM     19  O5* UNL     1      67.174 236.628 335.032  0.00  0.00    +0.000 OA
ATOM     20  H5* UNL     1      66.520 235.951 334.785  0.00  0.00    +0.000 HD
ENDBRANCH  18  19
ENDBRANCH  15  18
ENDBRANCH   4  13
TORSDOF 4
ENDMDL
MODEL 4
REMARK VINA RESULT:      -4.3     13.038     14.791
REMARK  Name = 3363_5FluorouracilDeoxyriboside.pdbqt.pdb
REMARK  4 active torsions:
REMARK  status: ('A' for Active; 'I' for Inactive)
REMARK    1  A    between atoms: N_4  and  C1*_13
REMARK    2  A    between atoms: C3*_12  and  O3*_16
REMARK    3  A    between atoms: C4*_15  and  C5*_18
REMARK    4  A    between atoms: C5*_18  and  O5*_19
REMARK                            x       y       z     vdW  Elec       q    Type
REMARK                         _______ _______ _______ _____ _____    ______ ____
ROOT
ATOM      1  F   UNL     1      54.546 241.282 352.609  0.00  0.00    +0.000 F 
ATOM      2  O   UNL     1      53.110 238.459 348.195  0.00  0.00    +0.000 OA
ATOM      3  O   UNL     1      53.405 238.698 352.769  0.00  0.00    +0.000 OA
ATOM      4  N   UNL     1      53.787 240.518 349.157  0.00  0.00    +0.000 N 
ATOM      5  N   UNL     1      53.197 238.663 350.476  0.00  0.00    +0.000 N 
ATOM      6  C   UNL     1      53.347 239.172 349.163  0.00  0.00    +0.000 C 
ATOM      7  C   UNL     1      53.991 241.103 350.354  0.00  0.00    +0.000 C 
ATOM      8  C   UNL     1      53.881 240.726 351.583  0.00  0.00    +0.000 C 
ATOM      9  C   UNL     1      53.474 239.289 351.699  0.00  0.00    +0.000 C 
ATOM     10  H   UNL     1      52.923 237.693 350.530  0.00  0.00    +0.000 HD
ENDROOT
BRANCH   4  13
ATOM     11  O4* UNL     1      53.001 241.949 347.371  0.00  0.00    +0.000 OA
ATOM     12  C3* UNL     1      54.991 242.250 346.222  0.00  0.00    +0.000 A 
ATOM     13  C1* UNL     1      54.020 241.240 348.021  0.00  0.00    +0.000 A 
ATOM     14  C2* UNL     1      55.235 241.425 347.334  0.00  0.00    +0.000 A 
ATOM     15  C4* UNL     1      53.586 242.574 346.263  0.00  0.00    +0.000 A 
BRANCH  12  16
ATOM     16  O3* UNL     1      55.918 243.110 345.703  0.00  0.00    +0.000 OA
ATOM     17  H3* UNL     1      56.330 242.760 344.893  0.00  0.00    +0.000 HD
ENDBRANCH  12  16
BRANCH  15  18
ATOM     18  C5* UNL     1      52.902 243.531 345.487  0.00  0.00    +0.000 C 
BRANCH  18  19
ATOM     19  O5* UNL     1      52.276 244.438 344.746  0.00  0.00    +0.000 OA
ATOM     20  H5* UNL     1      52.884 245.155 344.493  0.00  0.00    +0.000 HD
ENDBRANCH  18  19
ENDBRANCH  15  18
ENDBRANCH   4  13
TORSDOF 4
ENDMDL
MODEL 5
REMARK VINA RESULT:      -4.2     20.313     21.759
REMARK  Name = 3363_5FluorouracilDeoxyriboside.pdbqt.pdb
REMARK  4 active torsions:
REMARK  status: ('A' for Active; 'I' for Inactive)
REMARK    1  A    between atoms: N_4  and  C1*_13
REMARK    2  A    between atoms: C3*_12  and  O3*_16
REMARK    3  A    between atoms: C4*_15  and  C5*_18
REMARK    4  A    between atoms: C5*_18  and  O5*_19
REMARK                            x       y       z     vdW  Elec       q    Type
REMARK                         _______ _______ _______ _____ _____    ______ ____
ROOT
ATOM      1  F   UNL     1      62.209 226.482 321.502  0.00  0.00    +0.000 F 
ATOM      2  O   UNL     1      62.583 228.880 326.362  0.00  0.00    +0.000 OA
ATOM      3  O   UNL     1      62.141 229.293 321.813  0.00  0.00    +0.000 OA
ATOM      4  N   UNL     1      62.278 226.900 325.093  0.00  0.00    +0.000 N 
ATOM      5  N   UNL     1      62.275 229.030 324.097  0.00  0.00    +0.000 N 
ATOM      6  C   UNL     1      62.394 228.295 325.302  0.00  0.00    +0.000 C 
ATOM      7  C   UNL     1      62.077 226.482 323.827  0.00  0.00    +0.000 C 
ATOM      8  C   UNL     1      61.955 227.067 322.684  0.00  0.00    +0.000 C 
ATOM      9  C   UNL     1      62.122 228.552 322.788  0.00  0.00    +0.000 C 
ATOM     10  H   UNL     1      62.391 230.029 324.190  0.00  0.00    +0.000 HD
ENDROOT
BRANCH   4  13
ATOM     11  O4* UNL     1      61.272 225.182 326.468  0.00  0.00    +0.000 OA
ATOM     12  C3* UNL     1      63.106 224.607 327.762  0.00  0.00    +0.000 A 
ATOM     13  C1* UNL     1      62.367 225.969 326.089  0.00  0.00    +0.000 A 
ATOM     14  C2* UNL     1      63.489 225.620 326.865  0.00  0.00    +0.000 A 
ATOM     15  C4* UNL     1      61.714 224.340 327.496  0.00  0.00    +0.000 A 
BRANCH  12  16
ATOM     16  O3* UNL     1      63.957 223.635 328.211  0.00  0.00    +0.000 OA
ATOM     17  H3* UNL     1      64.794 223.622 327.713  0.00  0.00    +0.000 HD
ENDBRANCH  12  16
BRANCH  15  18
ATOM     18  C5* UNL     1      60.934 223.275 327.989  0.00  0.00    +0.000 C 
BRANCH  18  19
ATOM     19  O5* UNL     1      60.200 222.262 328.435  0.00  0.00    +0.000 OA
ATOM     20  H5* UNL     1      60.759 221.486 328.614  0.00  0.00    +0.000 HD
ENDBRANCH  18  19
ENDBRANCH  15  18
ENDBRANCH   4  13
TORSDOF 4
ENDMDL
MODEL 6
REMARK VINA RESULT:      -4.1      6.338      7.376
REMARK  Name = 3363_5FluorouracilDeoxyriboside.pdbqt.pdb
REMARK  4 active torsions:
REMARK  status: ('A' for Active; 'I' for Inactive)
REMARK    1  A    between atoms: N_4  and  C1*_13
REMARK    2  A    between atoms: C3*_12  and  O3*_16
REMARK    3  A    between atoms: C4*_15  and  C5*_18
REMARK    4  A    between atoms: C5*_18  and  O5*_19
REMARK                            x       y       z     vdW  Elec       q    Type
REMARK                         _______ _______ _______ _____ _____    ______ ____
ROOT
ATOM      1  F   UNL     1      67.100 245.681 332.207  0.00  0.00    +0.000 F 
ATOM      2  O   UNL     1      63.874 241.336 332.685  0.00  0.00    +0.000 OA
ATOM      3  O   UNL     1      64.654 245.449 330.805  0.00  0.00    +0.000 OA
ATOM      4  N   UNL     1      65.976 242.357 333.084  0.00  0.00    +0.000 N 
ATOM      5  N   UNL     1      64.352 243.352 331.706  0.00  0.00    +0.000 N 
ATOM      6  C   UNL     1      64.681 242.244 332.525  0.00  0.00    +0.000 C 
ATOM      7  C   UNL     1      66.688 243.459 332.769  0.00  0.00    +0.000 C 
ATOM      8  C   UNL     1      66.476 244.503 332.042  0.00  0.00    +0.000 C 
ATOM      9  C   UNL     1      65.100 244.508 331.448  0.00  0.00    +0.000 C 
ATOM     10  H   UNL     1      63.420 243.334 331.316  0.00  0.00    +0.000 HD
ENDROOT
BRANCH   4  13
ATOM     11  O4* UNL     1      67.182 240.288 333.431  0.00  0.00    +0.000 OA
ATOM     12  C3* UNL     1      67.258 240.276 335.747  0.00  0.00    +0.000 A 
ATOM     13  C1* UNL     1      66.532 241.429 333.919  0.00  0.00    +0.000 A 
ATOM     14  C2* UNL     1      66.581 241.434 335.326  0.00  0.00    +0.000 A 
ATOM     15  C4* UNL     1      67.633 239.571 334.545  0.00  0.00    +0.000 A 
BRANCH  12  16
ATOM     16  O3* UNL     1      68.008 240.213 336.888  0.00  0.00    +0.000 OA
ATOM     17  H3* UNL     1      67.854 240.978 337.471  0.00  0.00    +0.000 HD
ENDBRANCH  12  16
BRANCH  15  18
ATOM     18  C5* UNL     1      68.501 238.467 334.433  0.00  0.00    +0.000 C 
BRANCH  18  19
ATOM     19  O5* UNL     1      69.311 237.421 334.309  0.00  0.00    +0.000 OA
ATOM     20  H5* UNL     1      70.094 237.524 334.877  0.00  0.00    +0.000 HD
ENDBRANCH  18  19
ENDBRANCH  15  18
ENDBRANCH   4  13
TORSDOF 4
ENDMDL
MODEL 7
REMARK VINA RESULT:      -4.1     19.865     21.659
REMARK  Name = 3363_5FluorouracilDeoxyriboside.pdbqt.pdb
REMARK  4 active torsions:
REMARK  status: ('A' for Active; 'I' for Inactive)
REMARK    1  A    between atoms: N_4  and  C1*_13
REMARK    2  A    between atoms: C3*_12  and  O3*_16
REMARK    3  A    between atoms: C4*_15  and  C5*_18
REMARK    4  A    between atoms: C5*_18  and  O5*_19
REMARK                            x       y       z     vdW  Elec       q    Type
REMARK                         _______ _______ _______ _____ _____    ______ ____
ROOT
ATOM      1  F   UNL     1      73.974 220.549 339.790  0.00  0.00    +0.000 F 
ATOM      2  O   UNL     1      69.581 223.736 339.558  0.00  0.00    +0.000 OA
ATOM      3  O   UNL     1      74.102 223.339 340.242  0.00  0.00    +0.000 OA
ATOM      4  N   UNL     1      70.585 221.630 339.139  0.00  0.00    +0.000 N 
ATOM      5  N   UNL     1      71.847 223.499 339.803  0.00  0.00    +0.000 N 
ATOM      6  C   UNL     1      70.558 223.000 339.494  0.00  0.00    +0.000 C 
ATOM      7  C   UNL     1      71.786 221.017 339.143  0.00  0.00    +0.000 C 
ATOM      8  C   UNL     1      72.995 221.384 339.405  0.00  0.00    +0.000 C 
ATOM      9  C   UNL     1      73.068 222.813 339.851  0.00  0.00    +0.000 C 
ATOM     10  H   UNL     1      71.872 224.464 340.102  0.00  0.00    +0.000 HD
ENDROOT
BRANCH   4  13
ATOM     11  O4* UNL     1      69.014 219.850 339.604  0.00  0.00    +0.000 OA
ATOM     12  C3* UNL     1      67.612 220.092 337.775  0.00  0.00    +0.000 A 
ATOM     13  C1* UNL     1      69.476 220.905 338.807  0.00  0.00    +0.000 A 
ATOM     14  C2* UNL     1      68.625 221.065 337.697  0.00  0.00    +0.000 A 
ATOM     15  C4* UNL     1      67.868 219.342 338.980  0.00  0.00    +0.000 A 
BRANCH  12  16
ATOM     16  O3* UNL     1      66.347 220.280 337.294  0.00  0.00    +0.000 OA
ATOM     17  H3* UNL     1      66.135 221.223 337.177  0.00  0.00    +0.000 HD
ENDBRANCH  12  16
BRANCH  15  18
ATOM     18  C5* UNL     1      67.024 218.400 339.601  0.00  0.00    +0.000 C 
BRANCH  18  19
ATOM     19  O5* UNL     1      66.231 217.521 340.204  0.00  0.00    +0.000 OA
ATOM     20  H5* UNL     1      65.296 217.760 340.081  0.00  0.00    +0.000 HD
ENDBRANCH  18  19
ENDBRANCH  15  18
ENDBRANCH   4  13
TORSDOF 4
ENDMDL
MODEL 8
REMARK VINA RESULT:      -4.1     19.872     21.757
REMARK  Name = 3363_5FluorouracilDeoxyriboside.pdbqt.pdb
REMARK  4 active torsions:
REMARK  status: ('A' for Active; 'I' for Inactive)
REMARK    1  A    between atoms: N_4  and  C1*_13
REMARK    2  A    between atoms: C3*_12  and  O3*_16
REMARK    3  A    between atoms: C4*_15  and  C5*_18
REMARK    4  A    between atoms: C5*_18  and  O5*_19
REMARK                            x       y       z     vdW  Elec       q    Type
REMARK                         _______ _______ _______ _____ _____    ______ ____
ROOT
ATOM      1  F   UNL     1      73.299 220.422 338.388  0.00  0.00    +0.000 F 
ATOM      2  O   UNL     1      68.912 223.624 338.275  0.00  0.00    +0.000 OA
ATOM      3  O   UNL     1      73.481 223.230 338.093  0.00  0.00    +0.000 OA
ATOM      4  N   UNL     1      69.835 221.441 338.198  0.00  0.00    +0.000 N 
ATOM      5  N   UNL     1      71.182 223.366 338.101  0.00  0.00    +0.000 N 
ATOM      6  C   UNL     1      69.864 222.856 338.197  0.00  0.00    +0.000 C 
ATOM      7  C   UNL     1      71.018 220.802 338.109  0.00  0.00    +0.000 C 
ATOM      8  C   UNL     1      72.250 221.174 338.017  0.00  0.00    +0.000 C 
ATOM      9  C   UNL     1      72.395 222.665 338.067  0.00  0.00    +0.000 C 
ATOM     10  H   UNL     1      71.256 224.372 338.137  0.00  0.00    +0.000 HD
ENDROOT
BRANCH   4  13
ATOM     11  O4* UNL     1      67.739 220.672 337.264  0.00  0.00    +0.000 OA
ATOM     12  C3* UNL     1      67.030 219.305 338.996  0.00  0.00    +0.000 A 
ATOM     13  C1* UNL     1      68.690 220.701 338.293  0.00  0.00    +0.000 A 
ATOM     14  C2* UNL     1      68.271 219.866 339.346  0.00  0.00    +0.000 A 
ATOM     15  C4* UNL     1      66.713 219.817 337.685  0.00  0.00    +0.000 A 
BRANCH  12  16
ATOM     16  O3* UNL     1      66.616 218.071 339.410  0.00  0.00    +0.000 OA
ATOM     17  H3* UNL     1      65.655 217.951 339.305  0.00  0.00    +0.000 HD
ENDBRANCH  12  16
BRANCH  15  18
ATOM     18  C5* UNL     1      65.681 219.395 336.824  0.00  0.00    +0.000 C 
BRANCH  18  19
ATOM     19  O5* UNL     1      64.707 219.015 336.004  0.00  0.00    +0.000 OA
ATOM     20  H5* UNL     1      65.073 218.562 335.224  0.00  0.00    +0.000 HD
ENDBRANCH  18  19
ENDBRANCH  15  18
ENDBRANCH   4  13
TORSDOF 4
ENDMDL
MODEL 9
REMARK VINA RESULT:      -4.0     27.080     28.934
REMARK  Name = 3363_5FluorouracilDeoxyriboside.pdbqt.pdb
REMARK  4 active torsions:
REMARK  status: ('A' for Active; 'I' for Inactive)
REMARK    1  A    between atoms: N_4  and  C1*_13
REMARK    2  A    between atoms: C3*_12  and  O3*_16
REMARK    3  A    between atoms: C4*_15  and  C5*_18
REMARK    4  A    between atoms: C5*_18  and  O5*_19
REMARK                            x       y       z     vdW  Elec       q    Type
REMARK                         _______ _______ _______ _____ _____    ______ ____
ROOT
ATOM      1  F   UNL     1      63.059 215.937 352.194  0.00  0.00    +0.000 F 
ATOM      2  O   UNL     1      58.952 214.266 349.055  0.00  0.00    +0.000 OA
ATOM      3  O   UNL     1      63.292 213.725 350.446  0.00  0.00    +0.000 OA
ATOM      4  N   UNL     1      59.717 215.612 350.851  0.00  0.00    +0.000 N 
ATOM      5  N   UNL     1      61.084 213.983 349.847  0.00  0.00    +0.000 N 
ATOM      6  C   UNL     1      59.813 214.609 349.857  0.00  0.00    +0.000 C 
ATOM      7  C   UNL     1      60.805 215.822 351.620  0.00  0.00    +0.000 C 
ATOM      8  C   UNL     1      61.987 215.308 351.685  0.00  0.00    +0.000 C 
ATOM      9  C   UNL     1      62.211 214.270 350.628  0.00  0.00    +0.000 C 
ATOM     10  H   UNL     1      61.213 213.287 349.126  0.00  0.00    +0.000 HD
ENDROOT
BRANCH   4  13
ATOM     11  O4* UNL     1      58.071 217.202 350.067  0.00  0.00    +0.000 OA
ATOM     12  C3* UNL     1      56.765 217.369 351.974  0.00  0.00    +0.000 A 
ATOM     13  C1* UNL     1      58.603 216.373 351.063  0.00  0.00    +0.000 A 
ATOM     14  C2* UNL     1      57.810 216.462 352.223  0.00  0.00    +0.000 A 
ATOM     15  C4* UNL     1      56.940 217.820 350.615  0.00  0.00    +0.000 A 
BRANCH  12  16
ATOM     16  O3* UNL     1      55.530 217.275 352.553  0.00  0.00    +0.000 OA
ATOM     17  H3* UNL     1      54.878 216.860 351.960  0.00  0.00    +0.000 HD
ENDBRANCH  12  16
BRANCH  15  18
ATOM     18  C5* UNL     1      56.039 218.574 349.838  0.00  0.00    +0.000 C 
BRANCH  18  19
ATOM     19  O5* UNL     1      55.173 219.277 349.116  0.00  0.00    +0.000 OA
ATOM     20  H5* UNL     1      54.938 218.800 348.301  0.00  0.00    +0.000 HD
ENDBRANCH  18  19
ENDBRANCH  15  18
ENDBRANCH   4  13
TORSDOF 4
ENDMDL
