MODEL 1
REMARK VINA RESULT:      -4.1      0.000      0.000
REMARK  Name = 3385_5Fluorouracil.pdbqt.pdb
REMARK  0 active torsions:
REMARK  status: ('A' for Active; 'I' for Inactive)
REMARK                            x       y       z     vdW  Elec       q    Type
REMARK                         _______ _______ _______ _____ _____    ______ ____
ROOT
ATOM      1  F   UNL     1      54.229 244.026 324.803  0.00  0.00    +0.000 F 
ATOM      2  O   UNL     1      53.846 243.523 327.564  0.00  0.00    +0.000 OA
ATOM      3  O   UNL     1      50.161 240.917 326.608  0.00  0.00    +0.000 OA
ATOM      4  N   UNL     1      51.968 242.281 327.084  0.00  0.00    +0.000 N 
ATOM      5  N   UNL     1      51.204 242.062 324.903  0.00  0.00    +0.000 N 
ATOM      6  C   UNL     1      53.027 243.134 326.740  0.00  0.00    +0.000 C 
ATOM      7  C   UNL     1      51.031 241.688 326.227  0.00  0.00    +0.000 C 
ATOM      8  C   UNL     1      53.085 243.516 325.288  0.00  0.00    +0.000 C 
ATOM      9  C   UNL     1      52.191 242.911 324.581  0.00  0.00    +0.000 C 
ATOM     10  H   UNL     1      51.910 242.014 328.055  0.00  0.00    +0.000 HD
ATOM     11  H   UNL     1      50.580 241.682 324.202  0.00  0.00    +0.000 HD
ENDROOT
TORSDOF 0
ENDMDL
MODEL 2
REMARK VINA RESULT:      -3.7     21.888     22.394
REMARK  Name = 3385_5Fluorouracil.pdbqt.pdb
REMARK  0 active torsions:
REMARK  status: ('A' for Active; 'I' for Inactive)
REMARK                            x       y       z     vdW  Elec       q    Type
REMARK                         _______ _______ _______ _____ _____    ______ ____
ROOT
ATOM      1  F   UNL     1      55.511 241.684 346.950  0.00  0.00    +0.000 F 
ATOM      2  O   UNL     1      56.267 239.779 348.905  0.00  0.00    +0.000 OA
ATOM      3  O   UNL     1      52.038 237.941 348.792  0.00  0.00    +0.000 OA
ATOM      4  N   UNL     1      54.135 238.912 348.893  0.00  0.00    +0.000 N 
ATOM      5  N   UNL     1      52.467 239.854 347.583  0.00  0.00    +0.000 N 
ATOM      6  C   UNL     1      55.104 239.856 348.527  0.00  0.00    +0.000 C 
ATOM      7  C   UNL     1      52.807 238.828 348.452  0.00  0.00    +0.000 C 
ATOM      8  C   UNL     1      54.610 240.952 347.626  0.00  0.00    +0.000 C 
ATOM      9  C   UNL     1      53.382 240.781 347.266  0.00  0.00    +0.000 C 
ATOM     10  H   UNL     1      54.446 238.167 349.500  0.00  0.00    +0.000 HD
ATOM     11  H   UNL     1      51.529 239.881 347.202  0.00  0.00    +0.000 HD
ENDROOT
TORSDOF 0
ENDMDL
MODEL 3
REMARK VINA RESULT:      -3.6     18.806     18.856
REMARK  Name = 3385_5Fluorouracil.pdbqt.pdb
REMARK  0 active torsions:
REMARK  status: ('A' for Active; 'I' for Inactive)
REMARK                            x       y       z     vdW  Elec       q    Type
REMARK                         _______ _______ _______ _____ _____    ______ ____
ROOT
ATOM      1  F   UNL     1      63.945 228.531 323.458  0.00  0.00    +0.000 F 
ATOM      2  O   UNL     1      64.840 228.051 326.102  0.00  0.00    +0.000 OA
ATOM      3  O   UNL     1      61.313 225.162 326.802  0.00  0.00    +0.000 OA
ATOM      4  N   UNL     1      63.039 226.665 326.466  0.00  0.00    +0.000 N 
ATOM      5  N   UNL     1      61.422 226.349 324.831  0.00  0.00    +0.000 N 
ATOM      6  C   UNL     1      63.776 227.588 325.710  0.00  0.00    +0.000 C 
ATOM      7  C   UNL     1      61.870 225.987 326.093  0.00  0.00    +0.000 C 
ATOM      8  C   UNL     1      63.168 227.947 324.384  0.00  0.00    +0.000 C 
ATOM      9  C   UNL     1      62.104 227.263 324.126  0.00  0.00    +0.000 C 
ATOM     10  H   UNL     1      63.429 226.411 327.362  0.00  0.00    +0.000 HD
ATOM     11  H   UNL     1      60.586 225.912 324.466  0.00  0.00    +0.000 HD
ENDROOT
TORSDOF 0
ENDMDL
MODEL 4
REMARK VINA RESULT:      -3.5     18.971     19.213
REMARK  Name = 3385_5Fluorouracil.pdbqt.pdb
REMARK  0 active torsions:
REMARK  status: ('A' for Active; 'I' for Inactive)
REMARK                            x       y       z     vdW  Elec       q    Type
REMARK                         _______ _______ _______ _____ _____    ______ ____
ROOT
ATOM      1  F   UNL     1      63.471 224.879 324.032  0.00  0.00    +0.000 F 
ATOM      2  O   UNL     1      61.034 225.619 325.272  0.00  0.00    +0.000 OA
ATOM      3  O   UNL     1      62.943 229.552 326.742  0.00  0.00    +0.000 OA
ATOM      4  N   UNL     1      62.014 227.547 326.061  0.00  0.00    +0.000 N 
ATOM      5  N   UNL     1      64.260 227.990 325.679  0.00  0.00    +0.000 N 
ATOM      6  C   UNL     1      62.043 226.297 325.426  0.00  0.00    +0.000 C 
ATOM      7  C   UNL     1      63.068 228.459 326.210  0.00  0.00    +0.000 C 
ATOM      8  C   UNL     1      63.398 225.867 324.939  0.00  0.00    +0.000 C 
ATOM      9  C   UNL     1      64.297 226.777 325.110  0.00  0.00    +0.000 C 
ATOM     10  H   UNL     1      61.113 227.854 326.397  0.00  0.00    +0.000 HD
ATOM     11  H   UNL     1      65.083 228.578 325.731  0.00  0.00    +0.000 HD
ENDROOT
TORSDOF 0
ENDMDL
MODEL 5
REMARK VINA RESULT:      -3.4      2.979      3.489
REMARK  Name = 3385_5Fluorouracil.pdbqt.pdb
REMARK  0 active torsions:
REMARK  status: ('A' for Active; 'I' for Inactive)
REMARK                            x       y       z     vdW  Elec       q    Type
REMARK                         _______ _______ _______ _____ _____    ______ ____
ROOT
ATOM      1  F   UNL     1      53.262 246.143 326.605  0.00  0.00    +0.000 F 
ATOM      2  O   UNL     1      53.726 243.422 327.242  0.00  0.00    +0.000 OA
ATOM      3  O   UNL     1      50.046 243.416 330.024  0.00  0.00    +0.000 OA
ATOM      4  N   UNL     1      51.930 243.447 328.681  0.00  0.00    +0.000 N 
ATOM      5  N   UNL     1      50.722 245.394 329.055  0.00  0.00    +0.000 N 
ATOM      6  C   UNL     1      52.852 244.058 327.820  0.00  0.00    +0.000 C 
ATOM      7  C   UNL     1      50.829 244.036 329.319  0.00  0.00    +0.000 C 
ATOM      8  C   UNL     1      52.673 245.540 327.651  0.00  0.00    +0.000 C 
ATOM      9  C   UNL     1      51.630 245.986 328.265  0.00  0.00    +0.000 C 
ATOM     10  H   UNL     1      52.033 242.451 328.810  0.00  0.00    +0.000 HD
ATOM     11  H   UNL     1      49.956 245.912 329.465  0.00  0.00    +0.000 HD
ENDROOT
TORSDOF 0
ENDMDL
MODEL 6
REMARK VINA RESULT:      -3.4     22.398     23.303
REMARK  Name = 3385_5Fluorouracil.pdbqt.pdb
REMARK  0 active torsions:
REMARK  status: ('A' for Active; 'I' for Inactive)
REMARK                            x       y       z     vdW  Elec       q    Type
REMARK                         _______ _______ _______ _____ _____    ______ ____
ROOT
ATOM      1  F   UNL     1      51.287 238.092 349.209  0.00  0.00    +0.000 F 
ATOM      2  O   UNL     1      52.167 239.304 346.805  0.00  0.00    +0.000 OA
ATOM      3  O   UNL     1      56.346 239.976 348.639  0.00  0.00    +0.000 OA
ATOM      4  N   UNL     1      54.228 239.698 347.751  0.00  0.00    +0.000 N 
ATOM      5  N   UNL     1      54.657 239.135 349.961  0.00  0.00    +0.000 N 
ATOM      6  C   UNL     1      52.887 239.289 347.796  0.00  0.00    +0.000 C 
ATOM      7  C   UNL     1      55.180 239.635 348.778  0.00  0.00    +0.000 C 
ATOM      8  C   UNL     1      52.415 238.817 349.142  0.00  0.00    +0.000 C 
ATOM      9  C   UNL     1      53.365 238.784 350.016  0.00  0.00    +0.000 C 
ATOM     10  H   UNL     1      54.565 240.020 346.856  0.00  0.00    +0.000 HD
ATOM     11  H   UNL     1      55.267 239.044 350.764  0.00  0.00    +0.000 HD
ENDROOT
TORSDOF 0
ENDMDL
MODEL 7
REMARK VINA RESULT:      -3.3     20.373     21.201
REMARK  Name = 3385_5Fluorouracil.pdbqt.pdb
REMARK  0 active torsions:
REMARK  status: ('A' for Active; 'I' for Inactive)
REMARK                            x       y       z     vdW  Elec       q    Type
REMARK                         _______ _______ _______ _____ _____    ______ ____
ROOT
ATOM      1  F   UNL     1      55.746 243.501 346.927  0.00  0.00    +0.000 F 
ATOM      2  O   UNL     1      53.528 242.876 345.280  0.00  0.00    +0.000 OA
ATOM      3  O   UNL     1      52.866 238.951 347.610  0.00  0.00    +0.000 OA
ATOM      4  N   UNL     1      53.247 240.887 346.403  0.00  0.00    +0.000 N 
ATOM      5  N   UNL     1      54.712 240.245 348.085  0.00  0.00    +0.000 N 
ATOM      6  C   UNL     1      53.940 242.068 346.104  0.00  0.00    +0.000 C 
ATOM      7  C   UNL     1      53.553 239.937 347.387  0.00  0.00    +0.000 C 
ATOM      8  C   UNL     1      55.209 242.271 346.882  0.00  0.00    +0.000 C 
ATOM      9  C   UNL     1      55.397 241.353 347.770  0.00  0.00    +0.000 C 
ATOM     10  H   UNL     1      52.392 240.731 345.890  0.00  0.00    +0.000 HD
ATOM     11  H   UNL     1      55.017 239.623 348.823  0.00  0.00    +0.000 HD
ENDROOT
TORSDOF 0
ENDMDL
MODEL 8
REMARK VINA RESULT:      -3.2      2.333      2.790
REMARK  Name = 3385_5Fluorouracil.pdbqt.pdb
REMARK  0 active torsions:
REMARK  status: ('A' for Active; 'I' for Inactive)
REMARK                            x       y       z     vdW  Elec       q    Type
REMARK                         _______ _______ _______ _____ _____    ______ ____
ROOT
ATOM      1  F   UNL     1      54.138 246.156 324.735  0.00  0.00    +0.000 F 
ATOM      2  O   UNL     1      52.167 246.817 326.659  0.00  0.00    +0.000 OA
ATOM      3  O   UNL     1      52.505 242.600 328.498  0.00  0.00    +0.000 OA
ATOM      4  N   UNL     1      52.291 244.689 327.527  0.00  0.00    +0.000 N 
ATOM      5  N   UNL     1      53.673 243.086 326.573  0.00  0.00    +0.000 N 
ATOM      6  C   UNL     1      52.601 245.674 326.578  0.00  0.00    +0.000 C 
ATOM      7  C   UNL     1      52.798 243.384 327.607  0.00  0.00    +0.000 C 
ATOM      8  C   UNL     1      53.514 245.223 325.474  0.00  0.00    +0.000 C 
ATOM      9  C   UNL     1      53.936 244.015 325.642  0.00  0.00    +0.000 C 
ATOM     10  H   UNL     1      51.677 244.971 328.277  0.00  0.00    +0.000 HD
ATOM     11  H   UNL     1      54.099 242.169 326.543  0.00  0.00    +0.000 HD
ENDROOT
TORSDOF 0
ENDMDL
MODEL 9
REMARK VINA RESULT:      -3.1      5.480      6.174
REMARK  Name = 3385_5Fluorouracil.pdbqt.pdb
REMARK  0 active torsions:
REMARK  status: ('A' for Active; 'I' for Inactive)
REMARK                            x       y       z     vdW  Elec       q    Type
REMARK                         _______ _______ _______ _____ _____    ______ ____
ROOT
ATOM      1  F   UNL     1      48.020 241.203 327.137  0.00  0.00    +0.000 F 
ATOM      2  O   UNL     1      45.986 239.361 326.437  0.00  0.00    +0.000 OA
ATOM      3  O   UNL     1      49.169 236.351 324.993  0.00  0.00    +0.000 OA
ATOM      4  N   UNL     1      47.576 237.893 325.654  0.00  0.00    +0.000 N 
ATOM      5  N   UNL     1      49.828 238.457 325.653  0.00  0.00    +0.000 N 
ATOM      6  C   UNL     1      47.157 239.132 326.160  0.00  0.00    +0.000 C 
ATOM      7  C   UNL     1      48.888 237.471 325.395  0.00  0.00    +0.000 C 
ATOM      8  C   UNL     1      48.254 240.141 326.349  0.00  0.00    +0.000 C 
ATOM      9  C   UNL     1      49.423 239.655 326.097  0.00  0.00    +0.000 C 
ATOM     10  H   UNL     1      46.855 237.201 325.518  0.00  0.00    +0.000 HD
ATOM     11  H   UNL     1      50.807 238.249 325.503  0.00  0.00    +0.000 HD
ENDROOT
TORSDOF 0
ENDMDL
