MODEL 1
REMARK VINA RESULT:      -6.1      0.000      0.000
REMARK  Name = 342374_SipholenolA.pdbqt.pdb
REMARK  5 active torsions:
REMARK  status: ('A' for Active; 'I' for Inactive)
REMARK    1  A    between atoms: C_3  and  C_20
REMARK    2  A    between atoms: C_4  and  O_16
REMARK    3  A    between atoms: C_13  and  O_18
REMARK    4  A    between atoms: C_21  and  C_25
REMARK    5  A    between atoms: C_26  and  O_36
REMARK                            x       y       z     vdW  Elec       q    Type
REMARK                         _______ _______ _______ _____ _____    ______ ____
ROOT
ATOM      1  O   UNL     1      74.587 221.558 339.968  0.00  0.00    +0.000 OA
ATOM      2  C   UNL     1      75.392 222.215 342.364  0.00  0.00    +0.000 C 
ATOM      3  C   UNL     1      75.811 223.396 343.245  0.00  0.00    +0.000 C 
ATOM      4  C   UNL     1      76.722 224.473 342.682  0.00  0.00    +0.000 C 
ATOM      5  C   UNL     1      75.165 222.509 340.816  0.00  0.00    +0.000 C 
ATOM      6  C   UNL     1      74.063 221.727 342.763  0.00  0.00    +0.000 C 
ATOM      7  C   UNL     1      76.668 224.423 341.235  0.00  0.00    +0.000 C 
ATOM      8  C   UNL     1      75.951 223.542 340.268  0.00  0.00    +0.000 C 
ATOM      9  C   UNL     1      76.446 221.081 342.482  0.00  0.00    +0.000 C 
ATOM     10  C   UNL     1      72.762 221.236 342.177  0.00  0.00    +0.000 C 
ATOM     11  C   UNL     1      73.150 221.632 339.688  0.00  0.00    +0.000 C 
ATOM     12  C   UNL     1      76.328 225.860 343.212  0.00  0.00    +0.000 C 
ATOM     13  C   UNL     1      72.283 221.080 340.858  0.00  0.00    +0.000 C 
ATOM     14  C   UNL     1      72.691 223.088 339.380  0.00  0.00    +0.000 C 
ATOM     15  C   UNL     1      72.878 220.729 338.449  0.00  0.00    +0.000 C 
ENDROOT
BRANCH   4  16
ATOM     16  O   UNL     1      78.041 224.259 343.119  0.00  0.00    +0.000 OA
ATOM     17  H   UNL     1      77.911 224.171 344.081  0.00  0.00    +0.000 HD
ENDBRANCH   4  16
BRANCH  13  18
ATOM     18  O   UNL     1      71.069 220.431 340.655  0.00  0.00    +0.000 OA
ATOM     19  H   UNL     1      70.936 219.709 341.304  0.00  0.00    +0.000 HD
ENDBRANCH  13  18
BRANCH   3  20
ATOM     20  C   UNL     1      75.540 223.361 344.659  0.00  0.00    +0.000 C 
ATOM     21  C   UNL     1      75.244 223.308 346.161  0.00  0.00    +0.000 C 
BRANCH  21  25
ATOM     22  C   UNL     1      72.586 222.588 348.471  0.00  0.00    +0.000 C 
ATOM     23  C   UNL     1      74.053 222.163 348.186  0.00  0.00    +0.000 C 
ATOM     24  C   UNL     1      72.169 223.717 349.368  0.00  0.00    +0.000 C 
ATOM     25  C   UNL     1      74.962 223.251 347.567  0.00  0.00    +0.000 C 
ATOM     26  C   UNL     1      70.701 223.644 349.774  0.00  0.00    +0.000 C 
ATOM     27  C   UNL     1      71.416 221.793 348.284  0.00  0.00    +0.000 C 
ATOM     28  C   UNL     1      70.303 222.429 349.071  0.00  0.00    +0.000 C 
ATOM     29  C   UNL     1      73.141 224.686 349.676  0.00  0.00    +0.000 C 
ATOM     30  C   UNL     1      75.433 224.358 348.400  0.00  0.00    +0.000 C 
ATOM     31  C   UNL     1      74.011 220.933 347.204  0.00  0.00    +0.000 C 
ATOM     32  C   UNL     1      74.679 221.640 349.524  0.00  0.00    +0.000 C 
ATOM     33  C   UNL     1      74.558 224.873 349.205  0.00  0.00    +0.000 C 
ATOM     34  C   UNL     1      69.929 224.900 349.394  0.00  0.00    +0.000 C 
ATOM     35  C   UNL     1      76.645 225.193 348.080  0.00  0.00    +0.000 C 
BRANCH  26  36
ATOM     36  O   UNL     1      70.586 223.486 351.164  0.00  0.00    +0.000 OA
ATOM     37  H   UNL     1      70.891 222.568 351.271  0.00  0.00    +0.000 HD
ENDBRANCH  26  36
ENDBRANCH  21  25
ENDBRANCH   3  20
TORSDOF 5
ENDMDL
MODEL 2
REMARK VINA RESULT:      -5.9      5.467     11.965
REMARK  Name = 342374_SipholenolA.pdbqt.pdb
REMARK  5 active torsions:
REMARK  status: ('A' for Active; 'I' for Inactive)
REMARK    1  A    between atoms: C_3  and  C_20
REMARK    2  A    between atoms: C_4  and  O_16
REMARK    3  A    between atoms: C_13  and  O_18
REMARK    4  A    between atoms: C_21  and  C_25
REMARK    5  A    between atoms: C_26  and  O_36
REMARK                            x       y       z     vdW  Elec       q    Type
REMARK                         _______ _______ _______ _____ _____    ______ ____
ROOT
ATOM      1  O   UNL     1      73.300 222.150 341.537  0.00  0.00    +0.000 OA
ATOM      2  C   UNL     1      71.553 221.955 339.605  0.00  0.00    +0.000 C 
ATOM      3  C   UNL     1      71.388 221.973 338.083  0.00  0.00    +0.000 C 
ATOM      4  C   UNL     1      72.134 223.005 337.254  0.00  0.00    +0.000 C 
ATOM      5  C   UNL     1      72.986 222.335 340.185  0.00  0.00    +0.000 C 
ATOM      6  C   UNL     1      71.387 220.586 340.119  0.00  0.00    +0.000 C 
ATOM      7  C   UNL     1      73.247 223.514 338.032  0.00  0.00    +0.000 C 
ATOM      8  C   UNL     1      73.735 223.246 339.415  0.00  0.00    +0.000 C 
ATOM      9  C   UNL     1      70.511 222.908 340.251  0.00  0.00    +0.000 C 
ATOM     10  C   UNL     1      71.975 219.624 341.122  0.00  0.00    +0.000 C 
ATOM     11  C   UNL     1      74.004 220.932 341.945  0.00  0.00    +0.000 C 
ATOM     12  C   UNL     1      72.608 222.404 335.922  0.00  0.00    +0.000 C 
ATOM     13  C   UNL     1      73.061 219.694 342.022  0.00  0.00    +0.000 C 
ATOM     14  C   UNL     1      75.185 220.592 340.989  0.00  0.00    +0.000 C 
ATOM     15  C   UNL     1      74.552 221.180 343.381  0.00  0.00    +0.000 C 
ENDROOT
BRANCH   4  16
ATOM     16  O   UNL     1      71.269 224.058 336.911  0.00  0.00    +0.000 OA
ATOM     17  H   UNL     1      71.158 224.501 337.771  0.00  0.00    +0.000 HD
ENDBRANCH   4  16
BRANCH  13  18
ATOM     18  O   UNL     1      73.239 218.668 342.945  0.00  0.00    +0.000 OA
ATOM     19  H   UNL     1      74.091 218.205 342.805  0.00  0.00    +0.000 HD
ENDBRANCH  13  18
BRANCH   3  20
ATOM     20  C   UNL     1      70.356 221.179 337.468  0.00  0.00    +0.000 C 
ATOM     21  C   UNL     1      69.266 220.320 336.820  0.00  0.00    +0.000 C 
BRANCH  21  25
ATOM     22  C   UNL     1      67.957 219.381 333.607  0.00  0.00    +0.000 C 
ATOM     23  C   UNL     1      68.491 218.718 334.906  0.00  0.00    +0.000 C 
ATOM     24  C   UNL     1      66.525 219.749 333.346  0.00  0.00    +0.000 C 
ATOM     25  C   UNL     1      68.250 219.507 336.215  0.00  0.00    +0.000 C 
ATOM     26  C   UNL     1      66.234 219.997 331.870  0.00  0.00    +0.000 C 
ATOM     27  C   UNL     1      68.596 219.395 332.331  0.00  0.00    +0.000 C 
ATOM     28  C   UNL     1      67.557 219.755 331.305  0.00  0.00    +0.000 C 
ATOM     29  C   UNL     1      65.675 219.854 334.462  0.00  0.00    +0.000 C 
ATOM     30  C   UNL     1      66.903 219.566 336.785  0.00  0.00    +0.000 C 
ATOM     31  C   UNL     1      70.042 218.507 334.732  0.00  0.00    +0.000 C 
ATOM     32  C   UNL     1      67.860 217.288 335.019  0.00  0.00    +0.000 C 
ATOM     33  C   UNL     1      65.938 219.743 335.940  0.00  0.00    +0.000 C 
ATOM     34  C   UNL     1      65.658 221.383 331.616  0.00  0.00    +0.000 C 
ATOM     35  C   UNL     1      66.616 219.881 338.229  0.00  0.00    +0.000 C 
BRANCH  26  36
ATOM     36  O   UNL     1      65.301 219.063 331.393  0.00  0.00    +0.000 OA
ATOM     37  H   UNL     1      65.029 219.484 330.558  0.00  0.00    +0.000 HD
ENDBRANCH  26  36
ENDBRANCH  21  25
ENDBRANCH   3  20
TORSDOF 5
ENDMDL
MODEL 3
REMARK VINA RESULT:      -5.8     22.793     26.906
REMARK  Name = 342374_SipholenolA.pdbqt.pdb
REMARK  5 active torsions:
REMARK  status: ('A' for Active; 'I' for Inactive)
REMARK    1  A    between atoms: C_3  and  C_20
REMARK    2  A    between atoms: C_4  and  O_16
REMARK    3  A    between atoms: C_13  and  O_18
REMARK    4  A    between atoms: C_21  and  C_25
REMARK    5  A    between atoms: C_26  and  O_36
REMARK                            x       y       z     vdW  Elec       q    Type
REMARK                         _______ _______ _______ _____ _____    ______ ____
ROOT
ATOM      1  O   UNL     1      46.160 219.704 334.128  0.00  0.00    +0.000 OA
ATOM      2  C   UNL     1      48.349 218.280 334.111  0.00  0.00    +0.000 C 
ATOM      3  C   UNL     1      49.008 217.035 333.511  0.00  0.00    +0.000 C 
ATOM      4  C   UNL     1      48.213 215.747 333.381  0.00  0.00    +0.000 C 
ATOM      5  C   UNL     1      46.803 218.504 333.804  0.00  0.00    +0.000 C 
ATOM      6  C   UNL     1      48.938 219.498 333.533  0.00  0.00    +0.000 C 
ATOM      7  C   UNL     1      46.799 216.062 333.437  0.00  0.00    +0.000 C 
ATOM      8  C   UNL     1      46.042 217.334 333.619  0.00  0.00    +0.000 C 
ATOM      9  C   UNL     1      48.530 218.269 335.654  0.00  0.00    +0.000 C 
ATOM     10  C   UNL     1      48.554 220.863 333.015  0.00  0.00    +0.000 C 
ATOM     11  C   UNL     1      46.008 220.732 333.095  0.00  0.00    +0.000 C 
ATOM     12  C   UNL     1      48.573 215.006 332.085  0.00  0.00    +0.000 C 
ATOM     13  C   UNL     1      47.323 221.533 332.851  0.00  0.00    +0.000 C 
ATOM     14  C   UNL     1      45.539 220.131 331.738  0.00  0.00    +0.000 C 
ATOM     15  C   UNL     1      44.944 221.745 333.611  0.00  0.00    +0.000 C 
ENDROOT
BRANCH   4  16
ATOM     16  O   UNL     1      48.550 214.871 334.427  0.00  0.00    +0.000 OA
ATOM     17  H   UNL     1      49.519 214.832 334.338  0.00  0.00    +0.000 HD
ENDBRANCH   4  16
BRANCH  13  18
ATOM     18  O   UNL     1      47.329 222.877 332.492  0.00  0.00    +0.000 OA
ATOM     19  H   UNL     1      46.926 223.014 331.609  0.00  0.00    +0.000 HD
ENDBRANCH  13  18
BRANCH   3  20
ATOM     20  C   UNL     1      50.432 217.018 333.293  0.00  0.00    +0.000 C 
ATOM     21  C   UNL     1      51.947 217.015 333.065  0.00  0.00    +0.000 C 
BRANCH  21  25
ATOM     22  C   UNL     1      55.050 216.399 334.769  0.00  0.00    +0.000 C 
ATOM     23  C   UNL     1      54.303 215.963 333.480  0.00  0.00    +0.000 C 
ATOM     24  C   UNL     1      55.987 217.567 334.876  0.00  0.00    +0.000 C 
ATOM     25  C   UNL     1      53.366 217.022 332.852  0.00  0.00    +0.000 C 
ATOM     26  C   UNL     1      56.869 217.511 336.117  0.00  0.00    +0.000 C 
ATOM     27  C   UNL     1      55.305 215.595 335.921  0.00  0.00    +0.000 C 
ATOM     28  C   UNL     1      56.396 216.266 336.710  0.00  0.00    +0.000 C 
ATOM     29  C   UNL     1      55.905 218.550 333.873  0.00  0.00    +0.000 C 
ATOM     30  C   UNL     1      53.942 218.166 332.144  0.00  0.00    +0.000 C 
ATOM     31  C   UNL     1      53.445 214.689 333.832  0.00  0.00    +0.000 C 
ATOM     32  C   UNL     1      55.369 215.501 332.429  0.00  0.00    +0.000 C 
ATOM     33  C   UNL     1      54.973 218.716 332.702  0.00  0.00    +0.000 C 
ATOM     34  C   UNL     1      56.722 218.748 336.992  0.00  0.00    +0.000 C 
ATOM     35  C   UNL     1      53.194 218.986 331.126  0.00  0.00    +0.000 C 
BRANCH  26  36
ATOM     36  O   UNL     1      58.221 217.416 335.752  0.00  0.00    +0.000 OA
ATOM     37  H   UNL     1      58.587 218.204 336.191  0.00  0.00    +0.000 HD
ENDBRANCH  26  36
ENDBRANCH  21  25
ENDBRANCH   3  20
TORSDOF 5
ENDMDL
MODEL 4
REMARK VINA RESULT:      -5.8     20.963     25.315
REMARK  Name = 342374_SipholenolA.pdbqt.pdb
REMARK  5 active torsions:
REMARK  status: ('A' for Active; 'I' for Inactive)
REMARK    1  A    between atoms: C_3  and  C_20
REMARK    2  A    between atoms: C_4  and  O_16
REMARK    3  A    between atoms: C_13  and  O_18
REMARK    4  A    between atoms: C_21  and  C_25
REMARK    5  A    between atoms: C_26  and  O_36
REMARK                            x       y       z     vdW  Elec       q    Type
REMARK                         _______ _______ _______ _____ _____    ______ ____
ROOT
ATOM      1  O   UNL     1      61.646 229.063 320.148  0.00  0.00    +0.000 OA
ATOM      2  C   UNL     1      61.675 227.140 321.914  0.00  0.00    +0.000 C 
ATOM      3  C   UNL     1      61.910 226.827 323.395  0.00  0.00    +0.000 C 
ATOM      4  C   UNL     1      63.075 227.468 324.128  0.00  0.00    +0.000 C 
ATOM      5  C   UNL     1      62.015 228.615 321.422  0.00  0.00    +0.000 C 
ATOM      6  C   UNL     1      60.242 227.051 321.595  0.00  0.00    +0.000 C 
ATOM      7  C   UNL     1      63.502 228.642 323.392  0.00  0.00    +0.000 C 
ATOM      8  C   UNL     1      63.053 229.268 322.115  0.00  0.00    +0.000 C 
ATOM      9  C   UNL     1      62.490 226.148 321.040  0.00  0.00    +0.000 C 
ATOM     10  C   UNL     1      59.165 227.753 320.805  0.00  0.00    +0.000 C 
ATOM     11  C   UNL     1      60.406 229.827 319.992  0.00  0.00    +0.000 C 
ATOM     12  C   UNL     1      62.690 227.821 325.573  0.00  0.00    +0.000 C 
ATOM     13  C   UNL     1      59.139 228.920 320.011  0.00  0.00    +0.000 C 
ATOM     14  C   UNL     1      60.248 230.915 321.094  0.00  0.00    +0.000 C 
ATOM     15  C   UNL     1      60.461 230.508 318.593  0.00  0.00    +0.000 C 
ENDROOT
BRANCH   4  16
ATOM     16  O   UNL     1      64.137 226.554 324.229  0.00  0.00    +0.000 OA
ATOM     17  H   UNL     1      63.689 225.783 324.620  0.00  0.00    +0.000 HD
ENDBRANCH   4  16
BRANCH  13  18
ATOM     18  O   UNL     1      57.996 229.206 319.271  0.00  0.00    +0.000 OA
ATOM     19  H   UNL     1      57.813 228.506 318.610  0.00  0.00    +0.000 HD
ENDBRANCH  13  18
BRANCH   3  20
ATOM     20  C   UNL     1      61.179 225.755 324.021  0.00  0.00    +0.000 C 
ATOM     21  C   UNL     1      60.408 224.619 324.701  0.00  0.00    +0.000 C 
BRANCH  21  25
ATOM     22  C   UNL     1      60.760 222.155 327.293  0.00  0.00    +0.000 C 
ATOM     23  C   UNL     1      59.793 223.293 326.867  0.00  0.00    +0.000 C 
ATOM     24  C   UNL     1      60.658 220.721 326.858  0.00  0.00    +0.000 C 
ATOM     25  C   UNL     1      59.690 223.558 325.346  0.00  0.00    +0.000 C 
ATOM     26  C   UNL     1      61.470 219.774 327.733  0.00  0.00    +0.000 C 
ATOM     27  C   UNL     1      61.628 222.151 328.426  0.00  0.00    +0.000 C 
ATOM     28  C   UNL     1      62.037 220.727 328.681  0.00  0.00    +0.000 C 
ATOM     29  C   UNL     1      59.885 220.451 325.714  0.00  0.00    +0.000 C 
ATOM     30  C   UNL     1      58.967 222.611 324.496  0.00  0.00    +0.000 C 
ATOM     31  C   UNL     1      60.276 224.617 327.570  0.00  0.00    +0.000 C 
ATOM     32  C   UNL     1      58.375 222.974 327.452  0.00  0.00    +0.000 C 
ATOM     33  C   UNL     1      59.170 221.356 324.747  0.00  0.00    +0.000 C 
ATOM     34  C   UNL     1      62.484 218.968 326.933  0.00  0.00    +0.000 C 
ATOM     35  C   UNL     1      58.406 222.957 323.143  0.00  0.00    +0.000 C 
BRANCH  26  36
ATOM     36  O   UNL     1      60.624 218.859 328.379  0.00  0.00    +0.000 OA
ATOM     37  H   UNL     1      61.229 218.486 329.044  0.00  0.00    +0.000 HD
ENDBRANCH  26  36
ENDBRANCH  21  25
ENDBRANCH   3  20
TORSDOF 5
ENDMDL
MODEL 5
REMARK VINA RESULT:      -5.4      7.089     11.726
REMARK  Name = 342374_SipholenolA.pdbqt.pdb
REMARK  5 active torsions:
REMARK  status: ('A' for Active; 'I' for Inactive)
REMARK    1  A    between atoms: C_3  and  C_20
REMARK    2  A    between atoms: C_4  and  O_16
REMARK    3  A    between atoms: C_13  and  O_18
REMARK    4  A    between atoms: C_21  and  C_25
REMARK    5  A    between atoms: C_26  and  O_36
REMARK                            x       y       z     vdW  Elec       q    Type
REMARK                         _______ _______ _______ _____ _____    ______ ____
ROOT
ATOM      1  O   UNL     1      68.011 216.738 332.328  0.00  0.00    +0.000 OA
ATOM      2  C   UNL     1      68.012 218.630 334.128  0.00  0.00    +0.000 C 
ATOM      3  C   UNL     1      67.280 219.159 335.365  0.00  0.00    +0.000 C 
ATOM      4  C   UNL     1      65.762 219.186 335.390  0.00  0.00    +0.000 C 
ATOM      5  C   UNL     1      67.332 217.426 333.340  0.00  0.00    +0.000 C 
ATOM      6  C   UNL     1      69.300 218.032 334.515  0.00  0.00    +0.000 C 
ATOM      7  C   UNL     1      65.260 218.265 334.389  0.00  0.00    +0.000 C 
ATOM      8  C   UNL     1      65.925 217.382 333.388  0.00  0.00    +0.000 C 
ATOM      9  C   UNL     1      68.233 219.792 333.121  0.00  0.00    +0.000 C 
ATOM     10  C   UNL     1      70.185 216.846 334.218  0.00  0.00    +0.000 C 
ATOM     11  C   UNL     1      68.699 215.486 332.655  0.00  0.00    +0.000 C 
ATOM     12  C   UNL     1      65.227 218.841 336.788  0.00  0.00    +0.000 C 
ATOM     13  C   UNL     1      70.061 215.722 333.374  0.00  0.00    +0.000 C 
ATOM     14  C   UNL     1      67.826 214.557 333.549  0.00  0.00    +0.000 C 
ATOM     15  C   UNL     1      69.009 214.769 331.308  0.00  0.00    +0.000 C 
ENDROOT
BRANCH   4  16
ATOM     16  O   UNL     1      65.303 220.486 335.117  0.00  0.00    +0.000 OA
ATOM     17  H   UNL     1      64.811 220.690 335.933  0.00  0.00    +0.000 HD
ENDBRANCH   4  16
BRANCH  13  18
ATOM     18  O   UNL     1      71.156 214.880 333.207  0.00  0.00    +0.000 OA
ATOM     19  H   UNL     1      70.923 214.092 332.673  0.00  0.00    +0.000 HD
ENDBRANCH  13  18
BRANCH   3  20
ATOM     20  C   UNL     1      68.021 219.842 336.394  0.00  0.00    +0.000 C 
ATOM     21  C   UNL     1      68.811 220.553 337.497  0.00  0.00    +0.000 C 
BRANCH  21  25
ATOM     22  C   UNL     1      71.706 222.621 338.010  0.00  0.00    +0.000 C 
ATOM     23  C   UNL     1      70.188 222.609 338.339  0.00  0.00    +0.000 C 
ATOM     24  C   UNL     1      72.786 222.039 338.876  0.00  0.00    +0.000 C 
ATOM     25  C   UNL     1      69.551 221.212 338.535  0.00  0.00    +0.000 C 
ATOM     26  C   UNL     1      74.177 222.547 338.514  0.00  0.00    +0.000 C 
ATOM     27  C   UNL     1      72.373 223.486 337.093  0.00  0.00    +0.000 C 
ATOM     28  C   UNL     1      73.843 223.438 337.409  0.00  0.00    +0.000 C 
ATOM     29  C   UNL     1      72.394 221.103 339.850  0.00  0.00    +0.000 C 
ATOM     30  C   UNL     1      69.832 220.455 339.755  0.00  0.00    +0.000 C 
ATOM     31  C   UNL     1      69.438 223.335 337.160  0.00  0.00    +0.000 C 
ATOM     32  C   UNL     1      69.958 223.486 339.617  0.00  0.00    +0.000 C 
ATOM     33  C   UNL     1      71.061 220.477 340.165  0.00  0.00    +0.000 C 
ATOM     34  C   UNL     1      75.138 221.416 338.174  0.00  0.00    +0.000 C 
ATOM     35  C   UNL     1      68.957 219.347 340.276  0.00  0.00    +0.000 C 
BRANCH  26  36
ATOM     36  O   UNL     1      74.732 223.258 339.589  0.00  0.00    +0.000 OA
ATOM     37  H   UNL     1      75.515 223.653 339.164  0.00  0.00    +0.000 HD
ENDBRANCH  26  36
ENDBRANCH  21  25
ENDBRANCH   3  20
TORSDOF 5
ENDMDL
MODEL 6
REMARK VINA RESULT:      -5.3     28.542     33.741
REMARK  Name = 342374_SipholenolA.pdbqt.pdb
REMARK  5 active torsions:
REMARK  status: ('A' for Active; 'I' for Inactive)
REMARK    1  A    between atoms: C_3  and  C_20
REMARK    2  A    between atoms: C_4  and  O_16
REMARK    3  A    between atoms: C_13  and  O_18
REMARK    4  A    between atoms: C_21  and  C_25
REMARK    5  A    between atoms: C_26  and  O_36
REMARK                            x       y       z     vdW  Elec       q    Type
REMARK                         _______ _______ _______ _____ _____    ______ ____
ROOT
ATOM      1  O   UNL     1      59.433 228.094 318.751  0.00  0.00    +0.000 OA
ATOM      2  C   UNL     1      57.899 229.925 317.695  0.00  0.00    +0.000 C 
ATOM      3  C   UNL     1      56.479 230.500 317.699  0.00  0.00    +0.000 C 
ATOM      4  C   UNL     1      55.285 229.562 317.718  0.00  0.00    +0.000 C 
ATOM      5  C   UNL     1      58.143 228.585 318.520  0.00  0.00    +0.000 C 
ATOM      6  C   UNL     1      58.825 230.850 318.367  0.00  0.00    +0.000 C 
ATOM      7  C   UNL     1      55.717 228.262 318.195  0.00  0.00    +0.000 C 
ATOM      8  C   UNL     1      57.040 227.714 318.610  0.00  0.00    +0.000 C 
ATOM      9  C   UNL     1      58.351 229.671 316.231  0.00  0.00    +0.000 C 
ATOM     10  C   UNL     1      59.989 230.863 319.327  0.00  0.00    +0.000 C 
ATOM     11  C   UNL     1      60.100 228.411 320.016  0.00  0.00    +0.000 C 
ATOM     12  C   UNL     1      54.152 230.130 318.586  0.00  0.00    +0.000 C 
ATOM     13  C   UNL     1      60.675 229.859 320.043  0.00  0.00    +0.000 C 
ATOM     14  C   UNL     1      59.149 228.236 321.236  0.00  0.00    +0.000 C 
ATOM     15  C   UNL     1      61.307 227.436 320.153  0.00  0.00    +0.000 C 
ENDROOT
BRANCH   4  16
ATOM     16  O   UNL     1      54.751 229.443 316.423  0.00  0.00    +0.000 OA
ATOM     17  H   UNL     1      53.870 229.841 316.544  0.00  0.00    +0.000 HD
ENDBRANCH   4  16
BRANCH  13  18
ATOM     18  O   UNL     1      61.837 230.195 320.731  0.00  0.00    +0.000 OA
ATOM     19  H   UNL     1      62.637 229.923 320.235  0.00  0.00    +0.000 HD
ENDBRANCH  13  18
BRANCH   3  20
ATOM     20  C   UNL     1      56.278 231.903 317.447  0.00  0.00    +0.000 C 
ATOM     21  C   UNL     1      56.068 233.399 317.195  0.00  0.00    +0.000 C 
BRANCH  21  25
ATOM     22  C   UNL     1      57.878 236.499 317.010  0.00  0.00    +0.000 C 
ATOM     23  C   UNL     1      56.880 235.660 316.166  0.00  0.00    +0.000 C 
ATOM     24  C   UNL     1      57.498 237.546 318.016  0.00  0.00    +0.000 C 
ATOM     25  C   UNL     1      55.872 234.803 316.968  0.00  0.00    +0.000 C 
ATOM     26  C   UNL     1      58.655 238.469 318.380  0.00  0.00    +0.000 C 
ATOM     27  C   UNL     1      59.258 236.724 316.723  0.00  0.00    +0.000 C 
ATOM     28  C   UNL     1      59.705 237.905 317.541  0.00  0.00    +0.000 C 
ATOM     29  C   UNL     1      56.180 237.515 318.508  0.00  0.00    +0.000 C 
ATOM     30  C   UNL     1      54.758 235.455 317.658  0.00  0.00    +0.000 C 
ATOM     31  C   UNL     1      57.722 234.702 315.243  0.00  0.00    +0.000 C 
ATOM     32  C   UNL     1      56.111 236.634 315.209  0.00  0.00    +0.000 C 
ATOM     33  C   UNL     1      55.043 236.556 318.278  0.00  0.00    +0.000 C 
ATOM     34  C   UNL     1      58.946 238.476 319.874  0.00  0.00    +0.000 C 
ATOM     35  C   UNL     1      53.493 234.747 318.065  0.00  0.00    +0.000 C 
BRANCH  26  36
ATOM     36  O   UNL     1      58.361 239.790 318.006  0.00  0.00    +0.000 OA
ATOM     37  H   UNL     1      59.031 239.939 317.315  0.00  0.00    +0.000 HD
ENDBRANCH  26  36
ENDBRANCH  21  25
ENDBRANCH   3  20
TORSDOF 5
ENDMDL
MODEL 7
REMARK VINA RESULT:      -5.3     29.680     34.035
REMARK  Name = 342374_SipholenolA.pdbqt.pdb
REMARK  5 active torsions:
REMARK  status: ('A' for Active; 'I' for Inactive)
REMARK    1  A    between atoms: C_3  and  C_20
REMARK    2  A    between atoms: C_4  and  O_16
REMARK    3  A    between atoms: C_13  and  O_18
REMARK    4  A    between atoms: C_21  and  C_25
REMARK    5  A    between atoms: C_26  and  O_36
REMARK                            x       y       z     vdW  Elec       q    Type
REMARK                         _______ _______ _______ _____ _____    ______ ____
ROOT
ATOM      1  O   UNL     1      45.560 234.188 348.196  0.00  0.00    +0.000 OA
ATOM      2  C   UNL     1      44.747 236.155 346.684  0.00  0.00    +0.000 C 
ATOM      3  C   UNL     1      45.194 237.163 345.621  0.00  0.00    +0.000 C 
ATOM      4  C   UNL     1      46.526 237.878 345.772  0.00  0.00    +0.000 C 
ATOM      5  C   UNL     1      45.879 235.272 347.371  0.00  0.00    +0.000 C 
ATOM      6  C   UNL     1      43.900 235.117 346.076  0.00  0.00    +0.000 C 
ATOM      7  C   UNL     1      47.361 237.125 346.687  0.00  0.00    +0.000 C 
ATOM      8  C   UNL     1      47.146 235.879 347.477  0.00  0.00    +0.000 C 
ATOM      9  C   UNL     1      43.974 236.897 347.809  0.00  0.00    +0.000 C 
ATOM     10  C   UNL     1      43.656 233.628 346.106  0.00  0.00    +0.000 C 
ATOM     11  C   UNL     1      45.545 232.838 347.625  0.00  0.00    +0.000 C 
ATOM     12  C   UNL     1      47.211 238.060 344.409  0.00  0.00    +0.000 C 
ATOM     13  C   UNL     1      44.257 232.554 346.796  0.00  0.00    +0.000 C 
ATOM     14  C   UNL     1      46.782 232.576 346.716  0.00  0.00    +0.000 C 
ATOM     15  C   UNL     1      45.554 231.837 348.817  0.00  0.00    +0.000 C 
ENDROOT
BRANCH   4  16
ATOM     16  O   UNL     1      46.318 239.175 346.270  0.00  0.00    +0.000 OA
ATOM     17  H   UNL     1      46.851 239.705 345.651  0.00  0.00    +0.000 HD
ENDBRANCH   4  16
BRANCH  13  18
ATOM     18  O   UNL     1      43.673 231.293 346.722  0.00  0.00    +0.000 OA
ATOM     19  H   UNL     1      44.331 230.584 346.882  0.00  0.00    +0.000 HD
ENDBRANCH  13  18
BRANCH   3  20
ATOM     20  C   UNL     1      44.259 237.605 344.619  0.00  0.00    +0.000 C 
ATOM     21  C   UNL     1      43.278 238.082 343.545  0.00  0.00    +0.000 C 
BRANCH  21  25
ATOM     22  C   UNL     1      41.603 236.974 340.564  0.00  0.00    +0.000 C 
ATOM     23  C   UNL     1      41.270 237.620 341.937  0.00  0.00    +0.000 C 
ATOM     24  C   UNL     1      41.927 237.728 339.307  0.00  0.00    +0.000 C 
ATOM     25  C   UNL     1      42.364 238.535 342.535  0.00  0.00    +0.000 C 
ATOM     26  C   UNL     1      41.808 236.871 338.052  0.00  0.00    +0.000 C 
ATOM     27  C   UNL     1      41.285 235.648 340.145  0.00  0.00    +0.000 C 
ATOM     28  C   UNL     1      41.404 235.603 338.646  0.00  0.00    +0.000 C 
ATOM     29  C   UNL     1      42.325 239.070 339.447  0.00  0.00    +0.000 C 
ATOM     30  C   UNL     1      42.593 239.860 341.956  0.00  0.00    +0.000 C 
ATOM     31  C   UNL     1      40.987 236.453 342.957  0.00  0.00    +0.000 C 
ATOM     32  C   UNL     1      39.927 238.415 341.790  0.00  0.00    +0.000 C 
ATOM     33  C   UNL     1      42.577 239.922 340.662  0.00  0.00    +0.000 C 
ATOM     34  C   UNL     1      43.101 236.834 337.248  0.00  0.00    +0.000 C 
ATOM     35  C   UNL     1      43.262 240.992 342.688  0.00  0.00    +0.000 C 
BRANCH  26  36
ATOM     36  O   UNL     1      40.807 237.377 337.208  0.00  0.00    +0.000 OA
ATOM     37  H   UNL     1      40.371 236.554 336.924  0.00  0.00    +0.000 HD
ENDBRANCH  26  36
ENDBRANCH  21  25
ENDBRANCH   3  20
TORSDOF 5
ENDMDL
MODEL 8
REMARK VINA RESULT:      -5.1     18.406     20.565
REMARK  Name = 342374_SipholenolA.pdbqt.pdb
REMARK  5 active torsions:
REMARK  status: ('A' for Active; 'I' for Inactive)
REMARK    1  A    between atoms: C_3  and  C_20
REMARK    2  A    between atoms: C_4  and  O_16
REMARK    3  A    between atoms: C_13  and  O_18
REMARK    4  A    between atoms: C_21  and  C_25
REMARK    5  A    between atoms: C_26  and  O_36
REMARK                            x       y       z     vdW  Elec       q    Type
REMARK                         _______ _______ _______ _____ _____    ______ ____
ROOT
ATOM      1  O   UNL     1      55.827 216.923 352.046  0.00  0.00    +0.000 OA
ATOM      2  C   UNL     1      55.823 219.232 353.267  0.00  0.00    +0.000 C 
ATOM      3  C   UNL     1      56.692 220.209 354.065  0.00  0.00    +0.000 C 
ATOM      4  C   UNL     1      57.628 219.683 355.140  0.00  0.00    +0.000 C 
ATOM      5  C   UNL     1      56.449 217.805 352.938  0.00  0.00    +0.000 C 
ATOM      6  C   UNL     1      55.575 219.757 351.915  0.00  0.00    +0.000 C 
ATOM      7  C   UNL     1      57.867 218.273 354.904  0.00  0.00    +0.000 C 
ATOM      8  C   UNL     1      57.366 217.308 353.883  0.00  0.00    +0.000 C 
ATOM      9  C   UNL     1      54.482 219.002 354.015  0.00  0.00    +0.000 C 
ATOM     10  C   UNL     1      55.505 219.317 350.473  0.00  0.00    +0.000 C 
ATOM     11  C   UNL     1      56.270 216.891 350.650  0.00  0.00    +0.000 C 
ATOM     12  C   UNL     1      58.941 220.479 355.164  0.00  0.00    +0.000 C 
ATOM     13  C   UNL     1      55.711 218.084 349.818  0.00  0.00    +0.000 C 
ATOM     14  C   UNL     1      57.822 216.892 350.531  0.00  0.00    +0.000 C 
ATOM     15  C   UNL     1      55.701 215.586 350.020  0.00  0.00    +0.000 C 
ENDROOT
BRANCH   4  16
ATOM     16  O   UNL     1      57.048 219.865 356.407  0.00  0.00    +0.000 OA
ATOM     17  H   UNL     1      57.537 219.209 356.936  0.00  0.00    +0.000 HD
ENDBRANCH   4  16
BRANCH  13  18
ATOM     18  O   UNL     1      55.398 217.978 348.467  0.00  0.00    +0.000 OA
ATOM     19  H   UNL     1      54.873 218.747 348.160  0.00  0.00    +0.000 HD
ENDBRANCH  13  18
BRANCH   3  20
ATOM     20  C   UNL     1      56.451 221.625 353.962  0.00  0.00    +0.000 C 
ATOM     21  C   UNL     1      56.210 223.133 353.850  0.00  0.00    +0.000 C 
BRANCH  21  25
ATOM     22  C   UNL     1      56.837 226.212 355.597  0.00  0.00    +0.000 C 
ATOM     23  C   UNL     1      57.054 225.583 354.194  0.00  0.00    +0.000 C 
ATOM     24  C   UNL     1      55.623 226.987 356.022  0.00  0.00    +0.000 C 
ATOM     25  C   UNL     1      55.994 224.548 353.746  0.00  0.00    +0.000 C 
ATOM     26  C   UNL     1      55.856 227.813 357.282  0.00  0.00    +0.000 C 
ATOM     27  C   UNL     1      57.844 226.515 356.561  0.00  0.00    +0.000 C 
ATOM     28  C   UNL     1      57.249 227.476 357.554  0.00  0.00    +0.000 C 
ATOM     29  C   UNL     1      54.456 226.825 355.254  0.00  0.00    +0.000 C 
ATOM     30  C   UNL     1      54.662 225.005 353.347  0.00  0.00    +0.000 C 
ATOM     31  C   UNL     1      58.463 224.880 354.198  0.00  0.00    +0.000 C 
ATOM     32  C   UNL     1      57.142 226.745 353.146  0.00  0.00    +0.000 C 
ATOM     33  C   UNL     1      54.138 225.933 354.084  0.00  0.00    +0.000 C 
ATOM     34  C   UNL     1      54.873 227.471 358.392  0.00  0.00    +0.000 C 
ATOM     35  C   UNL     1      53.725 224.206 352.482  0.00  0.00    +0.000 C 
BRANCH  26  36
ATOM     36  O   UNL     1      55.712 229.181 357.002  0.00  0.00    +0.000 OA
ATOM     37  H   UNL     1      55.827 229.185 356.036  0.00  0.00    +0.000 HD
ENDBRANCH  26  36
ENDBRANCH  21  25
ENDBRANCH   3  20
TORSDOF 5
ENDMDL
MODEL 9
REMARK VINA RESULT:      -5.1     35.365     37.637
REMARK  Name = 342374_SipholenolA.pdbqt.pdb
REMARK  5 active torsions:
REMARK  status: ('A' for Active; 'I' for Inactive)
REMARK    1  A    between atoms: C_3  and  C_20
REMARK    2  A    between atoms: C_4  and  O_16
REMARK    3  A    between atoms: C_13  and  O_18
REMARK    4  A    between atoms: C_21  and  C_25
REMARK    5  A    between atoms: C_26  and  O_36
REMARK                            x       y       z     vdW  Elec       q    Type
REMARK                         _______ _______ _______ _____ _____    ______ ____
ROOT
ATOM      1  O   UNL     1      47.595 240.169 324.579  0.00  0.00    +0.000 OA
ATOM      2  C   UNL     1      46.956 237.731 323.893  0.00  0.00    +0.000 C 
ATOM      3  C   UNL     1      47.532 236.358 323.535  0.00  0.00    +0.000 C 
ATOM      4  C   UNL     1      48.740 236.260 322.620  0.00  0.00    +0.000 C 
ATOM      5  C   UNL     1      47.989 238.932 324.057  0.00  0.00    +0.000 C 
ATOM      6  C   UNL     1      46.342 237.695 325.229  0.00  0.00    +0.000 C 
ATOM      7  C   UNL     1      49.425 237.538 322.609  0.00  0.00    +0.000 C 
ATOM      8  C   UNL     1      49.152 238.849 323.266  0.00  0.00    +0.000 C 
ATOM      9  C   UNL     1      45.909 238.149 322.824  0.00  0.00    +0.000 C 
ATOM     10  C   UNL     1      46.220 238.510 326.494  0.00  0.00    +0.000 C 
ATOM     11  C   UNL     1      47.810 240.442 326.003  0.00  0.00    +0.000 C 
ATOM     12  C   UNL     1      49.676 235.126 323.063  0.00  0.00    +0.000 C 
ATOM     13  C   UNL     1      46.750 239.749 326.911  0.00  0.00    +0.000 C 
ATOM     14  C   UNL     1      49.226 239.999 326.475  0.00  0.00    +0.000 C 
ATOM     15  C   UNL     1      47.652 241.978 326.203  0.00  0.00    +0.000 C 
ENDROOT
BRANCH   4  16
ATOM     16  O   UNL     1      48.327 235.928 321.318  0.00  0.00    +0.000 OA
ATOM     17  H   UNL     1      48.724 236.652 320.802  0.00  0.00    +0.000 HD
ENDBRANCH   4  16
BRANCH  13  18
ATOM     18  O   UNL     1      46.299 240.309 328.102  0.00  0.00    +0.000 OA
ATOM     19  H   UNL     1      46.270 241.287 328.050  0.00  0.00    +0.000 HD
ENDBRANCH  13  18
BRANCH   3  20
ATOM     20  C   UNL     1      46.793 235.167 323.869  0.00  0.00    +0.000 C 
ATOM     21  C   UNL     1      46.012 233.903 324.239  0.00  0.00    +0.000 C 
BRANCH  21  25
ATOM     22  C   UNL     1      44.575 230.943 322.794  0.00  0.00    +0.000 C 
ATOM     23  C   UNL     1      45.553 231.349 323.930  0.00  0.00    +0.000 C 
ATOM     24  C   UNL     1      43.088 230.792 322.942  0.00  0.00    +0.000 C 
ATOM     25  C   UNL     1      45.283 232.720 324.595  0.00  0.00    +0.000 C 
ATOM     26  C   UNL     1      42.453 230.006 321.801  0.00  0.00    +0.000 C 
ATOM     27  C   UNL     1      44.909 230.276 321.577  0.00  0.00    +0.000 C 
ATOM     28  C   UNL     1      43.638 229.717 321.001  0.00  0.00    +0.000 C 
ATOM     29  C   UNL     1      42.487 231.409 324.054  0.00  0.00    +0.000 C 
ATOM     30  C   UNL     1      44.147 232.869 325.505  0.00  0.00    +0.000 C 
ATOM     31  C   UNL     1      47.006 231.370 323.324  0.00  0.00    +0.000 C 
ATOM     32  C   UNL     1      45.541 230.217 325.013  0.00  0.00    +0.000 C 
ATOM     33  C   UNL     1      43.045 232.296 325.135  0.00  0.00    +0.000 C 
ATOM     34  C   UNL     1      41.361 230.792 321.089  0.00  0.00    +0.000 C 
ATOM     35  C   UNL     1      44.039 233.955 326.542  0.00  0.00    +0.000 C 
BRANCH  26  36
ATOM     36  O   UNL     1      41.870 228.825 322.286  0.00  0.00    +0.000 OA
ATOM     37  H   UNL     1      40.924 229.027 322.174  0.00  0.00    +0.000 HD
ENDBRANCH  26  36
ENDBRANCH  21  25
ENDBRANCH   3  20
TORSDOF 5
ENDMDL
