MODEL 1
REMARK VINA RESULT:      -3.7      0.000      0.000
REMARK  Name = 43806_Diaminocyclohexane.pdbqt.pdb
REMARK  2 active torsions:
REMARK  status: ('A' for Active; 'I' for Inactive)
REMARK    1  A    between atoms: C_1  and  N_7
REMARK    2  A    between atoms: C_2  and  N_10
REMARK                            x       y       z     vdW  Elec       q    Type
REMARK                         _______ _______ _______ _____ _____    ______ ____
ROOT
ATOM      1  C   UNL     1      59.728 224.362 327.431  0.00  0.00    +0.000 A 
ATOM      2  C   UNL     1      59.851 224.530 325.966  0.00  0.00    +0.000 A 
ATOM      3  C   UNL     1      58.763 223.391 327.855  0.00  0.00    +0.000 A 
ATOM      4  C   UNL     1      59.011 223.673 325.182  0.00  0.00    +0.000 A 
ATOM      5  C   UNL     1      57.827 222.450 327.078  0.00  0.00    +0.000 A 
ATOM      6  C   UNL     1      57.970 222.609 325.563  0.00  0.00    +0.000 A 
ENDROOT
BRANCH   1   7
ATOM      7  N   UNL     1      60.554 225.050 328.351  0.00  0.00    +0.000 N 
ATOM      8  H   UNL     1      60.889 224.464 329.110  0.00  0.00    +0.000 HD
ATOM      9  H   UNL     1      60.174 225.931 328.681  0.00  0.00    +0.000 HD
ENDBRANCH   1   7
BRANCH   2  10
ATOM     10  N   UNL     1      60.675 225.517 325.376  0.00  0.00    +0.000 N 
ATOM     11  H   UNL     1      61.321 225.146 324.687  0.00  0.00    +0.000 HD
ATOM     12  H   UNL     1      61.130 226.136 326.038  0.00  0.00    +0.000 HD
ENDBRANCH   2  10
TORSDOF 2
ENDMDL
MODEL 2
REMARK VINA RESULT:      -3.7      0.003      2.286
REMARK  Name = 43806_Diaminocyclohexane.pdbqt.pdb
REMARK  2 active torsions:
REMARK  status: ('A' for Active; 'I' for Inactive)
REMARK    1  A    between atoms: C_1  and  N_7
REMARK    2  A    between atoms: C_2  and  N_10
REMARK                            x       y       z     vdW  Elec       q    Type
REMARK                         _______ _______ _______ _____ _____    ______ ____
ROOT
ATOM      1  C   UNL     1      59.850 224.530 325.969  0.00  0.00    +0.000 A 
ATOM      2  C   UNL     1      59.728 224.362 327.433  0.00  0.00    +0.000 A 
ATOM      3  C   UNL     1      59.010 223.675 325.184  0.00  0.00    +0.000 A 
ATOM      4  C   UNL     1      58.764 223.389 327.856  0.00  0.00    +0.000 A 
ATOM      5  C   UNL     1      57.969 222.610 325.565  0.00  0.00    +0.000 A 
ATOM      6  C   UNL     1      57.828 222.450 327.080  0.00  0.00    +0.000 A 
ENDROOT
BRANCH   1   7
ATOM      7  N   UNL     1      60.674 225.518 325.379  0.00  0.00    +0.000 N 
ATOM      8  H   UNL     1      61.664 225.371 325.546  0.00  0.00    +0.000 HD
ATOM      9  H   UNL     1      60.387 226.473 325.567  0.00  0.00    +0.000 HD
ENDBRANCH   1   7
BRANCH   2  10
ATOM     10  N   UNL     1      60.555 225.048 328.353  0.00  0.00    +0.000 N 
ATOM     11  H   UNL     1      61.193 224.440 328.857  0.00  0.00    +0.000 HD
ATOM     12  H   UNL     1      60.061 225.685 328.970  0.00  0.00    +0.000 HD
ENDBRANCH   2  10
TORSDOF 2
ENDMDL
MODEL 3
REMARK VINA RESULT:      -3.7     14.967     15.326
REMARK  Name = 43806_Diaminocyclohexane.pdbqt.pdb
REMARK  2 active torsions:
REMARK  status: ('A' for Active; 'I' for Inactive)
REMARK    1  A    between atoms: C_1  and  N_7
REMARK    2  A    between atoms: C_2  and  N_10
REMARK                            x       y       z     vdW  Elec       q    Type
REMARK                         _______ _______ _______ _____ _____    ______ ____
ROOT
ATOM      1  C   UNL     1      47.896 232.598 323.500  0.00  0.00    +0.000 A 
ATOM      2  C   UNL     1      48.956 233.527 323.949  0.00  0.00    +0.000 A 
ATOM      3  C   UNL     1      47.002 233.123 322.512  0.00  0.00    +0.000 A 
ATOM      4  C   UNL     1      48.955 234.808 323.305  0.00  0.00    +0.000 A 
ATOM      5  C   UNL     1      46.934 234.479 321.789  0.00  0.00    +0.000 A 
ATOM      6  C   UNL     1      48.043 235.432 322.238  0.00  0.00    +0.000 A 
ENDROOT
BRANCH   1   7
ATOM      7  N   UNL     1      47.813 231.259 323.951  0.00  0.00    +0.000 N 
ATOM      8  H   UNL     1      47.074 231.106 324.631  0.00  0.00    +0.000 HD
ATOM      9  H   UNL     1      48.698 230.857 324.244  0.00  0.00    +0.000 HD
ENDBRANCH   1   7
BRANCH   2  10
ATOM     10  N   UNL     1      49.858 233.212 324.992  0.00  0.00    +0.000 N 
ATOM     11  H   UNL     1      49.458 232.612 325.706  0.00  0.00    +0.000 HD
ATOM     12  H   UNL     1      50.341 234.012 325.387  0.00  0.00    +0.000 HD
ENDBRANCH   2  10
TORSDOF 2
ENDMDL
MODEL 4
REMARK VINA RESULT:      -3.6     19.797     20.381
REMARK  Name = 43806_Diaminocyclohexane.pdbqt.pdb
REMARK  2 active torsions:
REMARK  status: ('A' for Active; 'I' for Inactive)
REMARK    1  A    between atoms: C_1  and  N_7
REMARK    2  A    between atoms: C_2  and  N_10
REMARK                            x       y       z     vdW  Elec       q    Type
REMARK                         _______ _______ _______ _____ _____    ______ ____
ROOT
ATOM      1  C   UNL     1      52.795 242.980 326.935  0.00  0.00    +0.000 A 
ATOM      2  C   UNL     1      51.913 242.310 325.954  0.00  0.00    +0.000 A 
ATOM      3  C   UNL     1      53.739 243.901 326.377  0.00  0.00    +0.000 A 
ATOM      4  C   UNL     1      52.108 242.705 324.590  0.00  0.00    +0.000 A 
ATOM      5  C   UNL     1      54.011 244.363 324.936  0.00  0.00    +0.000 A 
ATOM      6  C   UNL     1      53.084 243.686 323.924  0.00  0.00    +0.000 A 
ENDROOT
BRANCH   1   7
ATOM      7  N   UNL     1      52.669 242.790 328.332  0.00  0.00    +0.000 N 
ATOM      8  H   UNL     1      53.090 243.532 328.881  0.00  0.00    +0.000 HD
ATOM      9  H   UNL     1      52.939 241.867 328.657  0.00  0.00    +0.000 HD
ENDBRANCH   1   7
BRANCH   2  10
ATOM     10  N   UNL     1      50.996 241.296 326.318  0.00  0.00    +0.000 N 
ATOM     11  H   UNL     1      51.175 240.897 327.234  0.00  0.00    +0.000 HD
ATOM     12  H   UNL     1      50.852 240.584 325.609  0.00  0.00    +0.000 HD
ENDBRANCH   2  10
TORSDOF 2
ENDMDL
MODEL 5
REMARK VINA RESULT:      -3.3     18.217     18.750
REMARK  Name = 43806_Diaminocyclohexane.pdbqt.pdb
REMARK  2 active torsions:
REMARK  status: ('A' for Active; 'I' for Inactive)
REMARK    1  A    between atoms: C_1  and  N_7
REMARK    2  A    between atoms: C_2  and  N_10
REMARK                            x       y       z     vdW  Elec       q    Type
REMARK                         _______ _______ _______ _____ _____    ______ ____
ROOT
ATOM      1  C   UNL     1      63.819 241.256 322.887  0.00  0.00    +0.000 A 
ATOM      2  C   UNL     1      63.499 241.634 321.493  0.00  0.00    +0.000 A 
ATOM      3  C   UNL     1      62.853 241.657 323.865  0.00  0.00    +0.000 A 
ATOM      4  C   UNL     1      62.252 242.318 321.318  0.00  0.00    +0.000 A 
ATOM      5  C   UNL     1      61.509 242.396 323.754  0.00  0.00    +0.000 A 
ATOM      6  C   UNL     1      61.168 242.768 322.310  0.00  0.00    +0.000 A 
ENDROOT
BRANCH   1   7
ATOM      7  N   UNL     1      64.956 240.485 323.228  0.00  0.00    +0.000 N 
ATOM      8  H   UNL     1      65.830 240.994 323.146  0.00  0.00    +0.000 HD
ATOM      9  H   UNL     1      64.996 239.573 322.782  0.00  0.00    +0.000 HD
ENDBRANCH   1   7
BRANCH   2  10
ATOM     10  N   UNL     1      64.390 241.411 320.417  0.00  0.00    +0.000 N 
ATOM     11  H   UNL     1      64.589 240.429 320.251  0.00  0.00    +0.000 HD
ATOM     12  H   UNL     1      65.233 241.976 320.443  0.00  0.00    +0.000 HD
ENDBRANCH   2  10
TORSDOF 2
ENDMDL
MODEL 6
REMARK VINA RESULT:      -3.1     19.622     21.031
REMARK  Name = 43806_Diaminocyclohexane.pdbqt.pdb
REMARK  2 active torsions:
REMARK  status: ('A' for Active; 'I' for Inactive)
REMARK    1  A    between atoms: C_1  and  N_7
REMARK    2  A    between atoms: C_2  and  N_10
REMARK                            x       y       z     vdW  Elec       q    Type
REMARK                         _______ _______ _______ _____ _____    ______ ____
ROOT
ATOM      1  C   UNL     1      65.964 235.273 342.709  0.00  0.00    +0.000 A 
ATOM      2  C   UNL     1      65.767 233.815 342.558  0.00  0.00    +0.000 A 
ATOM      3  C   UNL     1      66.203 235.722 344.048  0.00  0.00    +0.000 A 
ATOM      4  C   UNL     1      65.877 233.057 343.770  0.00  0.00    +0.000 A 
ATOM      5  C   UNL     1      66.323 234.975 345.387  0.00  0.00    +0.000 A 
ATOM      6  C   UNL     1      66.141 233.464 345.228  0.00  0.00    +0.000 A 
ENDROOT
BRANCH   1   7
ATOM      7  N   UNL     1      65.994 236.159 341.605  0.00  0.00    +0.000 N 
ATOM      8  H   UNL     1      66.902 236.586 341.454  0.00  0.00    +0.000 HD
ATOM      9  H   UNL     1      65.239 236.837 341.589  0.00  0.00    +0.000 HD
ENDBRANCH   1   7
BRANCH   2  10
ATOM     10  N   UNL     1      65.416 233.214 341.326  0.00  0.00    +0.000 N 
ATOM     11  H   UNL     1      65.599 232.216 341.296  0.00  0.00    +0.000 HD
ATOM     12  H   UNL     1      65.770 233.696 340.507  0.00  0.00    +0.000 HD
ENDBRANCH   2  10
TORSDOF 2
ENDMDL
MODEL 7
REMARK VINA RESULT:      -3.1     15.030     15.538
REMARK  Name = 43806_Diaminocyclohexane.pdbqt.pdb
REMARK  2 active torsions:
REMARK  status: ('A' for Active; 'I' for Inactive)
REMARK    1  A    between atoms: C_1  and  N_7
REMARK    2  A    between atoms: C_2  and  N_10
REMARK                            x       y       z     vdW  Elec       q    Type
REMARK                         _______ _______ _______ _____ _____    ______ ____
ROOT
ATOM      1  C   UNL     1      47.652 233.112 322.090  0.00  0.00    +0.000 A 
ATOM      2  C   UNL     1      48.214 232.696 323.394  0.00  0.00    +0.000 A 
ATOM      3  C   UNL     1      47.995 234.438 321.673  0.00  0.00    +0.000 A 
ATOM      4  C   UNL     1      49.048 233.669 324.035  0.00  0.00    +0.000 A 
ATOM      5  C   UNL     1      48.868 235.533 322.308  0.00  0.00    +0.000 A 
ATOM      6  C   UNL     1      49.466 235.095 323.647  0.00  0.00    +0.000 A 
ENDROOT
BRANCH   1   7
ATOM      7  N   UNL     1      46.895 232.240 321.271  0.00  0.00    +0.000 N 
ATOM      8  H   UNL     1      46.221 232.721 320.684  0.00  0.00    +0.000 HD
ATOM      9  H   UNL     1      46.487 231.450 321.761  0.00  0.00    +0.000 HD
ENDBRANCH   1   7
BRANCH   2  10
ATOM     10  N   UNL     1      47.893 231.462 324.006  0.00  0.00    +0.000 N 
ATOM     11  H   UNL     1      48.706 230.901 324.240  0.00  0.00    +0.000 HD
ATOM     12  H   UNL     1      47.180 230.925 323.524  0.00  0.00    +0.000 HD
ENDBRANCH   2  10
TORSDOF 2
ENDMDL
MODEL 8
REMARK VINA RESULT:      -3.0     20.513     21.612
REMARK  Name = 43806_Diaminocyclohexane.pdbqt.pdb
REMARK  2 active torsions:
REMARK  status: ('A' for Active; 'I' for Inactive)
REMARK    1  A    between atoms: C_1  and  N_7
REMARK    2  A    between atoms: C_2  and  N_10
REMARK                            x       y       z     vdW  Elec       q    Type
REMARK                         _______ _______ _______ _____ _____    ______ ____
ROOT
ATOM      1  C   UNL     1      64.334 243.085 332.705  0.00  0.00    +0.000 A 
ATOM      2  C   UNL     1      64.835 244.426 333.078  0.00  0.00    +0.000 A 
ATOM      3  C   UNL     1      65.090 241.985 333.226  0.00  0.00    +0.000 A 
ATOM      4  C   UNL     1      65.985 244.431 333.933  0.00  0.00    +0.000 A 
ATOM      5  C   UNL     1      66.329 241.914 334.133  0.00  0.00    +0.000 A 
ATOM      6  C   UNL     1      66.835 243.301 334.536  0.00  0.00    +0.000 A 
ENDROOT
BRANCH   1   7
ATOM      7  N   UNL     1      63.149 242.892 331.955  0.00  0.00    +0.000 N 
ATOM      8  H   UNL     1      63.303 242.419 331.070  0.00  0.00    +0.000 HD
ATOM      9  H   UNL     1      62.575 243.723 331.855  0.00  0.00    +0.000 HD
ENDBRANCH   1   7
BRANCH   2  10
ATOM     10  N   UNL     1      64.275 245.621 332.567  0.00  0.00    +0.000 N 
ATOM     11  H   UNL     1      63.404 245.478 332.066  0.00  0.00    +0.000 HD
ATOM     12  H   UNL     1      64.925 246.204 332.052  0.00  0.00    +0.000 HD
ENDBRANCH   2  10
TORSDOF 2
ENDMDL
MODEL 9
REMARK VINA RESULT:      -3.0     20.510     21.922
REMARK  Name = 43806_Diaminocyclohexane.pdbqt.pdb
REMARK  2 active torsions:
REMARK  status: ('A' for Active; 'I' for Inactive)
REMARK    1  A    between atoms: C_1  and  N_7
REMARK    2  A    between atoms: C_2  and  N_10
REMARK                            x       y       z     vdW  Elec       q    Type
REMARK                         _______ _______ _______ _____ _____    ______ ____
ROOT
ATOM      1  C   UNL     1      66.217 232.662 344.611  0.00  0.00    +0.000 A 
ATOM      2  C   UNL     1      66.337 233.573 345.769  0.00  0.00    +0.000 A 
ATOM      3  C   UNL     1      65.763 233.273 343.398  0.00  0.00    +0.000 A 
ATOM      4  C   UNL     1      66.014 234.944 345.502  0.00  0.00    +0.000 A 
ATOM      5  C   UNL     1      65.390 234.722 343.042  0.00  0.00    +0.000 A 
ATOM      6  C   UNL     1      65.534 235.669 344.235  0.00  0.00    +0.000 A 
ENDROOT
BRANCH   1   7
ATOM      7  N   UNL     1      66.596 231.299 344.667  0.00  0.00    +0.000 N 
ATOM      8  H   UNL     1      66.288 230.828 345.512  0.00  0.00    +0.000 HD
ATOM      9  H   UNL     1      67.575 231.126 344.463  0.00  0.00    +0.000 HD
ENDBRANCH   1   7
BRANCH   2  10
ATOM     10  N   UNL     1      66.669 233.120 347.068  0.00  0.00    +0.000 N 
ATOM     11  H   UNL     1      66.884 233.870 347.717  0.00  0.00    +0.000 HD
ATOM     12  H   UNL     1      67.362 232.380 347.091  0.00  0.00    +0.000 HD
ENDBRANCH   2  10
TORSDOF 2
ENDMDL
