REMARK  Name = 44234954_SipholenolL.pdbqt.pdb
REMARK  5 active torsions:
REMARK  status: ('A' for Active; 'I' for Inactive)
REMARK    1  A    between atoms: C_3  and  C_20
REMARK    2  A    between atoms: C_4  and  O_16
REMARK    3  A    between atoms: C_13  and  O_18
REMARK    4  A    between atoms: C_21  and  C_25
REMARK    5  A    between atoms: C_26  and  O_36
REMARK                            x       y       z     vdW  Elec       q    Type
REMARK                         _______ _______ _______ _____ _____    ______ ____
ROOT
ATOM      1  O   UNL     1       5.111  -0.242  -0.022  0.00  0.00    +0.000 OA
ATOM      2  C   UNL     1       2.787   0.672  -0.767  0.00  0.00    +0.000 C 
ATOM      3  C   UNL     1       1.746   1.754  -0.471  0.00  0.00    +0.000 C 
ATOM      4  C   UNL     1       2.193   3.193  -0.290  0.00  0.00    +0.000 C 
ATOM      5  C   UNL     1       4.171   0.793   0.010  0.00  0.00    +0.000 C 
ATOM      6  C   UNL     1       2.324  -0.647  -0.309  0.00  0.00    +0.000 C 
ATOM      7  C   UNL     1       3.579   3.195   0.140  0.00  0.00    +0.000 C 
ATOM      8  C   UNL     1       4.583   2.105   0.320  0.00  0.00    +0.000 C 
ATOM      9  C   UNL     1       3.083   0.631  -2.289  0.00  0.00    +0.000 C 
ATOM     10  C   UNL     1       2.815  -1.877   0.412  0.00  0.00    +0.000 C 
ATOM     11  C   UNL     1       5.182  -1.197   1.097  0.00  0.00    +0.000 C 
ATOM     12  C   UNL     1       1.921   4.038  -1.531  0.00  0.00    +0.000 C 
ATOM     13  C   UNL     1       4.025  -2.250   1.041  0.00  0.00    +0.000 C 
ATOM     14  C   UNL     1       6.540  -1.932   0.933  0.00  0.00    +0.000 C 
ATOM     15  C   UNL     1       5.120  -0.458   2.470  0.00  0.00    +0.000 C 
ENDROOT
BRANCH   4  16
ATOM     16  O   UNL     1       1.416   3.785   0.731  0.00  0.00    +0.000 OA
ATOM     17  H   UNL     1       1.007   4.524   0.243  0.00  0.00    +0.000 HD
ENDBRANCH   4  16
BRANCH  13  18
ATOM     18  O   UNL     1       4.069  -3.431   1.772  0.00  0.00    +0.000 OA
ATOM     19  H   UNL     1       3.244  -3.943   1.701  0.00  0.00    +0.000 HD
ENDBRANCH  13  18
BRANCH   3  20
ATOM     20  C   UNL     1       0.345   1.435  -0.424  0.00  0.00    +0.000 C 
ATOM     21  C   UNL     1      -1.155   1.129  -0.366  0.00  0.00    +0.000 C 
BRANCH  21  25
ATOM     22  C   UNL     1      -3.114  -0.548  -0.242  0.00  0.00    +0.000 A 
ATOM     23  C   UNL     1      -4.673  -0.778  -0.161  0.00  0.00    +0.000 A 
ATOM     24  C   UNL     1      -2.093  -1.760  -0.271  0.00  0.00    +0.000 C 
ATOM     25  C   UNL     1      -2.564   0.893  -0.318  0.00  0.00    +0.000 A 
ATOM     26  C   UNL     1      -5.435  -2.119  -0.053  0.00  0.00    +0.000 C 
ATOM     27  C   UNL     1      -2.931  -2.962  -0.219  0.00  0.00    +0.000 C 
ATOM     28  C   UNL     1      -4.421  -3.153  -0.127  0.00  0.00    +0.000 C 
ATOM     29  C   UNL     1      -5.367   0.465  -0.240  0.00  0.00    +0.000 A 
ATOM     30  C   UNL     1      -3.445   2.093  -0.361  0.00  0.00    +0.000 A 
ATOM     31  C   UNL     1      -1.190  -1.711   0.985  0.00  0.00    +0.000 C 
ATOM     32  C   UNL     1      -1.301  -1.751  -1.596  0.00  0.00    +0.000 C 
ATOM     33  C   UNL     1      -4.708   1.810  -0.331  0.00  0.00    +0.000 A 
ATOM     34  C   UNL     1      -6.272  -2.181   1.217  0.00  0.00    +0.000 C 
ATOM     35  C   UNL     1      -2.997   3.524  -0.299  0.00  0.00    +0.000 C 
BRANCH  26  36
ATOM     36  O   UNL     1      -6.319  -2.246  -1.137  0.00  0.00    +0.000 OA
ATOM     37  H   UNL     1      -7.155  -2.436  -0.673  0.00  0.00    +0.000 HD
ENDBRANCH  26  36
ENDBRANCH  21  25
ENDBRANCH   3  20
TORSDOF 5
