MODEL 1
REMARK VINA RESULT:      -6.5      0.000      0.000
REMARK  Name = 44234954_SipholenolL.pdbqt.pdb
REMARK  5 active torsions:
REMARK  status: ('A' for Active; 'I' for Inactive)
REMARK    1  A    between atoms: C_3  and  C_20
REMARK    2  A    between atoms: C_4  and  O_16
REMARK    3  A    between atoms: C_13  and  O_18
REMARK    4  A    between atoms: C_21  and  C_25
REMARK    5  A    between atoms: C_26  and  O_36
REMARK                            x       y       z     vdW  Elec       q    Type
REMARK                         _______ _______ _______ _____ _____    ______ ____
ROOT
ATOM      1  O   UNL     1      49.799 247.748 332.514  0.00  0.00    +0.000 OA
ATOM      2  C   UNL     1      50.238 246.895 330.091  0.00  0.00    +0.000 C 
ATOM      3  C   UNL     1      50.809 245.721 329.292  0.00  0.00    +0.000 C 
ATOM      4  C   UNL     1      50.417 244.303 329.662  0.00  0.00    +0.000 C 
ATOM      5  C   UNL     1      50.110 246.682 331.663  0.00  0.00    +0.000 C 
ATOM      6  C   UNL     1      51.137 248.058 330.038  0.00  0.00    +0.000 C 
ATOM      7  C   UNL     1      50.029 244.281 331.060  0.00  0.00    +0.000 C 
ATOM      8  C   UNL     1      49.869 245.358 332.081  0.00  0.00    +0.000 C 
ATOM      9  C   UNL     1      48.842 247.278 329.535  0.00  0.00    +0.000 C 
ATOM     10  C   UNL     1      51.723 249.128 330.925  0.00  0.00    +0.000 C 
ATOM     11  C   UNL     1      50.878 248.442 333.237  0.00  0.00    +0.000 C 
ATOM     12  C   UNL     1      49.369 243.732 328.712  0.00  0.00    +0.000 C 
ATOM     13  C   UNL     1      51.671 249.420 332.307  0.00  0.00    +0.000 C 
ATOM     14  C   UNL     1      50.173 249.265 334.349  0.00  0.00    +0.000 C 
ATOM     15  C   UNL     1      51.881 247.422 333.862  0.00  0.00    +0.000 C 
ENDROOT
BRANCH   4  16
ATOM     16  O   UNL     1      51.544 243.465 329.506  0.00  0.00    +0.000 OA
ATOM     17  H   UNL     1      51.127 242.665 329.134  0.00  0.00    +0.000 HD
ENDBRANCH   4  16
BRANCH  13  18
ATOM     18  O   UNL     1      52.494 250.417 332.817  0.00  0.00    +0.000 OA
ATOM     19  H   UNL     1      52.208 251.308 332.550  0.00  0.00    +0.000 HD
ENDBRANCH  13  18
BRANCH   3  20
ATOM     20  C   UNL     1      51.662 245.949 328.157  0.00  0.00    +0.000 C 
ATOM     21  C   UNL     1      52.548 246.215 326.936  0.00  0.00    +0.000 C 
BRANCH  21  25
ATOM     22  C   UNL     1      53.530 245.455 324.672  0.00  0.00    +0.000 A 
ATOM     23  C   UNL     1      54.397 245.815 323.404  0.00  0.00    +0.000 A 
ATOM     24  C   UNL     1      52.855 244.032 324.844  0.00  0.00    +0.000 C 
ATOM     25  C   UNL     1      53.350 246.507 325.789  0.00  0.00    +0.000 A 
ATOM     26  C   UNL     1      54.687 244.935 322.166  0.00  0.00    +0.000 C 
ATOM     27  C   UNL     1      53.245 243.281 323.646  0.00  0.00    +0.000 C 
ATOM     28  C   UNL     1      54.064 243.655 322.440  0.00  0.00    +0.000 C 
ATOM     29  C   UNL     1      54.961 247.118 323.536  0.00  0.00    +0.000 A 
ATOM     30  C   UNL     1      53.996 247.848 325.748  0.00  0.00    +0.000 A 
ATOM     31  C   UNL     1      51.315 244.185 324.874  0.00  0.00    +0.000 C 
ATOM     32  C   UNL     1      53.425 243.325 326.093  0.00  0.00    +0.000 C 
ATOM     33  C   UNL     1      54.720 248.042 324.693  0.00  0.00    +0.000 A 
ATOM     34  C   UNL     1      54.185 245.592 320.888  0.00  0.00    +0.000 C 
ATOM     35  C   UNL     1      53.768 248.971 326.717  0.00  0.00    +0.000 C 
BRANCH  26  36
ATOM     36  O   UNL     1      56.074 244.764 322.025  0.00  0.00    +0.000 OA
ATOM     37  H   UNL     1      56.343 245.658 321.743  0.00  0.00    +0.000 HD
ENDBRANCH  26  36
ENDBRANCH  21  25
ENDBRANCH   3  20
TORSDOF 5
ENDMDL
MODEL 2
REMARK VINA RESULT:      -6.1     33.197     35.495
REMARK  Name = 44234954_SipholenolL.pdbqt.pdb
REMARK  5 active torsions:
REMARK  status: ('A' for Active; 'I' for Inactive)
REMARK    1  A    between atoms: C_3  and  C_20
REMARK    2  A    between atoms: C_4  and  O_16
REMARK    3  A    between atoms: C_13  and  O_18
REMARK    4  A    between atoms: C_21  and  C_25
REMARK    5  A    between atoms: C_26  and  O_36
REMARK                            x       y       z     vdW  Elec       q    Type
REMARK                         _______ _______ _______ _____ _____    ______ ____
ROOT
ATOM      1  O   UNL     1      79.071 226.879 340.882  0.00  0.00    +0.000 OA
ATOM      2  C   UNL     1      77.381 224.965 340.356  0.00  0.00    +0.000 C 
ATOM      3  C   UNL     1      75.952 224.691 339.882  0.00  0.00    +0.000 C 
ATOM      4  C   UNL     1      75.412 225.428 338.670  0.00  0.00    +0.000 C 
ATOM      5  C   UNL     1      77.869 226.479 340.288  0.00  0.00    +0.000 C 
ATOM      6  C   UNL     1      77.523 224.691 341.795  0.00  0.00    +0.000 C 
ATOM      7  C   UNL     1      76.140 226.675 338.525  0.00  0.00    +0.000 C 
ATOM      8  C   UNL     1      77.306 227.255 339.255  0.00  0.00    +0.000 C 
ATOM      9  C   UNL     1      78.378 224.093 339.549  0.00  0.00    +0.000 C 
ATOM     10  C   UNL     1      78.137 225.270 343.044  0.00  0.00    +0.000 C 
ATOM     11  C   UNL     1      79.051 227.508 342.214  0.00  0.00    +0.000 C 
ATOM     12  C   UNL     1      75.414 224.553 337.420  0.00  0.00    +0.000 C 
ATOM     13  C   UNL     1      78.840 226.457 343.354  0.00  0.00    +0.000 C 
ATOM     14  C   UNL     1      80.448 228.164 342.386  0.00  0.00    +0.000 C 
ATOM     15  C   UNL     1      77.924 228.583 342.310  0.00  0.00    +0.000 C 
ENDROOT
BRANCH   4  16
ATOM     16  O   UNL     1      74.052 225.738 338.895  0.00  0.00    +0.000 OA
ATOM     17  H   UNL     1      73.656 225.439 338.056  0.00  0.00    +0.000 HD
ENDBRANCH   4  16
BRANCH  13  18
ATOM     18  O   UNL     1      79.117 226.748 344.684  0.00  0.00    +0.000 OA
ATOM     19  H   UNL     1      79.880 226.247 345.024  0.00  0.00    +0.000 HD
ENDBRANCH  13  18
BRANCH   3  20
ATOM     20  C   UNL     1      75.137 223.701 340.532  0.00  0.00    +0.000 C 
ATOM     21  C   UNL     1      74.298 222.633 341.240  0.00  0.00    +0.000 C 
BRANCH  21  25
ATOM     22  C   UNL     1      72.264 221.046 341.318  0.00  0.00    +0.000 A 
ATOM     23  C   UNL     1      71.476 219.919 342.093  0.00  0.00    +0.000 A 
ATOM     24  C   UNL     1      71.754 221.613 339.928  0.00  0.00    +0.000 C 
ATOM     25  C   UNL     1      73.553 221.630 341.934  0.00  0.00    +0.000 A 
ATOM     26  C   UNL     1      70.190 219.181 341.656  0.00  0.00    +0.000 C 
ATOM     27  C   UNL     1      70.514 220.881 339.652  0.00  0.00    +0.000 C 
ATOM     28  C   UNL     1      69.791 219.797 340.405  0.00  0.00    +0.000 C 
ATOM     29  C   UNL     1      72.093 219.653 343.350  0.00  0.00    +0.000 A 
ATOM     30  C   UNL     1      74.077 221.207 343.263  0.00  0.00    +0.000 A 
ATOM     31  C   UNL     1      72.791 221.298 338.824  0.00  0.00    +0.000 C 
ATOM     32  C   UNL     1      71.436 223.118 340.058  0.00  0.00    +0.000 C 
ATOM     33  C   UNL     1      73.348 220.310 343.846  0.00  0.00    +0.000 A 
ATOM     34  C   UNL     1      70.422 217.680 341.545  0.00  0.00    +0.000 C 
ATOM     35  C   UNL     1      75.384 221.621 343.873  0.00  0.00    +0.000 C 
BRANCH  26  36
ATOM     36  O   UNL     1      69.187 219.374 342.619  0.00  0.00    +0.000 OA
ATOM     37  H   UNL     1      69.015 218.455 342.895  0.00  0.00    +0.000 HD
ENDBRANCH  26  36
ENDBRANCH  21  25
ENDBRANCH   3  20
TORSDOF 5
ENDMDL
MODEL 3
REMARK VINA RESULT:      -6.1     26.209     29.850
REMARK  Name = 44234954_SipholenolL.pdbqt.pdb
REMARK  5 active torsions:
REMARK  status: ('A' for Active; 'I' for Inactive)
REMARK    1  A    between atoms: C_3  and  C_20
REMARK    2  A    between atoms: C_4  and  O_16
REMARK    3  A    between atoms: C_13  and  O_18
REMARK    4  A    between atoms: C_21  and  C_25
REMARK    5  A    between atoms: C_26  and  O_36
REMARK                            x       y       z     vdW  Elec       q    Type
REMARK                         _______ _______ _______ _____ _____    ______ ____
ROOT
ATOM      1  O   UNL     1      67.275 236.547 345.306  0.00  0.00    +0.000 OA
ATOM      2  C   UNL     1      67.287 235.414 347.653  0.00  0.00    +0.000 C 
ATOM      3  C   UNL     1      68.212 234.870 348.745  0.00  0.00    +0.000 C 
ATOM      4  C   UNL     1      69.400 235.697 349.198  0.00  0.00    +0.000 C 
ATOM      5  C   UNL     1      67.990 236.189 346.454  0.00  0.00    +0.000 C 
ATOM      6  C   UNL     1      66.625 234.319 346.927  0.00  0.00    +0.000 C 
ATOM      7  C   UNL     1      69.778 236.592 348.120  0.00  0.00    +0.000 C 
ATOM      8  C   UNL     1      69.174 236.879 346.786  0.00  0.00    +0.000 C 
ATOM      9  C   UNL     1      66.224 236.350 348.285  0.00  0.00    +0.000 C 
ATOM     10  C   UNL     1      66.263 233.889 345.528  0.00  0.00    +0.000 C 
ATOM     11  C   UNL     1      67.363 235.704 344.102  0.00  0.00    +0.000 C 
ATOM     12  C   UNL     1      69.138 236.396 350.529  0.00  0.00    +0.000 C 
ATOM     13  C   UNL     1      66.498 234.405 344.232  0.00  0.00    +0.000 C 
ATOM     14  C   UNL     1      66.797 236.571 342.944  0.00  0.00    +0.000 C 
ATOM     15  C   UNL     1      68.840 235.294 343.810  0.00  0.00    +0.000 C 
ENDROOT
BRANCH   4  16
ATOM     16  O   UNL     1      70.487 234.831 349.451  0.00  0.00    +0.000 OA
ATOM     17  H   UNL     1      70.363 234.656 350.402  0.00  0.00    +0.000 HD
ENDBRANCH   4  16
BRANCH  13  18
ATOM     18  O   UNL     1      66.153 233.637 343.127  0.00  0.00    +0.000 OA
ATOM     19  H   UNL     1      66.926 233.392 342.589  0.00  0.00    +0.000 HD
ENDBRANCH  13  18
BRANCH   3  20
ATOM     20  C   UNL     1      67.933 233.615 349.388  0.00  0.00    +0.000 C 
ATOM     21  C   UNL     1      67.636 232.295 350.106  0.00  0.00    +0.000 C 
BRANCH  21  25
ATOM     22  C   UNL     1      66.148 230.204 350.391  0.00  0.00    +0.000 A 
ATOM     23  C   UNL     1      65.863 228.864 351.173  0.00  0.00    +0.000 A 
ATOM     24  C   UNL     1      65.228 230.682 349.193  0.00  0.00    +0.000 C 
ATOM     25  C   UNL     1      67.341 231.089 350.815  0.00  0.00    +0.000 A 
ATOM     26  C   UNL     1      64.751 227.822 350.908  0.00  0.00    +0.000 C 
ATOM     27  C   UNL     1      64.192 229.650 349.077  0.00  0.00    +0.000 C 
ATOM     28  C   UNL     1      63.951 228.370 349.829  0.00  0.00    +0.000 C 
ATOM     29  C   UNL     1      66.778 228.712 352.256  0.00  0.00    +0.000 A 
ATOM     30  C   UNL     1      68.224 230.758 351.967  0.00  0.00    +0.000 A 
ATOM     31  C   UNL     1      66.055 230.725 347.885  0.00  0.00    +0.000 C 
ATOM     32  C   UNL     1      64.563 232.030 349.543  0.00  0.00    +0.000 C 
ATOM     33  C   UNL     1      67.893 229.664 352.576  0.00  0.00    +0.000 A 
ATOM     34  C   UNL     1      65.337 226.453 350.593  0.00  0.00    +0.000 C 
ATOM     35  C   UNL     1      69.476 231.484 352.362  0.00  0.00    +0.000 C 
BRANCH  26  36
ATOM     36  O   UNL     1      63.958 227.678 352.058  0.00  0.00    +0.000 OA
ATOM     37  H   UNL     1      63.638 226.764 351.948  0.00  0.00    +0.000 HD
ENDBRANCH  26  36
ENDBRANCH  21  25
ENDBRANCH   3  20
TORSDOF 5
ENDMDL
MODEL 4
REMARK VINA RESULT:      -5.8      1.375      2.862
REMARK  Name = 44234954_SipholenolL.pdbqt.pdb
REMARK  5 active torsions:
REMARK  status: ('A' for Active; 'I' for Inactive)
REMARK    1  A    between atoms: C_3  and  C_20
REMARK    2  A    between atoms: C_4  and  O_16
REMARK    3  A    between atoms: C_13  and  O_18
REMARK    4  A    between atoms: C_21  and  C_25
REMARK    5  A    between atoms: C_26  and  O_36
REMARK                            x       y       z     vdW  Elec       q    Type
REMARK                         _______ _______ _______ _____ _____    ______ ____
ROOT
ATOM      1  O   UNL     1      49.915 248.205 333.059  0.00  0.00    +0.000 OA
ATOM      2  C   UNL     1      49.959 247.057 330.720  0.00  0.00    +0.000 C 
ATOM      3  C   UNL     1      50.198 245.717 330.019  0.00  0.00    +0.000 C 
ATOM      4  C   UNL     1      49.542 244.461 330.563  0.00  0.00    +0.000 C 
ATOM      5  C   UNL     1      49.919 247.024 332.311  0.00  0.00    +0.000 C 
ATOM      6  C   UNL     1      51.079 247.982 330.488  0.00  0.00    +0.000 C 
ATOM      7  C   UNL     1      49.275 244.655 331.976  0.00  0.00    +0.000 C 
ATOM      8  C   UNL     1      49.434 245.830 332.883  0.00  0.00    +0.000 C 
ATOM      9  C   UNL     1      48.637 247.687 330.210  0.00  0.00    +0.000 C 
ATOM     10  C   UNL     1      51.953 248.972 331.217  0.00  0.00    +0.000 C 
ATOM     11  C   UNL     1      51.173 248.706 333.637  0.00  0.00    +0.000 C 
ATOM     12  C   UNL     1      48.321 244.052 329.745  0.00  0.00    +0.000 C 
ATOM     13  C   UNL     1      52.078 249.394 332.561  0.00  0.00    +0.000 C 
ATOM     14  C   UNL     1      50.755 249.764 334.694  0.00  0.00    +0.000 C 
ATOM     15  C   UNL     1      51.982 247.552 334.306  0.00  0.00    +0.000 C 
ENDROOT
BRANCH   4  16
ATOM     16  O   UNL     1      50.447 243.383 330.431  0.00  0.00    +0.000 OA
ATOM     17  H   UNL     1      50.394 243.219 329.471  0.00  0.00    +0.000 HD
ENDBRANCH   4  16
BRANCH  13  18
ATOM     18  O   UNL     1      53.135 250.226 332.910  0.00  0.00    +0.000 OA
ATOM     19  H   UNL     1      53.993 249.888 332.598  0.00  0.00    +0.000 HD
ENDBRANCH  13  18
BRANCH   3  20
ATOM     20  C   UNL     1      50.984 245.644 328.818  0.00  0.00    +0.000 C 
ATOM     21  C   UNL     1      51.847 245.585 327.554  0.00  0.00    +0.000 C 
BRANCH  21  25
ATOM     22  C   UNL     1      53.023 246.831 325.622  0.00  0.00    +0.000 A 
ATOM     23  C   UNL     1      53.983 246.755 324.372  0.00  0.00    +0.000 A 
ATOM     24  C   UNL     1      52.366 248.196 326.088  0.00  0.00    +0.000 C 
ATOM     25  C   UNL     1      52.693 245.539 326.402  0.00  0.00    +0.000 A 
ATOM     26  C   UNL     1      54.465 247.914 323.469  0.00  0.00    +0.000 C 
ATOM     27  C   UNL     1      52.851 249.195 325.131  0.00  0.00    +0.000 C 
ATOM     28  C   UNL     1      53.782 249.098 323.952  0.00  0.00    +0.000 C 
ATOM     29  C   UNL     1      54.364 245.406 324.114  0.00  0.00    +0.000 A 
ATOM     30  C   UNL     1      53.210 244.200 326.005  0.00  0.00    +0.000 A 
ATOM     31  C   UNL     1      52.869 248.559 327.506  0.00  0.00    +0.000 C 
ATOM     32  C   UNL     1      50.828 248.103 325.988  0.00  0.00    +0.000 C 
ATOM     33  C   UNL     1      53.956 244.226 324.946  0.00  0.00    +0.000 A 
ATOM     34  C   UNL     1      55.982 248.039 323.489  0.00  0.00    +0.000 C 
ATOM     35  C   UNL     1      53.051 242.924 326.778  0.00  0.00    +0.000 C 
BRANCH  26  36
ATOM     36  O   UNL     1      54.089 247.661 322.139  0.00  0.00    +0.000 OA
ATOM     37  H   UNL     1      54.529 246.805 321.982  0.00  0.00    +0.000 HD
ENDBRANCH  26  36
ENDBRANCH  21  25
ENDBRANCH   3  20
TORSDOF 5
ENDMDL
MODEL 5
REMARK VINA RESULT:      -5.7     29.831     32.396
REMARK  Name = 44234954_SipholenolL.pdbqt.pdb
REMARK  5 active torsions:
REMARK  status: ('A' for Active; 'I' for Inactive)
REMARK    1  A    between atoms: C_3  and  C_20
REMARK    2  A    between atoms: C_4  and  O_16
REMARK    3  A    between atoms: C_13  and  O_18
REMARK    4  A    between atoms: C_21  and  C_25
REMARK    5  A    between atoms: C_26  and  O_36
REMARK                            x       y       z     vdW  Elec       q    Type
REMARK                         _______ _______ _______ _____ _____    ______ ____
ROOT
ATOM      1  O   UNL     1      53.252 233.002 356.377  0.00  0.00    +0.000 OA
ATOM      2  C   UNL     1      54.491 230.814 355.692  0.00  0.00    +0.000 C 
ATOM      3  C   UNL     1      55.264 230.152 354.549  0.00  0.00    +0.000 C 
ATOM      4  C   UNL     1      56.356 230.929 353.836  0.00  0.00    +0.000 C 
ATOM      5  C   UNL     1      54.127 232.351 355.501  0.00  0.00    +0.000 C 
ATOM      6  C   UNL     1      53.151 230.225 355.835  0.00  0.00    +0.000 C 
ATOM      7  C   UNL     1      56.082 232.346 353.979  0.00  0.00    +0.000 C 
ATOM      8  C   UNL     1      55.043 233.104 354.738  0.00  0.00    +0.000 C 
ATOM      9  C   UNL     1      55.282 230.660 357.018  0.00  0.00    +0.000 C 
ATOM     10  C   UNL     1      51.713 230.622 356.058  0.00  0.00    +0.000 C 
ATOM     11  C   UNL     1      51.839 233.175 356.000  0.00  0.00    +0.000 C 
ATOM     12  C   UNL     1      57.750 230.510 354.294  0.00  0.00    +0.000 C 
ATOM     13  C   UNL     1      51.022 231.850 356.172  0.00  0.00    +0.000 C 
ATOM     14  C   UNL     1      51.275 234.244 356.975  0.00  0.00    +0.000 C 
ATOM     15  C   UNL     1      51.707 233.655 354.521  0.00  0.00    +0.000 C 
ENDROOT
BRANCH   4  16
ATOM     16  O   UNL     1      56.314 230.611 352.459  0.00  0.00    +0.000 OA
ATOM     17  H   UNL     1      55.688 231.285 352.136  0.00  0.00    +0.000 HD
ENDBRANCH   4  16
BRANCH  13  18
ATOM     18  O   UNL     1      49.633 231.842 356.206  0.00  0.00    +0.000 OA
ATOM     19  H   UNL     1      49.270 232.570 356.741  0.00  0.00    +0.000 HD
ENDBRANCH  13  18
BRANCH   3  20
ATOM     20  C   UNL     1      55.012 228.785 354.184  0.00  0.00    +0.000 C 
ATOM     21  C   UNL     1      54.709 227.332 353.802  0.00  0.00    +0.000 C 
BRANCH  21  25
ATOM     22  C   UNL     1      52.913 225.502 353.501  0.00  0.00    +0.000 A 
ATOM     23  C   UNL     1      52.571 224.023 353.069  0.00  0.00    +0.000 A 
ATOM     24  C   UNL     1      51.794 226.499 354.018  0.00  0.00    +0.000 C 
ATOM     25  C   UNL     1      54.377 225.989 353.441  0.00  0.00    +0.000 A 
ATOM     26  C   UNL     1      51.185 223.339 353.025  0.00  0.00    +0.000 C 
ATOM     27  C   UNL     1      50.550 225.724 353.981  0.00  0.00    +0.000 C 
ATOM     28  C   UNL     1      50.249 224.314 353.549  0.00  0.00    +0.000 C 
ATOM     29  C   UNL     1      53.760 223.313 352.732  0.00  0.00    +0.000 A 
ATOM     30  C   UNL     1      55.505 225.109 353.030  0.00  0.00    +0.000 A 
ATOM     31  C   UNL     1      51.677 227.700 353.048  0.00  0.00    +0.000 C 
ATOM     32  C   UNL     1      52.090 226.914 355.475  0.00  0.00    +0.000 C 
ATOM     33  C   UNL     1      55.140 223.903 352.733  0.00  0.00    +0.000 A 
ATOM     34  C   UNL     1      50.844 222.866 351.618  0.00  0.00    +0.000 C 
ATOM     35  C   UNL     1      56.929 225.534 352.816  0.00  0.00    +0.000 C 
BRANCH  26  36
ATOM     36  O   UNL     1      51.196 222.203 353.851  0.00  0.00    +0.000 OA
ATOM     37  H   UNL     1      51.841 221.640 353.384  0.00  0.00    +0.000 HD
ENDBRANCH  26  36
ENDBRANCH  21  25
ENDBRANCH   3  20
TORSDOF 5
ENDMDL
MODEL 6
REMARK VINA RESULT:      -5.7     29.012     31.623
REMARK  Name = 44234954_SipholenolL.pdbqt.pdb
REMARK  5 active torsions:
REMARK  status: ('A' for Active; 'I' for Inactive)
REMARK    1  A    between atoms: C_3  and  C_20
REMARK    2  A    between atoms: C_4  and  O_16
REMARK    3  A    between atoms: C_13  and  O_18
REMARK    4  A    between atoms: C_21  and  C_25
REMARK    5  A    between atoms: C_26  and  O_36
REMARK                            x       y       z     vdW  Elec       q    Type
REMARK                         _______ _______ _______ _____ _____    ______ ____
ROOT
ATOM      1  O   UNL     1      52.302 235.123 357.193  0.00  0.00    +0.000 OA
ATOM      2  C   UNL     1      53.799 233.226 356.216  0.00  0.00    +0.000 C 
ATOM      3  C   UNL     1      54.395 232.686 354.914  0.00  0.00    +0.000 C 
ATOM      4  C   UNL     1      55.070 233.642 353.947  0.00  0.00    +0.000 C 
ATOM      5  C   UNL     1      53.059 234.632 356.124  0.00  0.00    +0.000 C 
ATOM      6  C   UNL     1      52.705 232.365 356.693  0.00  0.00    +0.000 C 
ATOM      7  C   UNL     1      54.525 234.971 354.156  0.00  0.00    +0.000 C 
ATOM      8  C   UNL     1      53.561 235.523 355.153  0.00  0.00    +0.000 C 
ATOM      9  C   UNL     1      54.906 233.326 357.298  0.00  0.00    +0.000 C 
ATOM     10  C   UNL     1      51.316 232.448 357.274  0.00  0.00    +0.000 C 
ATOM     11  C   UNL     1      50.839 234.958 357.187  0.00  0.00    +0.000 C 
ATOM     12  C   UNL     1      56.591 233.568 354.037  0.00  0.00    +0.000 C 
ATOM     13  C   UNL     1      50.414 233.498 357.560  0.00  0.00    +0.000 C 
ATOM     14  C   UNL     1      50.305 235.931 358.273  0.00  0.00    +0.000 C 
ATOM     15  C   UNL     1      50.240 235.312 355.790  0.00  0.00    +0.000 C 
ENDROOT
BRANCH   4  16
ATOM     16  O   UNL     1      54.764 233.244 352.627  0.00  0.00    +0.000 OA
ATOM     17  H   UNL     1      55.656 233.218 352.233  0.00  0.00    +0.000 HD
ENDBRANCH   4  16
BRANCH  13  18
ATOM     18  O   UNL     1      49.116 233.186 357.945  0.00  0.00    +0.000 OA
ATOM     19  H   UNL     1      48.467 233.355 357.239  0.00  0.00    +0.000 HD
ENDBRANCH  13  18
BRANCH   3  20
ATOM     20  C   UNL     1      54.378 231.278 354.624  0.00  0.00    +0.000 C 
ATOM     21  C   UNL     1      54.342 229.784 354.286  0.00  0.00    +0.000 C 
BRANCH  21  25
ATOM     22  C   UNL     1      55.605 227.609 353.703  0.00  0.00    +0.000 A 
ATOM     23  C   UNL     1      55.527 226.078 353.330  0.00  0.00    +0.000 A 
ATOM     24  C   UNL     1      56.992 228.365 353.837  0.00  0.00    +0.000 C 
ATOM     25  C   UNL     1      54.298 228.403 353.922  0.00  0.00    +0.000 A 
ATOM     26  C   UNL     1      56.695 225.093 353.093  0.00  0.00    +0.000 C 
ATOM     27  C   UNL     1      58.006 227.349 353.539  0.00  0.00    +0.000 C 
ATOM     28  C   UNL     1      57.904 225.887 353.200  0.00  0.00    +0.000 C 
ATOM     29  C   UNL     1      54.169 225.667 353.185  0.00  0.00    +0.000 A 
ATOM     30  C   UNL     1      52.948 227.797 353.756  0.00  0.00    +0.000 A 
ATOM     31  C   UNL     1      57.176 228.862 355.291  0.00  0.00    +0.000 C 
ATOM     32  C   UNL     1      57.081 229.494 352.788  0.00  0.00    +0.000 C 
ATOM     33  C   UNL     1      52.978 226.550 353.411  0.00  0.00    +0.000 A 
ATOM     34  C   UNL     1      56.646 223.928 354.072  0.00  0.00    +0.000 C 
ATOM     35  C   UNL     1      51.637 228.454 354.078  0.00  0.00    +0.000 C 
BRANCH  26  36
ATOM     36  O   UNL     1      56.598 224.551 351.801  0.00  0.00    +0.000 OA
ATOM     37  H   UNL     1      56.439 223.611 352.006  0.00  0.00    +0.000 HD
ENDBRANCH  26  36
ENDBRANCH  21  25
ENDBRANCH   3  20
TORSDOF 5
ENDMDL
MODEL 7
REMARK VINA RESULT:      -5.6     29.849     32.575
REMARK  Name = 44234954_SipholenolL.pdbqt.pdb
REMARK  5 active torsions:
REMARK  status: ('A' for Active; 'I' for Inactive)
REMARK    1  A    between atoms: C_3  and  C_20
REMARK    2  A    between atoms: C_4  and  O_16
REMARK    3  A    between atoms: C_13  and  O_18
REMARK    4  A    between atoms: C_21  and  C_25
REMARK    5  A    between atoms: C_26  and  O_36
REMARK                            x       y       z     vdW  Elec       q    Type
REMARK                         _______ _______ _______ _____ _____    ______ ____
ROOT
ATOM      1  O   UNL     1      54.627 233.324 356.519  0.00  0.00    +0.000 OA
ATOM      2  C   UNL     1      55.255 230.933 355.696  0.00  0.00    +0.000 C 
ATOM      3  C   UNL     1      55.727 230.145 354.472  0.00  0.00    +0.000 C 
ATOM      4  C   UNL     1      56.880 230.675 353.639  0.00  0.00    +0.000 C 
ATOM      5  C   UNL     1      55.230 232.517 355.548  0.00  0.00    +0.000 C 
ATOM      6  C   UNL     1      53.841 230.657 355.990  0.00  0.00    +0.000 C 
ATOM      7  C   UNL     1      56.952 232.114 353.813  0.00  0.00    +0.000 C 
ATOM      8  C   UNL     1      56.202 233.065 354.686  0.00  0.00    +0.000 C 
ATOM      9  C   UNL     1      56.133 230.570 356.923  0.00  0.00    +0.000 C 
ATOM     10  C   UNL     1      52.564 231.361 356.376  0.00  0.00    +0.000 C 
ATOM     11  C   UNL     1      53.257 233.820 356.306  0.00  0.00    +0.000 C 
ATOM     12  C   UNL     1      58.185 229.942 353.935  0.00  0.00    +0.000 C 
ATOM     13  C   UNL     1      52.186 232.709 356.569  0.00  0.00    +0.000 C 
ATOM     14  C   UNL     1      53.061 234.963 357.339  0.00  0.00    +0.000 C 
ATOM     15  C   UNL     1      53.074 234.357 354.852  0.00  0.00    +0.000 C 
ENDROOT
BRANCH   4  16
ATOM     16  O   UNL     1      56.615 230.411 352.276  0.00  0.00    +0.000 OA
ATOM     17  H   UNL     1      56.126 231.217 352.027  0.00  0.00    +0.000 HD
ENDBRANCH   4  16
BRANCH  13  18
ATOM     18  O   UNL     1      50.844 233.012 356.762  0.00  0.00    +0.000 OA
ATOM     19  H   UNL     1      50.627 233.159 357.699  0.00  0.00    +0.000 HD
ENDBRANCH  13  18
BRANCH   3  20
ATOM     20  C   UNL     1      55.133 228.879 354.137  0.00  0.00    +0.000 C 
ATOM     21  C   UNL     1      54.527 227.524 353.758  0.00  0.00    +0.000 C 
BRANCH  21  25
ATOM     22  C   UNL     1      54.850 224.968 353.592  0.00  0.00    +0.000 A 
ATOM     23  C   UNL     1      54.240 223.567 353.201  0.00  0.00    +0.000 A 
ATOM     24  C   UNL     1      56.320 225.106 354.171  0.00  0.00    +0.000 C 
ATOM     25  C   UNL     1      54.007 226.245 353.387  0.00  0.00    +0.000 A 
ATOM     26  C   UNL     1      54.890 222.170 353.343  0.00  0.00    +0.000 C 
ATOM     27  C   UNL     1      56.842 223.736 354.206  0.00  0.00    +0.000 C 
ATOM     28  C   UNL     1      56.231 222.411 353.839  0.00  0.00    +0.000 C 
ATOM     29  C   UNL     1      52.946 223.727 352.625  0.00  0.00    +0.000 A 
ATOM     30  C   UNL     1      52.642 226.225 352.792  0.00  0.00    +0.000 A 
ATOM     31  C   UNL     1      56.262 225.668 355.611  0.00  0.00    +0.000 C 
ATOM     32  C   UNL     1      57.186 225.954 353.215  0.00  0.00    +0.000 C 
ATOM     33  C   UNL     1      52.237 225.040 352.464  0.00  0.00    +0.000 A 
ATOM     34  C   UNL     1      54.064 221.264 354.245  0.00  0.00    +0.000 C 
ATOM     35  C   UNL     1      51.706 227.393 352.682  0.00  0.00    +0.000 C 
BRANCH  26  36
ATOM     36  O   UNL     1      54.955 221.552 352.084  0.00  0.00    +0.000 OA
ATOM     37  H   UNL     1      54.059 221.729 351.744  0.00  0.00    +0.000 HD
ENDBRANCH  26  36
ENDBRANCH  21  25
ENDBRANCH   3  20
TORSDOF 5
ENDMDL
MODEL 8
REMARK VINA RESULT:      -5.1     30.865     34.573
REMARK  Name = 44234954_SipholenolL.pdbqt.pdb
REMARK  5 active torsions:
REMARK  status: ('A' for Active; 'I' for Inactive)
REMARK    1  A    between atoms: C_3  and  C_20
REMARK    2  A    between atoms: C_4  and  O_16
REMARK    3  A    between atoms: C_13  and  O_18
REMARK    4  A    between atoms: C_21  and  C_25
REMARK    5  A    between atoms: C_26  and  O_36
REMARK                            x       y       z     vdW  Elec       q    Type
REMARK                         _______ _______ _______ _____ _____    ______ ____
ROOT
ATOM      1  O   UNL     1      55.306 220.304 355.285  0.00  0.00    +0.000 OA
ATOM      2  C   UNL     1      54.926 222.882 355.297  0.00  0.00    +0.000 C 
ATOM      3  C   UNL     1      54.228 224.019 354.548  0.00  0.00    +0.000 C 
ATOM      4  C   UNL     1      52.776 223.862 354.135  0.00  0.00    +0.000 C 
ATOM      5  C   UNL     1      54.579 221.404 354.819  0.00  0.00    +0.000 C 
ATOM      6  C   UNL     1      56.379 222.915 355.071  0.00  0.00    +0.000 C 
ATOM      7  C   UNL     1      52.481 222.447 354.014  0.00  0.00    +0.000 C 
ATOM      8  C   UNL     1      53.279 221.219 354.305  0.00  0.00    +0.000 C 
ATOM      9  C   UNL     1      54.622 222.989 356.814  0.00  0.00    +0.000 C 
ATOM     10  C   UNL     1      57.541 222.000 354.774  0.00  0.00    +0.000 C 
ATOM     11  C   UNL     1      56.387 219.741 354.458  0.00  0.00    +0.000 C 
ATOM     12  C   UNL     1      51.831 224.622 355.061  0.00  0.00    +0.000 C 
ATOM     13  C   UNL     1      57.683 220.617 354.515  0.00  0.00    +0.000 C 
ATOM     14  C   UNL     1      56.695 218.346 355.067  0.00  0.00    +0.000 C 
ATOM     15  C   UNL     1      55.941 219.604 352.969  0.00  0.00    +0.000 C 
ENDROOT
BRANCH   4  16
ATOM     16  O   UNL     1      52.597 224.457 352.866  0.00  0.00    +0.000 OA
ATOM     17  H   UNL     1      51.739 224.903 352.992  0.00  0.00    +0.000 HD
ENDBRANCH   4  16
BRANCH  13  18
ATOM     18  O   UNL     1      58.918 220.132 354.103  0.00  0.00    +0.000 OA
ATOM     19  H   UNL     1      59.563 220.843 353.945  0.00  0.00    +0.000 HD
ENDBRANCH  13  18
BRANCH   3  20
ATOM     20  C   UNL     1      54.910 225.257 354.285  0.00  0.00    +0.000 C 
ATOM     21  C   UNL     1      55.653 226.574 354.038  0.00  0.00    +0.000 C 
BRANCH  21  25
ATOM     22  C   UNL     1      57.899 227.758 353.570  0.00  0.00    +0.000 A 
ATOM     23  C   UNL     1      58.670 229.114 353.330  0.00  0.00    +0.000 A 
ATOM     24  C   UNL     1      58.647 226.361 353.562  0.00  0.00    +0.000 C 
ATOM     25  C   UNL     1      56.379 227.790 353.843  0.00  0.00    +0.000 A 
ATOM     26  C   UNL     1      60.171 229.314 353.017  0.00  0.00    +0.000 C 
ATOM     27  C   UNL     1      60.054 226.686 353.313  0.00  0.00    +0.000 C 
ATOM     28  C   UNL     1      60.763 227.992 353.072  0.00  0.00    +0.000 C 
ATOM     29  C   UNL     1      57.788 230.224 353.476  0.00  0.00    +0.000 A 
ATOM     30  C   UNL     1      55.600 229.056 353.933  0.00  0.00    +0.000 A 
ATOM     31  C   UNL     1      58.110 225.489 352.402  0.00  0.00    +0.000 C 
ATOM     32  C   UNL     1      58.519 225.686 354.945  0.00  0.00    +0.000 C 
ATOM     33  C   UNL     1      56.319 230.119 353.764  0.00  0.00    +0.000 A 
ATOM     34  C   UNL     1      60.371 230.013 351.680  0.00  0.00    +0.000 C 
ATOM     35  C   UNL     1      54.109 229.172 354.059  0.00  0.00    +0.000 C 
BRANCH  26  36
ATOM     36  O   UNL     1      60.751 230.132 354.001  0.00  0.00    +0.000 OA
ATOM     37  H   UNL     1      60.518 229.642 354.811  0.00  0.00    +0.000 HD
ENDBRANCH  26  36
ENDBRANCH  21  25
ENDBRANCH   3  20
TORSDOF 5
ENDMDL
MODEL 9
REMARK VINA RESULT:      -5.1     13.894     15.141
REMARK  Name = 44234954_SipholenolL.pdbqt.pdb
REMARK  5 active torsions:
REMARK  status: ('A' for Active; 'I' for Inactive)
REMARK    1  A    between atoms: C_3  and  C_20
REMARK    2  A    between atoms: C_4  and  O_16
REMARK    3  A    between atoms: C_13  and  O_18
REMARK    4  A    between atoms: C_21  and  C_25
REMARK    5  A    between atoms: C_26  and  O_36
REMARK                            x       y       z     vdW  Elec       q    Type
REMARK                         _______ _______ _______ _____ _____    ______ ____
ROOT
ATOM      1  O   UNL     1      64.096 246.576 333.676  0.00  0.00    +0.000 OA
ATOM      2  C   UNL     1      65.302 244.617 332.451  0.00  0.00    +0.000 C 
ATOM      3  C   UNL     1      66.627 243.857 332.368  0.00  0.00    +0.000 C 
ATOM      4  C   UNL     1      67.313 243.407 333.646  0.00  0.00    +0.000 C 
ATOM      5  C   UNL     1      65.171 245.682 333.626  0.00  0.00    +0.000 C 
ATOM      6  C   UNL     1      65.111 245.477 331.272  0.00  0.00    +0.000 C 
ATOM      7  C   UNL     1      66.887 244.275 334.728  0.00  0.00    +0.000 C 
ATOM      8  C   UNL     1      65.889 245.383 334.802  0.00  0.00    +0.000 C 
ATOM      9  C   UNL     1      64.127 243.611 332.569  0.00  0.00    +0.000 C 
ATOM     10  C   UNL     1      64.653 246.863 330.894  0.00  0.00    +0.000 C 
ATOM     11  C   UNL     1      64.268 247.950 333.175  0.00  0.00    +0.000 C 
ATOM     12  C   UNL     1      67.103 241.920 333.916  0.00  0.00    +0.000 C 
ATOM     13  C   UNL     1      64.241 248.010 331.611  0.00  0.00    +0.000 C 
ATOM     14  C   UNL     1      63.058 248.751 333.730  0.00  0.00    +0.000 C 
ATOM     15  C   UNL     1      65.611 248.567 333.676  0.00  0.00    +0.000 C 
ENDROOT
BRANCH   4  16
ATOM     16  O   UNL     1      68.709 243.556 333.488  0.00  0.00    +0.000 OA
ATOM     17  H   UNL     1      68.783 244.526 333.422  0.00  0.00    +0.000 HD
ENDBRANCH   4  16
BRANCH  13  18
ATOM     18  O   UNL     1      64.046 249.201 330.923  0.00  0.00    +0.000 OA
ATOM     19  H   UNL     1      64.588 249.257 330.116  0.00  0.00    +0.000 HD
ENDBRANCH  13  18
BRANCH   3  20
ATOM     20  C   UNL     1      67.199 243.509 331.096  0.00  0.00    +0.000 C 
ATOM     21  C   UNL     1      67.782 243.156 329.724  0.00  0.00    +0.000 C 
BRANCH  21  25
ATOM     22  C   UNL     1      67.897 243.730 327.209  0.00  0.00    +0.000 A 
ATOM     23  C   UNL     1      68.505 243.402 325.791  0.00  0.00    +0.000 A 
ATOM     24  C   UNL     1      66.865 244.913 327.421  0.00  0.00    +0.000 C 
ATOM     25  C   UNL     1      68.298 242.863 328.423  0.00  0.00    +0.000 A 
ATOM     26  C   UNL     1      68.266 244.144 324.456  0.00  0.00    +0.000 C 
ATOM     27  C   UNL     1      66.681 245.498 326.089  0.00  0.00    +0.000 C 
ATOM     28  C   UNL     1      67.287 245.173 324.750  0.00  0.00    +0.000 C 
ATOM     29  C   UNL     1      69.332 242.242 325.856  0.00  0.00    +0.000 A 
ATOM     30  C   UNL     1      69.211 241.691 328.314  0.00  0.00    +0.000 A 
ATOM     31  C   UNL     1      67.477 245.976 328.366  0.00  0.00    +0.000 C 
ATOM     32  C   UNL     1      65.516 244.354 327.919  0.00  0.00    +0.000 C 
ATOM     33  C   UNL     1      69.629 241.471 327.109  0.00  0.00    +0.000 A 
ATOM     34  C   UNL     1      69.567 244.691 323.884  0.00  0.00    +0.000 C 
ATOM     35  C   UNL     1      69.756 240.883 329.455  0.00  0.00    +0.000 C 
BRANCH  26  36
ATOM     36  O   UNL     1      67.742 243.251 323.508  0.00  0.00    +0.000 OA
ATOM     37  H   UNL     1      67.135 242.727 324.063  0.00  0.00    +0.000 HD
ENDBRANCH  26  36
ENDBRANCH  21  25
ENDBRANCH   3  20
TORSDOF 5
ENDMDL
