MODEL 1
REMARK VINA RESULT:      -4.9      0.000      0.000
REMARK  Name = 442793_6gingerol.pdbqt.pdb
REMARK  7 active torsions:
REMARK  status: ('A' for Active; 'I' for Inactive)
REMARK    1  A    between atoms: C_1  and  C_3
REMARK    2  A    between atoms: C_5  and  O_6
REMARK    3  A    between atoms: C_5  and  C_8
REMARK    4  A    between atoms: C_9  and  C_10
REMARK    5  A    between atoms: C_13  and  C_14
REMARK    6  A    between atoms: C_17  and  O_20
REMARK    7  A    between atoms: C_19  and  O_22
REMARK                            x       y       z     vdW  Elec       q    Type
REMARK                         _______ _______ _______ _____ _____    ______ ____
ROOT
ATOM      1  C   UNL     1      51.247 242.234 325.905  0.00  0.00    +0.000 C 
ATOM      2  C   UNL     1      50.153 241.163 325.995  0.00  0.00    +0.000 C 
ENDROOT
BRANCH   2   3
ATOM      3  C   UNL     1      49.136 240.169 326.081  0.00  0.00    +0.000 A 
ATOM      4  C   UNL     1      49.369 238.893 325.573  0.00  0.00    +0.000 A 
ATOM      5  C   UNL     1      47.914 240.477 326.671  0.00  0.00    +0.000 A 
ATOM      6  C   UNL     1      48.381 237.907 325.649  0.00  0.00    +0.000 A 
ATOM      7  C   UNL     1      46.920 239.505 326.755  0.00  0.00    +0.000 A 
ATOM      8  C   UNL     1      47.157 238.229 326.244  0.00  0.00    +0.000 A 
BRANCH   6   9
ATOM      9  O   UNL     1      48.526 236.626 325.174  0.00  0.00    +0.000 OA
ATOM     10  C   UNL     1      49.085 236.516 323.892  0.00  0.00    +0.000 C 
ENDBRANCH   6   9
BRANCH   8  11
ATOM     11  O   UNL     1      46.177 237.278 326.329  0.00  0.00    +0.000 OA
ATOM     12  H   UNL     1      46.477 236.574 326.934  0.00  0.00    +0.000 HD
ENDBRANCH   8  11
ENDBRANCH   2   3
BRANCH   1  14
ATOM     13  O   UNL     1      52.527 243.945 326.789  0.00  0.00    +0.000 OA
ATOM     14  C   UNL     1      52.274 243.241 325.823  0.00  0.00    +0.000 C 
ATOM     15  C   UNL     1      52.998 243.415 324.594  0.00  0.00    +0.000 C 
ATOM     16  C   UNL     1      53.710 243.591 323.388  0.00  0.00    +0.000 C 
BRANCH  16  17
ATOM     17  O   UNL     1      53.577 242.617 322.428  0.00  0.00    +0.000 OA
ATOM     18  H   UNL     1      52.762 242.099 322.549  0.00  0.00    +0.000 HD
ENDBRANCH  16  17
BRANCH  16  19
ATOM     19  C   UNL     1      54.541 244.706 323.123  0.00  0.00    +0.000 C 
ATOM     20  C   UNL     1      55.433 245.918 322.831  0.00  0.00    +0.000 C 
BRANCH  20  21
ATOM     21  C   UNL     1      56.320 247.131 322.534  0.00  0.00    +0.000 C 
ATOM     22  C   UNL     1      57.207 248.344 322.236  0.00  0.00    +0.000 C 
ATOM     23  C   UNL     1      58.089 249.559 321.933  0.00  0.00    +0.000 C 
ENDBRANCH  20  21
ENDBRANCH  16  19
ENDBRANCH   1  14
TORSDOF 7
ENDMDL
MODEL 2
REMARK VINA RESULT:      -4.7      3.770     10.192
REMARK  Name = 442793_6gingerol.pdbqt.pdb
REMARK  7 active torsions:
REMARK  status: ('A' for Active; 'I' for Inactive)
REMARK    1  A    between atoms: C_1  and  C_3
REMARK    2  A    between atoms: C_5  and  O_6
REMARK    3  A    between atoms: C_5  and  C_8
REMARK    4  A    between atoms: C_9  and  C_10
REMARK    5  A    between atoms: C_13  and  C_14
REMARK    6  A    between atoms: C_17  and  O_20
REMARK    7  A    between atoms: C_19  and  O_22
REMARK                            x       y       z     vdW  Elec       q    Type
REMARK                         _______ _______ _______ _____ _____    ______ ____
ROOT
ATOM      1  C   UNL     1      49.557 240.223 326.091  0.00  0.00    +0.000 C 
ATOM      2  C   UNL     1      50.367 241.460 326.501  0.00  0.00    +0.000 C 
ENDROOT
BRANCH   2   3
ATOM      3  C   UNL     1      51.120 242.606 326.883  0.00  0.00    +0.000 A 
ATOM      4  C   UNL     1      50.530 243.594 327.669  0.00  0.00    +0.000 A 
ATOM      5  C   UNL     1      52.443 242.737 326.470  0.00  0.00    +0.000 A 
ATOM      6  C   UNL     1      51.256 244.725 328.051  0.00  0.00    +0.000 A 
ATOM      7  C   UNL     1      53.178 243.858 326.844  0.00  0.00    +0.000 A 
ATOM      8  C   UNL     1      52.583 244.845 327.630  0.00  0.00    +0.000 A 
BRANCH   6   9
ATOM      9  O   UNL     1      50.753 245.745 328.822  0.00  0.00    +0.000 OA
ATOM     10  C   UNL     1      50.592 245.452 330.185  0.00  0.00    +0.000 C 
ENDBRANCH   6   9
BRANCH   8  11
ATOM     11  O   UNL     1      53.311 245.944 327.993  0.00  0.00    +0.000 OA
ATOM     12  H   UNL     1      54.004 246.095 327.324  0.00  0.00    +0.000 HD
ENDBRANCH   8  11
ENDBRANCH   2   3
BRANCH   1  14
ATOM     13  O   UNL     1      47.851 238.689 326.384  0.00  0.00    +0.000 OA
ATOM     14  C   UNL     1      48.799 239.059 325.707  0.00  0.00    +0.000 C 
ATOM     15  C   UNL     1      49.168 238.335 324.522  0.00  0.00    +0.000 C 
ATOM     16  C   UNL     1      49.527 237.619 323.360  0.00  0.00    +0.000 C 
BRANCH  16  17
ATOM     17  O   UNL     1      50.419 238.214 322.501  0.00  0.00    +0.000 OA
ATOM     18  H   UNL     1      50.348 237.855 321.600  0.00  0.00    +0.000 HD
ENDBRANCH  16  17
BRANCH  16  19
ATOM     19  C   UNL     1      49.023 236.334 323.043  0.00  0.00    +0.000 C 
ATOM     20  C   UNL     1      48.469 234.948 322.695  0.00  0.00    +0.000 C 
BRANCH  20  21
ATOM     21  C   UNL     1      47.911 233.565 322.345  0.00  0.00    +0.000 C 
ATOM     22  C   UNL     1      47.351 232.183 321.993  0.00  0.00    +0.000 C 
ATOM     23  C   UNL     1      46.790 230.803 321.634  0.00  0.00    +0.000 C 
ENDBRANCH  20  21
ENDBRANCH  16  19
ENDBRANCH   1  14
TORSDOF 7
ENDMDL
MODEL 3
REMARK VINA RESULT:      -4.6     17.185     19.696
REMARK  Name = 442793_6gingerol.pdbqt.pdb
REMARK  7 active torsions:
REMARK  status: ('A' for Active; 'I' for Inactive)
REMARK    1  A    between atoms: C_1  and  C_3
REMARK    2  A    between atoms: C_5  and  O_6
REMARK    3  A    between atoms: C_5  and  C_8
REMARK    4  A    between atoms: C_9  and  C_10
REMARK    5  A    between atoms: C_13  and  C_14
REMARK    6  A    between atoms: C_17  and  O_20
REMARK    7  A    between atoms: C_19  and  O_22
REMARK                            x       y       z     vdW  Elec       q    Type
REMARK                         _______ _______ _______ _____ _____    ______ ____
ROOT
ATOM      1  C   UNL     1      57.035 224.023 323.485  0.00  0.00    +0.000 C 
ATOM      2  C   UNL     1      57.980 223.737 324.658  0.00  0.00    +0.000 C 
ENDROOT
BRANCH   2   3
ATOM      3  C   UNL     1      58.857 223.474 325.748  0.00  0.00    +0.000 A 
ATOM      4  C   UNL     1      60.211 223.241 325.509  0.00  0.00    +0.000 A 
ATOM      5  C   UNL     1      58.361 223.450 327.048  0.00  0.00    +0.000 A 
ATOM      6  C   UNL     1      61.084 222.980 326.569  0.00  0.00    +0.000 A 
ATOM      7  C   UNL     1      59.220 223.192 328.114  0.00  0.00    +0.000 A 
ATOM      8  C   UNL     1      60.573 222.959 327.870  0.00  0.00    +0.000 A 
BRANCH   6   9
ATOM      9  O   UNL     1      62.429 222.740 326.423  0.00  0.00    +0.000 OA
ATOM     10  C   UNL     1      63.202 223.842 326.029  0.00  0.00    +0.000 C 
ENDBRANCH   6   9
BRANCH   8  11
ATOM     11  O   UNL     1      61.411 222.706 328.920  0.00  0.00    +0.000 OA
ATOM     12  H   UNL     1      61.547 223.534 329.418  0.00  0.00    +0.000 HD
ENDBRANCH   8  11
ENDBRANCH   2   3
BRANCH   1  14
ATOM     13  O   UNL     1      55.278 223.490 322.079  0.00  0.00    +0.000 OA
ATOM     14  C   UNL     1      56.145 224.294 322.384  0.00  0.00    +0.000 C 
ATOM     15  C   UNL     1      56.287 225.518 321.645  0.00  0.00    +0.000 C 
ATOM     16  C   UNL     1      56.424 226.718 320.915  0.00  0.00    +0.000 C 
BRANCH  16  17
ATOM     17  O   UNL     1      57.227 227.696 321.450  0.00  0.00    +0.000 OA
ATOM     18  H   UNL     1      57.714 228.182 320.762  0.00  0.00    +0.000 HD
ENDBRANCH  16  17
BRANCH  16  19
ATOM     19  C   UNL     1      55.786 226.959 319.673  0.00  0.00    +0.000 C 
ATOM     20  C   UNL     1      55.098 227.229 318.331  0.00  0.00    +0.000 C 
BRANCH  20  21
ATOM     21  C   UNL     1      54.411 227.504 316.990  0.00  0.00    +0.000 C 
ATOM     22  C   UNL     1      53.726 227.781 315.648  0.00  0.00    +0.000 C 
ATOM     23  C   UNL     1      53.048 228.061 314.303  0.00  0.00    +0.000 C 
ENDBRANCH  20  21
ENDBRANCH  16  19
ENDBRANCH   1  14
TORSDOF 7
ENDMDL
MODEL 4
REMARK VINA RESULT:      -4.5     30.703     31.419
REMARK  Name = 442793_6gingerol.pdbqt.pdb
REMARK  7 active torsions:
REMARK  status: ('A' for Active; 'I' for Inactive)
REMARK    1  A    between atoms: C_1  and  C_3
REMARK    2  A    between atoms: C_5  and  O_6
REMARK    3  A    between atoms: C_5  and  C_8
REMARK    4  A    between atoms: C_9  and  C_10
REMARK    5  A    between atoms: C_13  and  C_14
REMARK    6  A    between atoms: C_17  and  O_20
REMARK    7  A    between atoms: C_19  and  O_22
REMARK                            x       y       z     vdW  Elec       q    Type
REMARK                         _______ _______ _______ _____ _____    ______ ____
ROOT
ATOM      1  C   UNL     1      71.842 222.849 337.753  0.00  0.00    +0.000 C 
ATOM      2  C   UNL     1      70.691 221.921 338.159  0.00  0.00    +0.000 C 
ENDROOT
BRANCH   2   3
ATOM      3  C   UNL     1      69.622 221.057 338.533  0.00  0.00    +0.000 A 
ATOM      4  C   UNL     1      68.450 221.037 337.779  0.00  0.00    +0.000 A 
ATOM      5  C   UNL     1      69.751 220.236 339.650  0.00  0.00    +0.000 A 
ATOM      6  C   UNL     1      67.392 220.196 338.134  0.00  0.00    +0.000 A 
ATOM      7  C   UNL     1      68.705 219.393 340.015  0.00  0.00    +0.000 A 
ATOM      8  C   UNL     1      67.534 219.377 339.258  0.00  0.00    +0.000 A 
BRANCH   6   9
ATOM      9  O   UNL     1      66.204 220.114 337.449  0.00  0.00    +0.000 OA
ATOM     10  C   UNL     1      66.306 219.720 336.105  0.00  0.00    +0.000 C 
ENDBRANCH   6   9
BRANCH   8  11
ATOM     11  O   UNL     1      66.511 218.546 339.621  0.00  0.00    +0.000 OA
ATOM     12  H   UNL     1      66.181 218.089 338.825  0.00  0.00    +0.000 HD
ENDBRANCH   8  11
ENDBRANCH   2   3
BRANCH   1  14
ATOM     13  O   UNL     1      73.097 224.010 336.196  0.00  0.00    +0.000 OA
ATOM     14  C   UNL     1      72.925 223.720 337.370  0.00  0.00    +0.000 C 
ATOM     15  C   UNL     1      73.802 224.244 338.380  0.00  0.00    +0.000 C 
ATOM     16  C   UNL     1      74.668 224.760 339.368  0.00  0.00    +0.000 C 
BRANCH  16  17
ATOM     17  O   UNL     1      74.283 224.623 340.680  0.00  0.00    +0.000 OA
ATOM     18  H   UNL     1      73.749 223.822 340.818  0.00  0.00    +0.000 HD
ENDBRANCH  16  17
BRANCH  16  19
ATOM     19  C   UNL     1      75.898 225.400 339.077  0.00  0.00    +0.000 C 
ATOM     20  C   UNL     1      77.229 226.094 338.772  0.00  0.00    +0.000 C 
BRANCH  20  21
ATOM     21  C   UNL     1      78.560 226.791 338.473  0.00  0.00    +0.000 C 
ATOM     22  C   UNL     1      79.891 227.490 338.175  0.00  0.00    +0.000 C 
ATOM     23  C   UNL     1      81.220 228.193 337.883  0.00  0.00    +0.000 C 
ENDBRANCH  20  21
ENDBRANCH  16  19
ENDBRANCH   1  14
TORSDOF 7
ENDMDL
MODEL 5
REMARK VINA RESULT:      -4.5     29.886     31.144
REMARK  Name = 442793_6gingerol.pdbqt.pdb
REMARK  7 active torsions:
REMARK  status: ('A' for Active; 'I' for Inactive)
REMARK    1  A    between atoms: C_1  and  C_3
REMARK    2  A    between atoms: C_5  and  O_6
REMARK    3  A    between atoms: C_5  and  C_8
REMARK    4  A    between atoms: C_9  and  C_10
REMARK    5  A    between atoms: C_13  and  C_14
REMARK    6  A    between atoms: C_17  and  O_20
REMARK    7  A    between atoms: C_19  and  O_22
REMARK                            x       y       z     vdW  Elec       q    Type
REMARK                         _______ _______ _______ _____ _____    ______ ____
ROOT
ATOM      1  C   UNL     1      69.744 220.779 338.768  0.00  0.00    +0.000 C 
ATOM      2  C   UNL     1      68.646 220.524 337.728  0.00  0.00    +0.000 C 
ENDROOT
BRANCH   2   3
ATOM      3  C   UNL     1      67.625 220.289 336.763  0.00  0.00    +0.000 A 
ATOM      4  C   UNL     1      66.461 219.618 337.134  0.00  0.00    +0.000 A 
ATOM      5  C   UNL     1      67.793 220.731 335.454  0.00  0.00    +0.000 A 
ATOM      6  C   UNL     1      65.451 219.379 336.198  0.00  0.00    +0.000 A 
ATOM      7  C   UNL     1      66.794 220.500 334.511  0.00  0.00    +0.000 A 
ATOM      8  C   UNL     1      65.631 219.827 334.886  0.00  0.00    +0.000 A 
BRANCH   6   9
ATOM      9  O   UNL     1      64.275 218.726 336.478  0.00  0.00    +0.000 OA
ATOM     10  C   UNL     1      64.374 217.333 336.616  0.00  0.00    +0.000 C 
ENDBRANCH   6   9
BRANCH   8  11
ATOM     11  O   UNL     1      64.654 219.604 333.956  0.00  0.00    +0.000 OA
ATOM     12  H   UNL     1      63.822 219.999 334.277  0.00  0.00    +0.000 HD
ENDBRANCH   8  11
ENDBRANCH   2   3
BRANCH   1  14
ATOM     13  O   UNL     1      70.873 220.304 340.729  0.00  0.00    +0.000 OA
ATOM     14  C   UNL     1      70.775 221.022 339.745  0.00  0.00    +0.000 C 
ATOM     15  C   UNL     1      71.685 222.116 339.555  0.00  0.00    +0.000 C 
ATOM     16  C   UNL     1      72.581 223.193 339.375  0.00  0.00    +0.000 C 
BRANCH  16  17
ATOM     17  O   UNL     1      72.599 223.800 338.143  0.00  0.00    +0.000 OA
ATOM     18  H   UNL     1      72.765 224.756 338.213  0.00  0.00    +0.000 HD
ENDBRANCH  16  17
BRANCH  16  19
ATOM     19  C   UNL     1      73.448 223.671 340.388  0.00  0.00    +0.000 C 
ATOM     20  C   UNL     1      74.393 224.184 341.479  0.00  0.00    +0.000 C 
BRANCH  20  21
ATOM     21  C   UNL     1      75.343 224.693 342.567  0.00  0.00    +0.000 C 
ATOM     22  C   UNL     1      76.293 225.201 343.657  0.00  0.00    +0.000 C 
ATOM     23  C   UNL     1      77.244 225.701 344.749  0.00  0.00    +0.000 C 
ENDBRANCH  20  21
ENDBRANCH  16  19
ENDBRANCH   1  14
TORSDOF 7
ENDMDL
MODEL 6
REMARK VINA RESULT:      -4.5      4.089      6.691
REMARK  Name = 442793_6gingerol.pdbqt.pdb
REMARK  7 active torsions:
REMARK  status: ('A' for Active; 'I' for Inactive)
REMARK    1  A    between atoms: C_1  and  C_3
REMARK    2  A    between atoms: C_5  and  O_6
REMARK    3  A    between atoms: C_5  and  C_8
REMARK    4  A    between atoms: C_9  and  C_10
REMARK    5  A    between atoms: C_13  and  C_14
REMARK    6  A    between atoms: C_17  and  O_20
REMARK    7  A    between atoms: C_19  and  O_22
REMARK                            x       y       z     vdW  Elec       q    Type
REMARK                         _______ _______ _______ _____ _____    ______ ____
ROOT
ATOM      1  C   UNL     1      47.444 237.737 324.373  0.00  0.00    +0.000 C 
ATOM      2  C   UNL     1      47.303 236.237 324.086  0.00  0.00    +0.000 C 
ENDROOT
BRANCH   2   3
ATOM      3  C   UNL     1      47.172 234.845 323.817  0.00  0.00    +0.000 A 
ATOM      4  C   UNL     1      46.009 234.173 324.191  0.00  0.00    +0.000 A 
ATOM      5  C   UNL     1      48.204 234.160 323.183  0.00  0.00    +0.000 A 
ATOM      6  C   UNL     1      45.866 232.806 323.935  0.00  0.00    +0.000 A 
ATOM      7  C   UNL     1      48.074 232.798 322.921  0.00  0.00    +0.000 A 
ATOM      8  C   UNL     1      46.910 232.130 323.297  0.00  0.00    +0.000 A 
BRANCH   6   9
ATOM      9  O   UNL     1      44.757 232.067 324.270  0.00  0.00    +0.000 OA
ATOM     10  C   UNL     1      44.466 231.999 325.641  0.00  0.00    +0.000 C 
ENDBRANCH   6   9
BRANCH   8  11
ATOM     11  O   UNL     1      46.789 230.793 323.037  0.00  0.00    +0.000 OA
ATOM     12  H   UNL     1      47.666 230.441 322.795  0.00  0.00    +0.000 HD
ENDBRANCH   8  11
ENDBRANCH   2   3
BRANCH   1  14
ATOM     13  O   UNL     1      46.733 239.933 324.235  0.00  0.00    +0.000 OA
ATOM     14  C   UNL     1      47.576 239.147 324.640  0.00  0.00    +0.000 C 
ATOM     15  C   UNL     1      48.709 239.622 325.384  0.00  0.00    +0.000 C 
ATOM     16  C   UNL     1      49.822 240.095 326.113  0.00  0.00    +0.000 C 
BRANCH  16  17
ATOM     17  O   UNL     1      50.593 239.163 326.764  0.00  0.00    +0.000 OA
ATOM     18  H   UNL     1      50.075 238.378 327.017  0.00  0.00    +0.000 HD
ENDBRANCH  16  17
BRANCH  16  19
ATOM     19  C   UNL     1      50.179 241.463 326.201  0.00  0.00    +0.000 C 
ATOM     20  C   UNL     1      50.555 242.945 326.301  0.00  0.00    +0.000 C 
BRANCH  20  21
ATOM     21  C   UNL     1      50.925 244.428 326.401  0.00  0.00    +0.000 C 
ATOM     22  C   UNL     1      51.296 245.911 326.499  0.00  0.00    +0.000 C 
ATOM     23  C   UNL     1      51.666 247.395 326.589  0.00  0.00    +0.000 C 
ENDBRANCH  20  21
ENDBRANCH  16  19
ENDBRANCH   1  14
TORSDOF 7
ENDMDL
MODEL 7
REMARK VINA RESULT:      -4.3     30.868     32.593
REMARK  Name = 442793_6gingerol.pdbqt.pdb
REMARK  7 active torsions:
REMARK  status: ('A' for Active; 'I' for Inactive)
REMARK    1  A    between atoms: C_1  and  C_3
REMARK    2  A    between atoms: C_5  and  O_6
REMARK    3  A    between atoms: C_5  and  C_8
REMARK    4  A    between atoms: C_9  and  C_10
REMARK    5  A    between atoms: C_13  and  C_14
REMARK    6  A    between atoms: C_17  and  O_20
REMARK    7  A    between atoms: C_19  and  O_22
REMARK                            x       y       z     vdW  Elec       q    Type
REMARK                         _______ _______ _______ _____ _____    ______ ____
ROOT
ATOM      1  C   UNL     1      69.931 221.327 339.068  0.00  0.00    +0.000 C 
ATOM      2  C   UNL     1      69.046 220.952 337.873  0.00  0.00    +0.000 C 
ENDROOT
BRANCH   2   3
ATOM      3  C   UNL     1      68.227 220.604 336.761  0.00  0.00    +0.000 A 
ATOM      4  C   UNL     1      66.907 220.208 336.969  0.00  0.00    +0.000 A 
ATOM      5  C   UNL     1      68.748 220.659 335.471  0.00  0.00    +0.000 A 
ATOM      6  C   UNL     1      66.091 219.862 335.888  0.00  0.00    +0.000 A 
ATOM      7  C   UNL     1      67.946 220.318 334.385  0.00  0.00    +0.000 A 
ATOM      8  C   UNL     1      66.626 219.922 334.598  0.00  0.00    +0.000 A 
BRANCH   6   9
ATOM      9  O   UNL     1      64.782 219.461 336.003  0.00  0.00    +0.000 OA
ATOM     10  C   UNL     1      64.589 218.145 336.451  0.00  0.00    +0.000 C 
ENDBRANCH   6   9
BRANCH   8  11
ATOM     11  O   UNL     1      65.844 219.588 333.527  0.00  0.00    +0.000 OA
ATOM     12  H   UNL     1      65.251 220.336 333.327  0.00  0.00    +0.000 HD
ENDBRANCH   8  11
ENDBRANCH   2   3
BRANCH   1  14
ATOM     13  O   UNL     1      71.546 222.614 340.109  0.00  0.00    +0.000 OA
ATOM     14  C   UNL     1      70.764 221.679 340.190  0.00  0.00    +0.000 C 
ATOM     15  C   UNL     1      70.671 220.918 341.405  0.00  0.00    +0.000 C 
ATOM     16  C   UNL     1      70.585 220.173 342.602  0.00  0.00    +0.000 C 
BRANCH  16  17
ATOM     17  O   UNL     1      69.522 219.313 342.735  0.00  0.00    +0.000 OA
ATOM     18  H   UNL     1      69.119 219.101 341.875  0.00  0.00    +0.000 HD
ENDBRANCH  16  17
BRANCH  16  19
ATOM     19  C   UNL     1      71.528 220.266 343.654  0.00  0.00    +0.000 C 
ATOM     20  C   UNL     1      72.542 220.371 344.799  0.00  0.00    +0.000 C 
BRANCH  20  21
ATOM     21  C   UNL     1      73.551 220.479 345.946  0.00  0.00    +0.000 C 
ATOM     22  C   UNL     1      74.560 220.589 347.093  0.00  0.00    +0.000 C 
ATOM     23  C   UNL     1      75.570 220.706 348.239  0.00  0.00    +0.000 C 
ENDBRANCH  20  21
ENDBRANCH  16  19
ENDBRANCH   1  14
TORSDOF 7
ENDMDL
MODEL 8
REMARK VINA RESULT:      -4.3      2.906     11.385
REMARK  Name = 442793_6gingerol.pdbqt.pdb
REMARK  7 active torsions:
REMARK  status: ('A' for Active; 'I' for Inactive)
REMARK    1  A    between atoms: C_1  and  C_3
REMARK    2  A    between atoms: C_5  and  O_6
REMARK    3  A    between atoms: C_5  and  C_8
REMARK    4  A    between atoms: C_9  and  C_10
REMARK    5  A    between atoms: C_13  and  C_14
REMARK    6  A    between atoms: C_17  and  O_20
REMARK    7  A    between atoms: C_19  and  O_22
REMARK                            x       y       z     vdW  Elec       q    Type
REMARK                         _______ _______ _______ _____ _____    ______ ____
ROOT
ATOM      1  C   UNL     1      54.465 244.657 323.144  0.00  0.00    +0.000 C 
ATOM      2  C   UNL     1      55.321 245.913 322.933  0.00  0.00    +0.000 C 
ENDROOT
BRANCH   2   3
ATOM      3  C   UNL     1      56.117 247.077 322.736  0.00  0.00    +0.000 A 
ATOM      4  C   UNL     1      57.035 247.120 321.688  0.00  0.00    +0.000 A 
ATOM      5  C   UNL     1      55.976 248.167 323.590  0.00  0.00    +0.000 A 
ATOM      6  C   UNL     1      57.824 248.255 321.482  0.00  0.00    +0.000 A 
ATOM      7  C   UNL     1      56.755 249.305 323.396  0.00  0.00    +0.000 A 
ATOM      8  C   UNL     1      57.673 249.343 322.347  0.00  0.00    +0.000 A 
BRANCH   6   9
ATOM      9  O   UNL     1      58.752 248.381 320.478  0.00  0.00    +0.000 OA
ATOM     10  C   UNL     1      58.293 248.076 319.187  0.00  0.00    +0.000 C 
ENDBRANCH   6   9
BRANCH   8  11
ATOM     11  O   UNL     1      58.435 250.463 322.162  0.00  0.00    +0.000 OA
ATOM     12  H   UNL     1      59.002 250.330 321.379  0.00  0.00    +0.000 HD
ENDBRANCH   8  11
ENDBRANCH   2   3
BRANCH   1  14
ATOM     13  O   UNL     1      53.633 242.602 322.486  0.00  0.00    +0.000 OA
ATOM     14  C   UNL     1      53.662 243.477 323.339  0.00  0.00    +0.000 C 
ATOM     15  C   UNL     1      52.892 243.337 324.543  0.00  0.00    +0.000 C 
ATOM     16  C   UNL     1      52.132 243.195 325.725  0.00  0.00    +0.000 C 
BRANCH  16  17
ATOM     17  O   UNL     1      52.397 244.065 326.755  0.00  0.00    +0.000 OA
ATOM     18  H   UNL     1      52.739 244.916 326.431  0.00  0.00    +0.000 HD
ENDBRANCH  16  17
BRANCH  16  19
ATOM     19  C   UNL     1      51.123 242.216 325.896  0.00  0.00    +0.000 C 
ATOM     20  C   UNL     1      50.037 241.152 326.087  0.00  0.00    +0.000 C 
BRANCH  20  21
ATOM     21  C   UNL     1      48.957 240.084 326.281  0.00  0.00    +0.000 C 
ATOM     22  C   UNL     1      47.877 239.014 326.476  0.00  0.00    +0.000 C 
ATOM     23  C   UNL     1      46.801 237.942 326.677  0.00  0.00    +0.000 C 
ENDBRANCH  20  21
ENDBRANCH  16  19
ENDBRANCH   1  14
TORSDOF 7
ENDMDL
MODEL 9
REMARK VINA RESULT:      -4.2     27.708     30.397
REMARK  Name = 442793_6gingerol.pdbqt.pdb
REMARK  7 active torsions:
REMARK  status: ('A' for Active; 'I' for Inactive)
REMARK    1  A    between atoms: C_1  and  C_3
REMARK    2  A    between atoms: C_5  and  O_6
REMARK    3  A    between atoms: C_5  and  C_8
REMARK    4  A    between atoms: C_9  and  C_10
REMARK    5  A    between atoms: C_13  and  C_14
REMARK    6  A    between atoms: C_17  and  O_20
REMARK    7  A    between atoms: C_19  and  O_22
REMARK                            x       y       z     vdW  Elec       q    Type
REMARK                         _______ _______ _______ _____ _____    ______ ____
ROOT
ATOM      1  C   UNL     1      69.020 220.504 335.100  0.00  0.00    +0.000 C 
ATOM      2  C   UNL     1      69.825 221.233 336.183  0.00  0.00    +0.000 C 
ENDROOT
BRANCH   2   3
ATOM      3  C   UNL     1      70.574 221.909 337.187  0.00  0.00    +0.000 A 
ATOM      4  C   UNL     1      71.782 222.521 336.857  0.00  0.00    +0.000 A 
ATOM      5  C   UNL     1      70.098 221.958 338.494  0.00  0.00    +0.000 A 
ATOM      6  C   UNL     1      72.530 223.188 337.832  0.00  0.00    +0.000 A 
ATOM      7  C   UNL     1      70.832 222.620 339.475  0.00  0.00    +0.000 A 
ATOM      8  C   UNL     1      72.041 223.229 339.141  0.00  0.00    +0.000 A 
BRANCH   6   9
ATOM      9  O   UNL     1      73.729 223.815 337.594  0.00  0.00    +0.000 OA
ATOM     10  C   UNL     1      73.652 225.012 336.866  0.00  0.00    +0.000 C 
ENDBRANCH   6   9
BRANCH   8  11
ATOM     11  O   UNL     1      72.757 223.877 340.109  0.00  0.00    +0.000 OA
ATOM     12  H   UNL     1      72.159 224.479 340.590  0.00  0.00    +0.000 HD
ENDBRANCH   8  11
ENDBRANCH   2   3
BRANCH   1  14
ATOM     13  O   UNL     1      68.842 219.242 333.170  0.00  0.00    +0.000 OA
ATOM     14  C   UNL     1      68.266 219.819 334.080  0.00  0.00    +0.000 C 
ATOM     15  C   UNL     1      66.831 219.823 334.140  0.00  0.00    +0.000 C 
ATOM     16  C   UNL     1      65.420 219.825 334.193  0.00  0.00    +0.000 C 
BRANCH  16  17
ATOM     17  O   UNL     1      64.832 220.253 335.358  0.00  0.00    +0.000 OA
ATOM     18  H   UNL     1      65.433 220.812 335.882  0.00  0.00    +0.000 HD
ENDBRANCH  16  17
BRANCH  16  19
ATOM     19  C   UNL     1      64.594 219.415 333.118  0.00  0.00    +0.000 C 
ATOM     20  C   UNL     1      63.700 218.980 331.952  0.00  0.00    +0.000 C 
BRANCH  20  21
ATOM     21  C   UNL     1      62.806 218.552 330.784  0.00  0.00    +0.000 C 
ATOM     22  C   UNL     1      61.911 218.122 329.617  0.00  0.00    +0.000 C 
ATOM     23  C   UNL     1      61.016 217.685 328.453  0.00  0.00    +0.000 C 
ENDBRANCH  20  21
ENDBRANCH  16  19
ENDBRANCH   1  14
TORSDOF 7
ENDMDL
