MODEL 1
REMARK VINA RESULT:      -6.1      0.000      0.000
REMARK  Name = 44423609_SipholenoneA.pdbqt.pdb
REMARK  4 active torsions:
REMARK  status: ('A' for Active; 'I' for Inactive)
REMARK    1  A    between atoms: C_3  and  C_19
REMARK    2  A    between atoms: C_5  and  O_17
REMARK    3  A    between atoms: C_20  and  C_24
REMARK    4  A    between atoms: C_25  and  O_35
REMARK                            x       y       z     vdW  Elec       q    Type
REMARK                         _______ _______ _______ _____ _____    ______ ____
ROOT
ATOM      1  O   UNL     1      75.172 224.149 337.901  0.00  0.00    +0.000 OA
ATOM      2  O   UNL     1      75.911 225.573 334.566  0.00  0.00    +0.000 OA
ATOM      3  C   UNL     1      71.900 221.984 337.434  0.00  0.00    +0.000 C 
ATOM      4  C   UNL     1      73.364 222.386 337.271  0.00  0.00    +0.000 C 
ATOM      5  C   UNL     1      71.200 222.173 338.770  0.00  0.00    +0.000 C 
ATOM      6  C   UNL     1      73.903 223.605 338.130  0.00  0.00    +0.000 C 
ATOM      7  C   UNL     1      71.988 223.074 339.589  0.00  0.00    +0.000 C 
ATOM      8  C   UNL     1      73.269 223.808 339.371  0.00  0.00    +0.000 C 
ATOM      9  C   UNL     1      73.620 222.873 335.905  0.00  0.00    +0.000 C 
ATOM     10  C   UNL     1      74.274 221.160 337.564  0.00  0.00    +0.000 C 
ATOM     11  C   UNL     1      69.773 222.695 338.572  0.00  0.00    +0.000 C 
ATOM     12  C   UNL     1      74.432 223.918 335.171  0.00  0.00    +0.000 C 
ATOM     13  C   UNL     1      75.318 225.340 337.056  0.00  0.00    +0.000 C 
ATOM     14  C   UNL     1      75.320 225.014 335.481  0.00  0.00    +0.000 C 
ATOM     15  C   UNL     1      76.690 225.961 337.477  0.00  0.00    +0.000 C 
ATOM     16  C   UNL     1      74.173 226.376 337.365  0.00  0.00    +0.000 C 
ENDROOT
BRANCH   5  17
ATOM     17  O   UNL     1      71.071 220.932 339.417  0.00  0.00    +0.000 OA
ATOM     18  H   UNL     1      71.153 220.318 338.665  0.00  0.00    +0.000 HD
ENDBRANCH   5  17
BRANCH   3  19
ATOM     19  C   UNL     1      71.269 221.194 336.408  0.00  0.00    +0.000 C 
ATOM     20  C   UNL     1      70.587 220.361 335.320  0.00  0.00    +0.000 C 
BRANCH  20  24
ATOM     21  C   UNL     1      67.362 219.121 334.207  0.00  0.00    +0.000 C 
ATOM     22  C   UNL     1      68.766 218.620 334.628  0.00  0.00    +0.000 C 
ATOM     23  C   UNL     1      66.901 219.360 332.792  0.00  0.00    +0.000 C 
ATOM     24  C   UNL     1      69.942 219.575 334.307  0.00  0.00    +0.000 C 
ATOM     25  C   UNL     1      65.441 219.810 332.737  0.00  0.00    +0.000 C 
ATOM     26  C   UNL     1      66.243 219.381 335.048  0.00  0.00    +0.000 C 
ATOM     27  C   UNL     1      65.102 219.781 334.154  0.00  0.00    +0.000 C 
ATOM     28  C   UNL     1      67.929 219.659 331.874  0.00  0.00    +0.000 C 
ATOM     29  C   UNL     1      70.363 219.768 332.918  0.00  0.00    +0.000 C 
ATOM     30  C   UNL     1      68.738 218.351 336.182  0.00  0.00    +0.000 C 
ATOM     31  C   UNL     1      69.017 217.227 333.956  0.00  0.00    +0.000 C 
ATOM     32  C   UNL     1      69.420 219.804 332.030  0.00  0.00    +0.000 C 
ATOM     33  C   UNL     1      64.604 218.925 331.829  0.00  0.00    +0.000 C 
ATOM     34  C   UNL     1      71.698 220.340 332.517  0.00  0.00    +0.000 C 
BRANCH  25  35
ATOM     35  O   UNL     1      65.349 221.122 332.237  0.00  0.00    +0.000 OA
ATOM     36  H   UNL     1      65.754 221.622 332.966  0.00  0.00    +0.000 HD
ENDBRANCH  25  35
ENDBRANCH  20  24
ENDBRANCH   3  19
TORSDOF 4
ENDMDL
MODEL 2
REMARK VINA RESULT:      -5.8     12.651     16.843
REMARK  Name = 44423609_SipholenoneA.pdbqt.pdb
REMARK  4 active torsions:
REMARK  status: ('A' for Active; 'I' for Inactive)
REMARK    1  A    between atoms: C_3  and  C_19
REMARK    2  A    between atoms: C_5  and  O_17
REMARK    3  A    between atoms: C_20  and  C_24
REMARK    4  A    between atoms: C_25  and  O_35
REMARK                            x       y       z     vdW  Elec       q    Type
REMARK                         _______ _______ _______ _____ _____    ______ ____
ROOT
ATOM      1  O   UNL     1      61.583 227.788 320.037  0.00  0.00    +0.000 OA
ATOM      2  O   UNL     1      58.168 226.603 319.247  0.00  0.00    +0.000 OA
ATOM      3  C   UNL     1      62.224 226.763 323.799  0.00  0.00    +0.000 C 
ATOM      4  C   UNL     1      61.993 226.572 322.301  0.00  0.00    +0.000 C 
ATOM      5  C   UNL     1      63.087 227.910 324.298  0.00  0.00    +0.000 C 
ATOM      6  C   UNL     1      61.972 227.862 321.379  0.00  0.00    +0.000 C 
ATOM      7  C   UNL     1      63.255 228.872 323.226  0.00  0.00    +0.000 C 
ATOM      8  C   UNL     1      62.759 228.943 321.821  0.00  0.00    +0.000 C 
ATOM      9  C   UNL     1      60.648 226.027 322.048  0.00  0.00    +0.000 C 
ATOM     10  C   UNL     1      63.062 225.598 321.731  0.00  0.00    +0.000 C 
ATOM     11  C   UNL     1      62.473 228.556 325.544  0.00  0.00    +0.000 C 
ATOM     12  C   UNL     1      59.511 226.138 321.055  0.00  0.00    +0.000 C 
ATOM     13  C   UNL     1      60.206 228.116 319.653  0.00  0.00    +0.000 C 
ATOM     14  C   UNL     1      59.170 226.906 319.881  0.00  0.00    +0.000 C 
ATOM     15  C   UNL     1      60.289 228.470 318.133  0.00  0.00    +0.000 C 
ATOM     16  C   UNL     1      59.701 229.380 320.444  0.00  0.00    +0.000 C 
ENDROOT
BRANCH   5  17
ATOM     17  O   UNL     1      64.342 227.419 324.697  0.00  0.00    +0.000 OA
ATOM     18  H   UNL     1      64.464 226.683 324.071  0.00  0.00    +0.000 HD
ENDBRANCH   5  17
BRANCH   3  19
ATOM     19  C   UNL     1      61.841 225.714 324.709  0.00  0.00    +0.000 C 
ATOM     20  C   UNL     1      61.428 224.594 325.667  0.00  0.00    +0.000 C 
BRANCH  20  24
ATOM     21  C   UNL     1      58.790 222.201 326.366  0.00  0.00    +0.000 C 
ATOM     22  C   UNL     1      59.565 223.368 327.027  0.00  0.00    +0.000 C 
ATOM     23  C   UNL     1      59.111 220.736 326.516  0.00  0.00    +0.000 C 
ATOM     24  C   UNL     1      61.031 223.546 326.562  0.00  0.00    +0.000 C 
ATOM     25  C   UNL     1      58.114 219.854 325.762  0.00  0.00    +0.000 C 
ATOM     26  C   UNL     1      57.615 222.279 325.564  0.00  0.00    +0.000 C 
ATOM     27  C   UNL     1      57.219 220.870 325.221  0.00  0.00    +0.000 C 
ATOM     28  C   UNL     1      60.459 220.449 326.813  0.00  0.00    +0.000 C 
ATOM     29  C   UNL     1      62.044 222.568 326.965  0.00  0.00    +0.000 C 
ATOM     30  C   UNL     1      58.774 224.701 326.735  0.00  0.00    +0.000 C 
ATOM     31  C   UNL     1      59.521 223.174 328.581  0.00  0.00    +0.000 C 
ATOM     32  C   UNL     1      61.666 221.329 327.000  0.00  0.00    +0.000 C 
ATOM     33  C   UNL     1      57.476 218.812 326.664  0.00  0.00    +0.000 C 
ATOM     34  C   UNL     1      63.527 222.827 326.916  0.00  0.00    +0.000 C 
BRANCH  25  35
ATOM     35  O   UNL     1      58.758 219.163 324.720  0.00  0.00    +0.000 OA
ATOM     36  H   UNL     1      59.157 218.425 325.212  0.00  0.00    +0.000 HD
ENDBRANCH  25  35
ENDBRANCH  20  24
ENDBRANCH   3  19
TORSDOF 4
ENDMDL
MODEL 3
REMARK VINA RESULT:      -5.8     14.034     21.345
REMARK  Name = 44423609_SipholenoneA.pdbqt.pdb
REMARK  4 active torsions:
REMARK  status: ('A' for Active; 'I' for Inactive)
REMARK    1  A    between atoms: C_3  and  C_19
REMARK    2  A    between atoms: C_5  and  O_17
REMARK    3  A    between atoms: C_20  and  C_24
REMARK    4  A    between atoms: C_25  and  O_35
REMARK                            x       y       z     vdW  Elec       q    Type
REMARK                         _______ _______ _______ _____ _____    ______ ____
ROOT
ATOM      1  O   UNL     1      46.771 219.160 334.221  0.00  0.00    +0.000 OA
ATOM      2  O   UNL     1      47.790 222.324 332.596  0.00  0.00    +0.000 OA
ATOM      3  C   UNL     1      49.605 216.550 333.345  0.00  0.00    +0.000 C 
ATOM      4  C   UNL     1      48.965 217.780 333.985  0.00  0.00    +0.000 C 
ATOM      5  C   UNL     1      48.819 215.255 333.224  0.00  0.00    +0.000 C 
ATOM      6  C   UNL     1      47.399 217.973 333.827  0.00  0.00    +0.000 C 
ATOM      7  C   UNL     1      47.412 215.540 333.429  0.00  0.00    +0.000 C 
ATOM      8  C   UNL     1      46.645 216.789 333.707  0.00  0.00    +0.000 C 
ATOM      9  C   UNL     1      49.462 219.013 333.353  0.00  0.00    +0.000 C 
ATOM     10  C   UNL     1      49.296 217.806 335.504  0.00  0.00    +0.000 C 
ATOM     11  C   UNL     1      49.067 214.588 331.867  0.00  0.00    +0.000 C 
ATOM     12  C   UNL     1      48.983 220.387 332.934  0.00  0.00    +0.000 C 
ATOM     13  C   UNL     1      46.485 220.202 333.229  0.00  0.00    +0.000 C 
ATOM     14  C   UNL     1      47.750 221.138 332.898  0.00  0.00    +0.000 C 
ATOM     15  C   UNL     1      45.340 221.055 333.866  0.00  0.00    +0.000 C 
ATOM     16  C   UNL     1      45.958 219.559 331.892  0.00  0.00    +0.000 C 
ENDROOT
BRANCH   5  17
ATOM     17  O   UNL     1      49.265 214.338 334.191  0.00  0.00    +0.000 OA
ATOM     18  H   UNL     1      49.991 213.898 333.713  0.00  0.00    +0.000 HD
ENDBRANCH   5  17
BRANCH   3  19
ATOM     19  C   UNL     1      51.025 216.545 333.097  0.00  0.00    +0.000 C 
ATOM     20  C   UNL     1      52.531 216.549 332.826  0.00  0.00    +0.000 C 
BRANCH  20  24
ATOM     21  C   UNL     1      55.669 218.117 333.758  0.00  0.00    +0.000 C 
ATOM     22  C   UNL     1      54.772 217.857 332.522  0.00  0.00    +0.000 C 
ATOM     23  C   UNL     1      56.844 217.275 334.185  0.00  0.00    +0.000 C 
ATOM     24  C   UNL     1      53.941 216.551 332.561  0.00  0.00    +0.000 C 
ATOM     25  C   UNL     1      57.533 217.845 335.426  0.00  0.00    +0.000 C 
ATOM     26  C   UNL     1      55.601 219.210 334.669  0.00  0.00    +0.000 C 
ATOM     27  C   UNL     1      56.726 219.038 335.651  0.00  0.00    +0.000 C 
ATOM     28  C   UNL     1      56.791 215.927 333.773  0.00  0.00    +0.000 C 
ATOM     29  C   UNL     1      54.614 215.258 332.418  0.00  0.00    +0.000 C 
ATOM     30  C   UNL     1      53.788 219.081 332.372  0.00  0.00    +0.000 C 
ATOM     31  C   UNL     1      55.675 217.873 331.243  0.00  0.00    +0.000 C 
ATOM     32  C   UNL     1      55.770 215.144 332.991  0.00  0.00    +0.000 C 
ATOM     33  C   UNL     1      59.018 218.073 335.202  0.00  0.00    +0.000 C 
ATOM     34  C   UNL     1      53.906 213.979 332.052  0.00  0.00    +0.000 C 
BRANCH  25  35
ATOM     35  O   UNL     1      57.408 216.957 336.510  0.00  0.00    +0.000 OA
ATOM     36  H   UNL     1      57.192 216.131 336.043  0.00  0.00    +0.000 HD
ENDBRANCH  25  35
ENDBRANCH  20  24
ENDBRANCH   3  19
TORSDOF 4
ENDMDL
MODEL 4
REMARK VINA RESULT:      -5.7     10.417     15.949
REMARK  Name = 44423609_SipholenoneA.pdbqt.pdb
REMARK  4 active torsions:
REMARK  status: ('A' for Active; 'I' for Inactive)
REMARK    1  A    between atoms: C_3  and  C_19
REMARK    2  A    between atoms: C_5  and  O_17
REMARK    3  A    between atoms: C_20  and  C_24
REMARK    4  A    between atoms: C_25  and  O_35
REMARK                            x       y       z     vdW  Elec       q    Type
REMARK                         _______ _______ _______ _____ _____    ______ ____
ROOT
ATOM      1  O   UNL     1      61.497 227.704 320.349  0.00  0.00    +0.000 OA
ATOM      2  O   UNL     1      58.311 226.022 319.503  0.00  0.00    +0.000 OA
ATOM      3  C   UNL     1      62.442 226.437 323.971  0.00  0.00    +0.000 C 
ATOM      4  C   UNL     1      62.193 226.359 322.466  0.00  0.00    +0.000 C 
ATOM      5  C   UNL     1      63.112 227.662 324.571  0.00  0.00    +0.000 C 
ATOM      6  C   UNL     1      61.916 227.711 321.684  0.00  0.00    +0.000 C 
ATOM      7  C   UNL     1      63.072 228.742 323.603  0.00  0.00    +0.000 C 
ATOM      8  C   UNL     1      62.520 228.864 322.222  0.00  0.00    +0.000 C 
ATOM      9  C   UNL     1      60.955 225.615 322.182  0.00  0.00    +0.000 C 
ATOM     10  C   UNL     1      63.393 225.650 321.777  0.00  0.00    +0.000 C 
ATOM     11  C   UNL     1      62.442 228.063 325.889  0.00  0.00    +0.000 C 
ATOM     12  C   UNL     1      59.780 225.622 321.228  0.00  0.00    +0.000 C 
ATOM     13  C   UNL     1      60.070 227.822 320.028  0.00  0.00    +0.000 C 
ATOM     14  C   UNL     1      59.269 226.432 320.147  0.00  0.00    +0.000 C 
ATOM     15  C   UNL     1      60.035 228.335 318.552  0.00  0.00    +0.000 C 
ATOM     16  C   UNL     1      59.384 228.892 320.956  0.00  0.00    +0.000 C 
ENDROOT
BRANCH   5  17
ATOM     17  O   UNL     1      64.447 227.362 324.893  0.00  0.00    +0.000 OA
ATOM     18  H   UNL     1      64.878 228.220 324.727  0.00  0.00    +0.000 HD
ENDBRANCH   5  17
BRANCH   3  19
ATOM     19  C   UNL     1      62.280 225.252 324.773  0.00  0.00    +0.000 C 
ATOM     20  C   UNL     1      62.100 223.999 325.633  0.00  0.00    +0.000 C 
BRANCH  20  24
ATOM     21  C   UNL     1      63.809 221.810 327.971  0.00  0.00    +0.000 C 
ATOM     22  C   UNL     1      63.057 221.776 326.617  0.00  0.00    +0.000 C 
ATOM     23  C   UNL     1      63.204 221.516 329.320  0.00  0.00    +0.000 C 
ATOM     24  C   UNL     1      61.935 222.829 326.448  0.00  0.00    +0.000 C 
ATOM     25  C   UNL     1      64.243 221.599 330.440  0.00  0.00    +0.000 C 
ATOM     26  C   UNL     1      65.195 222.054 328.192  0.00  0.00    +0.000 C 
ATOM     27  C   UNL     1      65.439 221.913 329.668  0.00  0.00    +0.000 C 
ATOM     28  C   UNL     1      61.817 221.751 329.415  0.00  0.00    +0.000 C 
ATOM     29  C   UNL     1      60.691 222.693 327.208  0.00  0.00    +0.000 C 
ATOM     30  C   UNL     1      64.119 221.976 325.469  0.00  0.00    +0.000 C 
ATOM     31  C   UNL     1      62.469 220.338 326.413  0.00  0.00    +0.000 C 
ATOM     32  C   UNL     1      60.804 222.259 328.424  0.00  0.00    +0.000 C 
ATOM     33  C   UNL     1      64.295 220.325 331.266  0.00  0.00    +0.000 C 
ATOM     34  C   UNL     1      59.409 223.401 326.854  0.00  0.00    +0.000 C 
BRANCH  25  35
ATOM     35  O   UNL     1      63.936 222.652 331.320  0.00  0.00    +0.000 OA
ATOM     36  H   UNL     1      63.541 222.160 332.061  0.00  0.00    +0.000 HD
ENDBRANCH  25  35
ENDBRANCH  20  24
ENDBRANCH   3  19
TORSDOF 4
ENDMDL
MODEL 5
REMARK VINA RESULT:      -5.7     12.446     19.270
REMARK  Name = 44423609_SipholenoneA.pdbqt.pdb
REMARK  4 active torsions:
REMARK  status: ('A' for Active; 'I' for Inactive)
REMARK    1  A    between atoms: C_3  and  C_19
REMARK    2  A    between atoms: C_5  and  O_17
REMARK    3  A    between atoms: C_20  and  C_24
REMARK    4  A    between atoms: C_25  and  O_35
REMARK                            x       y       z     vdW  Elec       q    Type
REMARK                         _______ _______ _______ _____ _____    ______ ____
ROOT
ATOM      1  O   UNL     1      54.921 225.630 319.673  0.00  0.00    +0.000 OA
ATOM      2  O   UNL     1      56.849 228.695 318.914  0.00  0.00    +0.000 OA
ATOM      3  C   UNL     1      57.168 223.546 322.167  0.00  0.00    +0.000 C 
ATOM      4  C   UNL     1      56.288 224.696 321.680  0.00  0.00    +0.000 C 
ATOM      5  C   UNL     1      56.845 222.116 321.766  0.00  0.00    +0.000 C 
ATOM      6  C   UNL     1      55.585 224.551 320.267  0.00  0.00    +0.000 C 
ATOM      7  C   UNL     1      55.920 222.138 320.649  0.00  0.00    +0.000 C 
ATOM      8  C   UNL     1      55.280 223.235 319.867  0.00  0.00    +0.000 C 
ATOM      9  C   UNL     1      57.093 225.911 321.468  0.00  0.00    +0.000 C 
ATOM     10  C   UNL     1      55.182 224.985 322.734  0.00  0.00    +0.000 C 
ATOM     11  C   UNL     1      58.122 221.341 321.425  0.00  0.00    +0.000 C 
ATOM     12  C   UNL     1      57.194 227.095 320.531  0.00  0.00    +0.000 C 
ATOM     13  C   UNL     1      55.610 226.456 318.676  0.00  0.00    +0.000 C 
ATOM     14  C   UNL     1      56.569 227.575 319.321  0.00  0.00    +0.000 C 
ATOM     15  C   UNL     1      54.462 227.139 317.863  0.00  0.00    +0.000 C 
ATOM     16  C   UNL     1      56.456 225.553 317.703  0.00  0.00    +0.000 C 
ENDROOT
BRANCH   5  17
ATOM     17  O   UNL     1      56.263 221.440 322.852  0.00  0.00    +0.000 OA
ATOM     18  H   UNL     1      56.931 220.752 323.026  0.00  0.00    +0.000 HD
ENDBRANCH   5  17
BRANCH   3  19
ATOM     19  C   UNL     1      58.136 223.791 323.205  0.00  0.00    +0.000 C 
ATOM     20  C   UNL     1      59.161 224.040 324.314  0.00  0.00    +0.000 C 
BRANCH  20  24
ATOM     21  C   UNL     1      60.854 222.475 327.117  0.00  0.00    +0.000 C 
ATOM     22  C   UNL     1      59.944 223.682 326.781  0.00  0.00    +0.000 C 
ATOM     23  C   UNL     1      62.357 222.506 327.214  0.00  0.00    +0.000 C 
ATOM     24  C   UNL     1      60.115 224.274 325.360  0.00  0.00    +0.000 C 
ATOM     25  C   UNL     1      62.932 221.145 327.609  0.00  0.00    +0.000 C 
ATOM     26  C   UNL     1      60.453 221.151 327.458  0.00  0.00    +0.000 C 
ATOM     27  C   UNL     1      61.704 220.374 327.759  0.00  0.00    +0.000 C 
ATOM     28  C   UNL     1      62.981 223.515 326.450  0.00  0.00    +0.000 C 
ATOM     29  C   UNL     1      61.329 225.021 325.027  0.00  0.00    +0.000 C 
ATOM     30  C   UNL     1      58.445 223.225 326.964  0.00  0.00    +0.000 C 
ATOM     31  C   UNL     1      60.186 224.799 327.852  0.00  0.00    +0.000 C 
ATOM     32  C   UNL     1      62.437 224.575 325.531  0.00  0.00    +0.000 C 
ATOM     33  C   UNL     1      63.821 221.235 328.838  0.00  0.00    +0.000 C 
ATOM     34  C   UNL     1      61.444 225.954 323.849  0.00  0.00    +0.000 C 
BRANCH  25  35
ATOM     35  O   UNL     1      63.717 220.620 326.566  0.00  0.00    +0.000 OA
ATOM     36  H   UNL     1      63.069 220.610 325.840  0.00  0.00    +0.000 HD
ENDBRANCH  25  35
ENDBRANCH  20  24
ENDBRANCH   3  19
TORSDOF 4
ENDMDL
MODEL 6
REMARK VINA RESULT:      -5.7     15.852     21.409
REMARK  Name = 44423609_SipholenoneA.pdbqt.pdb
REMARK  4 active torsions:
REMARK  status: ('A' for Active; 'I' for Inactive)
REMARK    1  A    between atoms: C_3  and  C_19
REMARK    2  A    between atoms: C_5  and  O_17
REMARK    3  A    between atoms: C_20  and  C_24
REMARK    4  A    between atoms: C_25  and  O_35
REMARK                            x       y       z     vdW  Elec       q    Type
REMARK                         _______ _______ _______ _____ _____    ______ ____
ROOT
ATOM      1  O   UNL     1      56.617 230.715 316.821  0.00  0.00    +0.000 OA
ATOM      2  O   UNL     1      53.424 228.978 317.515  0.00  0.00    +0.000 OA
ATOM      3  C   UNL     1      59.200 229.288 319.449  0.00  0.00    +0.000 C 
ATOM      4  C   UNL     1      58.253 229.283 318.250  0.00  0.00    +0.000 C 
ATOM      5  C   UNL     1      60.073 230.500 319.727  0.00  0.00    +0.000 C 
ATOM      6  C   UNL     1      57.629 230.664 317.786  0.00  0.00    +0.000 C 
ATOM      7  C   UNL     1      59.567 231.628 318.968  0.00  0.00    +0.000 C 
ATOM      8  C   UNL     1      58.415 231.806 318.036  0.00  0.00    +0.000 C 
ATOM      9  C   UNL     1      57.035 228.514 318.553  0.00  0.00    +0.000 C 
ATOM     10  C   UNL     1      58.973 228.651 317.025  0.00  0.00    +0.000 C 
ATOM     11  C   UNL     1      60.123 230.807 321.227  0.00  0.00    +0.000 C 
ATOM     12  C   UNL     1      55.544 228.534 318.287  0.00  0.00    +0.000 C 
ATOM     13  C   UNL     1      55.213 230.803 317.237  0.00  0.00    +0.000 C 
ATOM     14  C   UNL     1      54.572 229.384 317.640  0.00  0.00    +0.000 C 
ATOM     15  C   UNL     1      54.466 231.394 315.996  0.00  0.00    +0.000 C 
ATOM     16  C   UNL     1      55.058 231.799 318.446  0.00  0.00    +0.000 C 
ENDROOT
BRANCH   5  17
ATOM     17  O   UNL     1      61.398 230.227 319.345  0.00  0.00    +0.000 OA
ATOM     18  H   UNL     1      61.276 229.431 318.796  0.00  0.00    +0.000 HD
ENDBRANCH   5  17
BRANCH   3  19
ATOM     19  C   UNL     1      59.449 228.057 320.154  0.00  0.00    +0.000 C 
ATOM     20  C   UNL     1      59.726 226.751 320.904  0.00  0.00    +0.000 C 
BRANCH  20  24
ATOM     21  C   UNL     1      61.303 225.362 323.863  0.00  0.00    +0.000 C 
ATOM     22  C   UNL     1      61.338 225.258 322.318  0.00  0.00    +0.000 C 
ATOM     23  C   UNL     1      60.527 224.460 324.787  0.00  0.00    +0.000 C 
ATOM     24  C   UNL     1      59.993 225.525 321.599  0.00  0.00    +0.000 C 
ATOM     25  C   UNL     1      60.756 224.817 326.257  0.00  0.00    +0.000 C 
ATOM     26  C   UNL     1      62.032 226.262 324.692  0.00  0.00    +0.000 C 
ATOM     27  C   UNL     1      61.702 225.917 326.117  0.00  0.00    +0.000 C 
ATOM     28  C   UNL     1      59.386 223.862 324.215  0.00  0.00    +0.000 C 
ATOM     29  C   UNL     1      58.910 224.544 321.698  0.00  0.00    +0.000 C 
ATOM     30  C   UNL     1      62.410 226.287 321.788  0.00  0.00    +0.000 C 
ATOM     31  C   UNL     1      61.875 223.840 321.928  0.00  0.00    +0.000 C 
ATOM     32  C   UNL     1      58.768 223.957 322.845  0.00  0.00    +0.000 C 
ATOM     33  C   UNL     1      61.230 223.624 327.068  0.00  0.00    +0.000 C 
ATOM     34  C   UNL     1      57.734 224.492 320.757  0.00  0.00    +0.000 C 
BRANCH  25  35
ATOM     35  O   UNL     1      59.561 225.270 326.845  0.00  0.00    +0.000 OA
ATOM     36  H   UNL     1      59.618 226.223 326.660  0.00  0.00    +0.000 HD
ENDBRANCH  25  35
ENDBRANCH  20  24
ENDBRANCH   3  19
TORSDOF 4
ENDMDL
MODEL 7
REMARK VINA RESULT:      -5.5      2.367      8.954
REMARK  Name = 44423609_SipholenoneA.pdbqt.pdb
REMARK  4 active torsions:
REMARK  status: ('A' for Active; 'I' for Inactive)
REMARK    1  A    between atoms: C_3  and  C_19
REMARK    2  A    between atoms: C_5  and  O_17
REMARK    3  A    between atoms: C_20  and  C_24
REMARK    4  A    between atoms: C_25  and  O_35
REMARK                            x       y       z     vdW  Elec       q    Type
REMARK                         _______ _______ _______ _____ _____    ______ ____
ROOT
ATOM      1  O   UNL     1      67.282 217.282 333.847  0.00  0.00    +0.000 OA
ATOM      2  O   UNL     1      70.275 215.325 332.896  0.00  0.00    +0.000 OA
ATOM      3  C   UNL     1      68.364 219.427 336.984  0.00  0.00    +0.000 C 
ATOM      4  C   UNL     1      68.335 218.967 335.527  0.00  0.00    +0.000 C 
ATOM      5  C   UNL     1      67.080 219.472 337.796  0.00  0.00    +0.000 C 
ATOM      6  C   UNL     1      67.252 217.888 335.108  0.00  0.00    +0.000 C 
ATOM      7  C   UNL     1      66.064 218.695 337.112  0.00  0.00    +0.000 C 
ATOM      8  C   UNL     1      66.054 217.902 335.848  0.00  0.00    +0.000 C 
ATOM      9  C   UNL     1      69.580 218.262 335.181  0.00  0.00    +0.000 C 
ATOM     10  C   UNL     1      68.161 220.201 334.597  0.00  0.00    +0.000 C 
ATOM     11  C   UNL     1      67.315 218.962 339.221  0.00  0.00    +0.000 C 
ATOM     12  C   UNL     1      70.068 217.092 334.353  0.00  0.00    +0.000 C 
ATOM     13  C   UNL     1      67.913 215.968 333.679  0.00  0.00    +0.000 C 
ATOM     14  C   UNL     1      69.514 216.038 333.537  0.00  0.00    +0.000 C 
ATOM     15  C   UNL     1      67.284 215.388 332.371  0.00  0.00    +0.000 C 
ATOM     16  C   UNL     1      67.546 215.025 334.884  0.00  0.00    +0.000 C 
ENDROOT
BRANCH   5  17
ATOM     17  O   UNL     1      66.650 220.804 337.929  0.00  0.00    +0.000 OA
ATOM     18  H   UNL     1      66.550 221.064 336.995  0.00  0.00    +0.000 HD
ENDBRANCH   5  17
BRANCH   3  19
ATOM     19  C   UNL     1      69.552 220.059 337.499  0.00  0.00    +0.000 C 
ATOM     20  C   UNL     1      70.821 220.723 338.037  0.00  0.00    +0.000 C 
BRANCH  20  24
ATOM     21  C   UNL     1      73.653 222.795 337.107  0.00  0.00    +0.000 C 
ATOM     22  C   UNL     1      73.322 221.409 337.715  0.00  0.00    +0.000 C 
ATOM     23  C   UNL     1      73.972 224.044 337.887  0.00  0.00    +0.000 C 
ATOM     24  C   UNL     1      72.015 221.337 338.543  0.00  0.00    +0.000 C 
ATOM     25  C   UNL     1      74.295 225.223 336.968  0.00  0.00    +0.000 C 
ATOM     26  C   UNL     1      73.784 223.133 335.729  0.00  0.00    +0.000 C 
ATOM     27  C   UNL     1      74.177 224.582 335.664  0.00  0.00    +0.000 C 
ATOM     28  C   UNL     1      73.424 224.090 339.186  0.00  0.00    +0.000 C 
ATOM     29  C   UNL     1      71.948 221.992 339.851  0.00  0.00    +0.000 C 
ATOM     30  C   UNL     1      73.231 220.371 336.531  0.00  0.00    +0.000 C 
ATOM     31  C   UNL     1      74.534 220.952 338.595  0.00  0.00    +0.000 C 
ATOM     32  C   UNL     1      72.557 223.131 339.956  0.00  0.00    +0.000 C 
ATOM     33  C   UNL     1      75.643 225.845 337.289  0.00  0.00    +0.000 C 
ATOM     34  C   UNL     1      70.910 221.675 340.896  0.00  0.00    +0.000 C 
BRANCH  25  35
ATOM     35  O   UNL     1      73.327 226.235 337.106  0.00  0.00    +0.000 OA
ATOM     36  H   UNL     1      73.542 226.796 336.341  0.00  0.00    +0.000 HD
ENDBRANCH  25  35
ENDBRANCH  20  24
ENDBRANCH   3  19
TORSDOF 4
ENDMDL
MODEL 8
REMARK VINA RESULT:      -5.5     12.090     16.935
REMARK  Name = 44423609_SipholenoneA.pdbqt.pdb
REMARK  4 active torsions:
REMARK  status: ('A' for Active; 'I' for Inactive)
REMARK    1  A    between atoms: C_3  and  C_19
REMARK    2  A    between atoms: C_5  and  O_17
REMARK    3  A    between atoms: C_20  and  C_24
REMARK    4  A    between atoms: C_25  and  O_35
REMARK                            x       y       z     vdW  Elec       q    Type
REMARK                         _______ _______ _______ _____ _____    ______ ____
ROOT
ATOM      1  O   UNL     1      62.373 229.907 319.633  0.00  0.00    +0.000 OA
ATOM      2  O   UNL     1      65.464 231.155 321.240  0.00  0.00    +0.000 OA
ATOM      3  C   UNL     1      61.313 226.711 321.699  0.00  0.00    +0.000 C 
ATOM      4  C   UNL     1      61.575 228.189 321.416  0.00  0.00    +0.000 C 
ATOM      5  C   UNL     1      60.709 225.823 320.623  0.00  0.00    +0.000 C 
ATOM      6  C   UNL     1      61.940 228.611 319.932  0.00  0.00    +0.000 C 
ATOM      7  C   UNL     1      60.824 226.493 319.342  0.00  0.00    +0.000 C 
ATOM      8  C   UNL     1      61.399 227.802 318.914  0.00  0.00    +0.000 C 
ATOM      9  C   UNL     1      62.770 228.652 322.140  0.00  0.00    +0.000 C 
ATOM     10  C   UNL     1      60.343 229.028 321.859  0.00  0.00    +0.000 C 
ATOM     11  C   UNL     1      61.387 224.449 320.603  0.00  0.00    +0.000 C 
ATOM     12  C   UNL     1      63.955 229.579 321.966  0.00  0.00    +0.000 C 
ATOM     13  C   UNL     1      63.808 230.194 319.525  0.00  0.00    +0.000 C 
ATOM     14  C   UNL     1      64.525 230.426 320.946  0.00  0.00    +0.000 C 
ATOM     15  C   UNL     1      63.891 231.497 318.664  0.00  0.00    +0.000 C 
ATOM     16  C   UNL     1      64.545 229.031 318.761  0.00  0.00    +0.000 C 
ENDROOT
BRANCH   5  17
ATOM     17  O   UNL     1      59.355 225.581 320.913  0.00  0.00    +0.000 OA
ATOM     18  H   UNL     1      59.401 225.369 321.863  0.00  0.00    +0.000 HD
ENDBRANCH   5  17
BRANCH   3  19
ATOM     19  C   UNL     1      61.396 226.228 323.054  0.00  0.00    +0.000 C 
ATOM     20  C   UNL     1      61.495 225.722 324.495  0.00  0.00    +0.000 C 
BRANCH  20  24
ATOM     21  C   UNL     1      60.998 222.805 326.597  0.00  0.00    +0.000 C 
ATOM     22  C   UNL     1      60.551 224.282 326.459  0.00  0.00    +0.000 C 
ATOM     23  C   UNL     1      62.112 222.303 327.478  0.00  0.00    +0.000 C 
ATOM     24  C   UNL     1      61.596 225.243 325.843  0.00  0.00    +0.000 C 
ATOM     25  C   UNL     1      62.255 220.781 327.406  0.00  0.00    +0.000 C 
ATOM     26  C   UNL     1      60.415 221.658 325.986  0.00  0.00    +0.000 C 
ATOM     27  C   UNL     1      61.169 220.459 326.488  0.00  0.00    +0.000 C 
ATOM     28  C   UNL     1      63.119 223.248 327.762  0.00  0.00    +0.000 C 
ATOM     29  C   UNL     1      62.784 225.614 326.615  0.00  0.00    +0.000 C 
ATOM     30  C   UNL     1      59.247 224.312 325.572  0.00  0.00    +0.000 C 
ATOM     31  C   UNL     1      60.119 224.803 327.872  0.00  0.00    +0.000 C 
ATOM     32  C   UNL     1      63.315 224.680 327.340  0.00  0.00    +0.000 C 
ATOM     33  C   UNL     1      62.186 220.135 328.778  0.00  0.00    +0.000 C 
ATOM     34  C   UNL     1      63.649 226.808 326.303  0.00  0.00    +0.000 C 
BRANCH  25  35
ATOM     35  O   UNL     1      63.495 220.429 326.843  0.00  0.00    +0.000 OA
ATOM     36  H   UNL     1      63.508 219.472 327.018  0.00  0.00    +0.000 HD
ENDBRANCH  25  35
ENDBRANCH  20  24
ENDBRANCH   3  19
TORSDOF 4
ENDMDL
MODEL 9
REMARK VINA RESULT:      -5.4     13.939     21.255
REMARK  Name = 44423609_SipholenoneA.pdbqt.pdb
REMARK  4 active torsions:
REMARK  status: ('A' for Active; 'I' for Inactive)
REMARK    1  A    between atoms: C_3  and  C_19
REMARK    2  A    between atoms: C_5  and  O_17
REMARK    3  A    between atoms: C_20  and  C_24
REMARK    4  A    between atoms: C_25  and  O_35
REMARK                            x       y       z     vdW  Elec       q    Type
REMARK                         _______ _______ _______ _____ _____    ______ ____
ROOT
ATOM      1  O   UNL     1      46.985 215.978 335.528  0.00  0.00    +0.000 OA
ATOM      2  O   UNL     1      48.354 216.042 338.966  0.00  0.00    +0.000 OA
ATOM      3  C   UNL     1      49.985 216.997 333.167  0.00  0.00    +0.000 C 
ATOM      4  C   UNL     1      49.182 216.139 334.143  0.00  0.00    +0.000 C 
ATOM      5  C   UNL     1      49.276 217.769 332.068  0.00  0.00    +0.000 C 
ATOM      6  C   UNL     1      47.711 216.603 334.508  0.00  0.00    +0.000 C 
ATOM      7  C   UNL     1      47.860 217.835 332.377  0.00  0.00    +0.000 C 
ATOM      8  C   UNL     1      47.031 217.327 333.509  0.00  0.00    +0.000 C 
ATOM      9  C   UNL     1      49.812 216.137 335.474  0.00  0.00    +0.000 C 
ATOM     10  C   UNL     1      49.101 214.682 333.606  0.00  0.00    +0.000 C 
ATOM     11  C   UNL     1      49.881 219.167 331.901  0.00  0.00    +0.000 C 
ATOM     12  C   UNL     1      49.442 216.138 336.941  0.00  0.00    +0.000 C 
ATOM     13  C   UNL     1      46.957 216.565 336.873  0.00  0.00    +0.000 C 
ATOM     14  C   UNL     1      48.252 216.208 337.757  0.00  0.00    +0.000 C 
ATOM     15  C   UNL     1      45.673 215.972 337.540  0.00  0.00    +0.000 C 
ATOM     16  C   UNL     1      46.810 218.130 336.786  0.00  0.00    +0.000 C 
ENDROOT
BRANCH   5  17
ATOM     17  O   UNL     1      49.463 217.120 330.836  0.00  0.00    +0.000 OA
ATOM     18  H   UNL     1      49.253 216.199 331.074  0.00  0.00    +0.000 HD
ENDBRANCH   5  17
BRANCH   3  19
ATOM     19  C   UNL     1      51.420 216.867 333.131  0.00  0.00    +0.000 C 
ATOM     20  C   UNL     1      52.943 216.722 333.082  0.00  0.00    +0.000 C 
BRANCH  20  24
ATOM     21  C   UNL     1      56.059 218.145 334.282  0.00  0.00    +0.000 C 
ATOM     22  C   UNL     1      55.322 217.796 332.966  0.00  0.00    +0.000 C 
ATOM     23  C   UNL     1      57.074 217.276 334.979  0.00  0.00    +0.000 C 
ATOM     24  C   UNL     1      54.369 216.577 333.035  0.00  0.00    +0.000 C 
ATOM     25  C   UNL     1      57.636 217.949 336.232  0.00  0.00    +0.000 C 
ATOM     26  C   UNL     1      55.972 219.351 335.035  0.00  0.00    +0.000 C 
ATOM     27  C   UNL     1      56.927 219.222 336.188  0.00  0.00    +0.000 C 
ATOM     28  C   UNL     1      56.947 215.894 334.728  0.00  0.00    +0.000 C 
ATOM     29  C   UNL     1      54.925 215.227 333.150  0.00  0.00    +0.000 C 
ATOM     30  C   UNL     1      54.494 219.063 332.523  0.00  0.00    +0.000 C 
ATOM     31  C   UNL     1      56.392 217.569 331.844  0.00  0.00    +0.000 C 
ATOM     32  C   UNL     1      55.974 215.098 333.900  0.00  0.00    +0.000 C 
ATOM     33  C   UNL     1      59.153 218.026 336.208  0.00  0.00    +0.000 C 
ATOM     34  C   UNL     1      54.153 213.971 332.838  0.00  0.00    +0.000 C 
BRANCH  25  35
ATOM     35  O   UNL     1      57.275 217.226 337.383  0.00  0.00    +0.000 OA
ATOM     36  H   UNL     1      57.539 217.851 338.080  0.00  0.00    +0.000 HD
ENDBRANCH  25  35
ENDBRANCH  20  24
ENDBRANCH   3  19
TORSDOF 4
ENDMDL
