MODEL 1
REMARK VINA RESULT:      -5.6      0.000      0.000
REMARK  Name = 445154_Resveratrol.pdbqt.pdb
REMARK  5 active torsions:
REMARK  status: ('A' for Active; 'I' for Inactive)
REMARK    1  A    between atoms: C_1  and  C_11
REMARK    2  A    between atoms: C_4  and  O_7
REMARK    3  A    between atoms: C_5  and  O_9
REMARK    4  A    between atoms: C_12  and  C_13
REMARK    5  A    between atoms: C_18  and  O_19
REMARK                            x       y       z     vdW  Elec       q    Type
REMARK                         _______ _______ _______ _____ _____    ______ ____
ROOT
ATOM      1  C   UNL     1      56.858 218.397 335.312  0.00  0.00    +0.000 A 
ATOM      2  C   UNL     1      58.223 218.193 335.111  0.00  0.00    +0.000 A 
ATOM      3  C   UNL     1      56.351 218.530 336.604  0.00  0.00    +0.000 A 
ATOM      4  C   UNL     1      57.218 218.458 337.691  0.00  0.00    +0.000 A 
ATOM      5  C   UNL     1      59.072 218.123 336.210  0.00  0.00    +0.000 A 
ATOM      6  C   UNL     1      58.582 218.254 337.506  0.00  0.00    +0.000 A 
ENDROOT
BRANCH   4   7
ATOM      7  O   UNL     1      56.750 218.585 338.966  0.00  0.00    +0.000 OA
ATOM      8  H   UNL     1      56.681 219.535 339.171  0.00  0.00    +0.000 HD
ENDBRANCH   4   7
BRANCH   5   9
ATOM      9  O   UNL     1      60.405 217.922 335.990  0.00  0.00    +0.000 OA
ATOM     10  H   UNL     1      60.496 217.201 335.342  0.00  0.00    +0.000 HD
ENDBRANCH   5   9
BRANCH   1  11
ATOM     11  C   UNL     1      55.977 218.470 334.193  0.00  0.00    +0.000 C 
ATOM     12  C   UNL     1      55.234 218.530 333.250  0.00  0.00    +0.000 C 
BRANCH  12  13
ATOM     13  C   UNL     1      54.352 218.602 332.132  0.00  0.00    +0.000 A 
ATOM     14  C   UNL     1      52.972 218.624 332.336  0.00  0.00    +0.000 A 
ATOM     15  C   UNL     1      54.870 218.650 330.839  0.00  0.00    +0.000 A 
ATOM     16  C   UNL     1      52.109 218.694 331.247  0.00  0.00    +0.000 A 
ATOM     17  C   UNL     1      54.010 218.721 329.746  0.00  0.00    +0.000 A 
ATOM     18  C   UNL     1      52.636 218.741 329.959  0.00  0.00    +0.000 A 
BRANCH  18  19
ATOM     19  O   UNL     1      51.813 218.811 328.873  0.00  0.00    +0.000 OA
ATOM     20  H   UNL     1      52.143 219.512 328.284  0.00  0.00    +0.000 HD
ENDBRANCH  18  19
ENDBRANCH  12  13
ENDBRANCH   1  11
TORSDOF 5
ENDMDL
MODEL 2
REMARK VINA RESULT:      -5.4     26.827     28.517
REMARK  Name = 445154_Resveratrol.pdbqt.pdb
REMARK  5 active torsions:
REMARK  status: ('A' for Active; 'I' for Inactive)
REMARK    1  A    between atoms: C_1  and  C_11
REMARK    2  A    between atoms: C_4  and  O_7
REMARK    3  A    between atoms: C_5  and  O_9
REMARK    4  A    between atoms: C_12  and  C_13
REMARK    5  A    between atoms: C_18  and  O_19
REMARK                            x       y       z     vdW  Elec       q    Type
REMARK                         _______ _______ _______ _____ _____    ______ ____
ROOT
ATOM      1  C   UNL     1      53.156 243.645 324.992  0.00  0.00    +0.000 A 
ATOM      2  C   UNL     1      52.116 242.936 324.392  0.00  0.00    +0.000 A 
ATOM      3  C   UNL     1      53.351 243.571 326.371  0.00  0.00    +0.000 A 
ATOM      4  C   UNL     1      52.500 242.783 327.142  0.00  0.00    +0.000 A 
ATOM      5  C   UNL     1      51.276 242.155 325.180  0.00  0.00    +0.000 A 
ATOM      6  C   UNL     1      51.459 242.070 326.557  0.00  0.00    +0.000 A 
ENDROOT
BRANCH   4   7
ATOM      7  O   UNL     1      52.668 242.692 328.493  0.00  0.00    +0.000 OA
ATOM      8  H   UNL     1      53.517 242.249 328.665  0.00  0.00    +0.000 HD
ENDBRANCH   4   7
BRANCH   5   9
ATOM      9  O   UNL     1      50.265 241.469 324.571  0.00  0.00    +0.000 OA
ATOM     10  H   UNL     1      49.628 241.201 325.256  0.00  0.00    +0.000 HD
ENDBRANCH   5   9
BRANCH   1  11
ATOM     11  C   UNL     1      54.022 244.449 324.196  0.00  0.00    +0.000 C 
ATOM     12  C   UNL     1      54.752 245.127 323.524  0.00  0.00    +0.000 C 
BRANCH  12  13
ATOM     13  C   UNL     1      55.618 245.932 322.727  0.00  0.00    +0.000 A 
ATOM     14  C   UNL     1      55.849 247.262 323.077  0.00  0.00    +0.000 A 
ATOM     15  C   UNL     1      56.233 245.388 321.599  0.00  0.00    +0.000 A 
ATOM     16  C   UNL     1      56.694 248.050 322.301  0.00  0.00    +0.000 A 
ATOM     17  C   UNL     1      57.078 246.172 320.820  0.00  0.00    +0.000 A 
ATOM     18  C   UNL     1      57.302 247.498 321.177  0.00  0.00    +0.000 A 
BRANCH  18  19
ATOM     19  O   UNL     1      58.135 248.247 320.398  0.00  0.00    +0.000 OA
ATOM     20  H   UNL     1      58.973 248.369 320.877  0.00  0.00    +0.000 HD
ENDBRANCH  18  19
ENDBRANCH  12  13
ENDBRANCH   1  11
TORSDOF 5
ENDMDL
MODEL 3
REMARK VINA RESULT:      -5.2      1.224      7.586
REMARK  Name = 445154_Resveratrol.pdbqt.pdb
REMARK  5 active torsions:
REMARK  status: ('A' for Active; 'I' for Inactive)
REMARK    1  A    between atoms: C_1  and  C_11
REMARK    2  A    between atoms: C_4  and  O_7
REMARK    3  A    between atoms: C_5  and  O_9
REMARK    4  A    between atoms: C_12  and  C_13
REMARK    5  A    between atoms: C_18  and  O_19
REMARK                            x       y       z     vdW  Elec       q    Type
REMARK                         _______ _______ _______ _____ _____    ______ ____
ROOT
ATOM      1  C   UNL     1      53.847 218.704 331.956  0.00  0.00    +0.000 A 
ATOM      2  C   UNL     1      54.235 219.015 330.654  0.00  0.00    +0.000 A 
ATOM      3  C   UNL     1      52.511 218.424 332.243  0.00  0.00    +0.000 A 
ATOM      4  C   UNL     1      51.570 218.455 331.217  0.00  0.00    +0.000 A 
ATOM      5  C   UNL     1      53.278 219.042 329.643  0.00  0.00    +0.000 A 
ATOM      6  C   UNL     1      51.942 218.763 329.913  0.00  0.00    +0.000 A 
ENDROOT
BRANCH   4   7
ATOM      7  O   UNL     1      50.256 218.184 331.468  0.00  0.00    +0.000 OA
ATOM      8  H   UNL     1      49.769 219.027 331.480  0.00  0.00    +0.000 HD
ENDBRANCH   4   7
BRANCH   5   9
ATOM      9  O   UNL     1      53.682 219.349 328.375  0.00  0.00    +0.000 OA
ATOM     10  H   UNL     1      53.232 218.740 327.762  0.00  0.00    +0.000 HD
ENDBRANCH   5   9
BRANCH   1  11
ATOM     11  C   UNL     1      54.817 218.674 333.001  0.00  0.00    +0.000 C 
ATOM     12  C   UNL     1      55.634 218.648 333.881  0.00  0.00    +0.000 C 
BRANCH  12  13
ATOM     13  C   UNL     1      56.605 218.617 334.925  0.00  0.00    +0.000 A 
ATOM     14  C   UNL     1      57.761 217.852 334.777  0.00  0.00    +0.000 A 
ATOM     15  C   UNL     1      56.396 219.352 336.092  0.00  0.00    +0.000 A 
ATOM     16  C   UNL     1      58.710 217.820 335.794  0.00  0.00    +0.000 A 
ATOM     17  C   UNL     1      57.342 219.323 337.112  0.00  0.00    +0.000 A 
ATOM     18  C   UNL     1      58.493 218.557 336.955  0.00  0.00    +0.000 A 
BRANCH  18  19
ATOM     19  O   UNL     1      59.406 218.544 337.969  0.00  0.00    +0.000 OA
ATOM     20  H   UNL     1      60.255 218.866 337.619  0.00  0.00    +0.000 HD
ENDBRANCH  18  19
ENDBRANCH  12  13
ENDBRANCH   1  11
TORSDOF 5
ENDMDL
MODEL 4
REMARK VINA RESULT:      -5.1      1.269      7.709
REMARK  Name = 445154_Resveratrol.pdbqt.pdb
REMARK  5 active torsions:
REMARK  status: ('A' for Active; 'I' for Inactive)
REMARK    1  A    between atoms: C_1  and  C_11
REMARK    2  A    between atoms: C_4  and  O_7
REMARK    3  A    between atoms: C_5  and  O_9
REMARK    4  A    between atoms: C_12  and  C_13
REMARK    5  A    between atoms: C_18  and  O_19
REMARK                            x       y       z     vdW  Elec       q    Type
REMARK                         _______ _______ _______ _____ _____    ______ ____
ROOT
ATOM      1  C   UNL     1      54.698 218.514 332.281  0.00  0.00    +0.000 A 
ATOM      2  C   UNL     1      53.324 218.728 332.378  0.00  0.00    +0.000 A 
ATOM      3  C   UNL     1      55.287 218.287 331.038  0.00  0.00    +0.000 A 
ATOM      4  C   UNL     1      54.491 218.276 329.895  0.00  0.00    +0.000 A 
ATOM      5  C   UNL     1      52.547 218.713 331.224  0.00  0.00    +0.000 A 
ATOM      6  C   UNL     1      53.119 218.488 329.977  0.00  0.00    +0.000 A 
ENDROOT
BRANCH   4   7
ATOM      7  O   UNL     1      55.040 218.056 328.665  0.00  0.00    +0.000 OA
ATOM      8  H   UNL     1      54.604 217.280 328.272  0.00  0.00    +0.000 HD
ENDBRANCH   4   7
BRANCH   5   9
ATOM      9  O   UNL     1      51.203 218.925 331.344  0.00  0.00    +0.000 OA
ATOM     10  H   UNL     1      50.926 218.607 332.221  0.00  0.00    +0.000 HD
ENDBRANCH   5   9
BRANCH   1  11
ATOM     11  C   UNL     1      55.506 218.526 333.456  0.00  0.00    +0.000 C 
ATOM     12  C   UNL     1      56.187 218.536 334.446  0.00  0.00    +0.000 C 
BRANCH  12  13
ATOM     13  C   UNL     1      56.995 218.549 335.621  0.00  0.00    +0.000 A 
ATOM     14  C   UNL     1      56.410 218.787 336.864  0.00  0.00    +0.000 A 
ATOM     15  C   UNL     1      58.368 218.323 335.524  0.00  0.00    +0.000 A 
ATOM     16  C   UNL     1      57.197 218.800 338.012  0.00  0.00    +0.000 A 
ATOM     17  C   UNL     1      59.158 218.335 336.669  0.00  0.00    +0.000 A 
ATOM     18  C   UNL     1      58.566 218.574 337.905  0.00  0.00    +0.000 A 
BRANCH  18  19
ATOM     19  O   UNL     1      59.362 218.581 339.014  0.00  0.00    +0.000 OA
ATOM     20  H   UNL     1      59.330 217.696 339.418  0.00  0.00    +0.000 HD
ENDBRANCH  18  19
ENDBRANCH  12  13
ENDBRANCH   1  11
TORSDOF 5
ENDMDL
MODEL 5
REMARK VINA RESULT:      -5.0     14.813     18.440
REMARK  Name = 445154_Resveratrol.pdbqt.pdb
REMARK  5 active torsions:
REMARK  status: ('A' for Active; 'I' for Inactive)
REMARK    1  A    between atoms: C_1  and  C_11
REMARK    2  A    between atoms: C_4  and  O_7
REMARK    3  A    between atoms: C_5  and  O_9
REMARK    4  A    between atoms: C_12  and  C_13
REMARK    5  A    between atoms: C_18  and  O_19
REMARK                            x       y       z     vdW  Elec       q    Type
REMARK                         _______ _______ _______ _____ _____    ______ ____
ROOT
ATOM      1  C   UNL     1      70.240 221.775 339.140  0.00  0.00    +0.000 A 
ATOM      2  C   UNL     1      69.999 220.773 338.200  0.00  0.00    +0.000 A 
ATOM      3  C   UNL     1      70.041 223.114 338.804  0.00  0.00    +0.000 A 
ATOM      4  C   UNL     1      69.599 223.441 337.525  0.00  0.00    +0.000 A 
ATOM      5  C   UNL     1      69.559 221.121 336.927  0.00  0.00    +0.000 A 
ATOM      6  C   UNL     1      69.355 222.452 336.578  0.00  0.00    +0.000 A 
ENDROOT
BRANCH   4   7
ATOM      7  O   UNL     1      69.396 224.743 337.169  0.00  0.00    +0.000 OA
ATOM      8  H   UNL     1      69.681 224.853 336.244  0.00  0.00    +0.000 HD
ENDBRANCH   4   7
BRANCH   5   9
ATOM      9  O   UNL     1      69.329 220.123 336.024  0.00  0.00    +0.000 OA
ATOM     10  H   UNL     1      70.086 219.512 336.053  0.00  0.00    +0.000 HD
ENDBRANCH   5   9
BRANCH   1  11
ATOM     11  C   UNL     1      70.692 221.432 340.448  0.00  0.00    +0.000 C 
ATOM     12  C   UNL     1      71.072 221.142 341.550  0.00  0.00    +0.000 C 
BRANCH  12  13
ATOM     13  C   UNL     1      71.525 220.797 342.857  0.00  0.00    +0.000 A 
ATOM     14  C   UNL     1      72.883 220.582 343.088  0.00  0.00    +0.000 A 
ATOM     15  C   UNL     1      70.608 220.676 343.902  0.00  0.00    +0.000 A 
ATOM     16  C   UNL     1      73.327 220.246 344.364  0.00  0.00    +0.000 A 
ATOM     17  C   UNL     1      71.048 220.340 345.179  0.00  0.00    +0.000 A 
ATOM     18  C   UNL     1      72.405 220.127 345.400  0.00  0.00    +0.000 A 
BRANCH  18  19
ATOM     19  O   UNL     1      72.813 219.799 346.660  0.00  0.00    +0.000 OA
ATOM     20  H   UNL     1      73.729 219.475 346.610  0.00  0.00    +0.000 HD
ENDBRANCH  18  19
ENDBRANCH  12  13
ENDBRANCH   1  11
TORSDOF 5
ENDMDL
MODEL 6
REMARK VINA RESULT:      -4.7     12.507     17.083
REMARK  Name = 445154_Resveratrol.pdbqt.pdb
REMARK  5 active torsions:
REMARK  status: ('A' for Active; 'I' for Inactive)
REMARK    1  A    between atoms: C_1  and  C_11
REMARK    2  A    between atoms: C_4  and  O_7
REMARK    3  A    between atoms: C_5  and  O_9
REMARK    4  A    between atoms: C_12  and  C_13
REMARK    5  A    between atoms: C_18  and  O_19
REMARK                            x       y       z     vdW  Elec       q    Type
REMARK                         _______ _______ _______ _____ _____    ______ ____
ROOT
ATOM      1  C   UNL     1      68.831 220.625 338.606  0.00  0.00    +0.000 A 
ATOM      2  C   UNL     1      68.600 219.611 339.534  0.00  0.00    +0.000 A 
ATOM      3  C   UNL     1      67.941 220.827 337.552  0.00  0.00    +0.000 A 
ATOM      4  C   UNL     1      66.821 220.009 337.435  0.00  0.00    +0.000 A 
ATOM      5  C   UNL     1      67.475 218.804 339.400  0.00  0.00    +0.000 A 
ATOM      6  C   UNL     1      66.577 218.994 338.354  0.00  0.00    +0.000 A 
ENDROOT
BRANCH   4   7
ATOM      7  O   UNL     1      65.932 220.184 336.414  0.00  0.00    +0.000 OA
ATOM      8  H   UNL     1      65.360 220.940 336.636  0.00  0.00    +0.000 HD
ENDBRANCH   4   7
BRANCH   5   9
ATOM      9  O   UNL     1      67.269 217.817 340.321  0.00  0.00    +0.000 OA
ATOM     10  H   UNL     1      67.471 218.182 341.201  0.00  0.00    +0.000 HD
ENDBRANCH   5   9
BRANCH   1  11
ATOM     11  C   UNL     1      69.982 221.458 338.732  0.00  0.00    +0.000 C 
ATOM     12  C   UNL     1      70.950 222.161 338.839  0.00  0.00    +0.000 C 
BRANCH  12  13
ATOM     13  C   UNL     1      72.100 222.995 338.966  0.00  0.00    +0.000 A 
ATOM     14  C   UNL     1      72.624 223.269 340.229  0.00  0.00    +0.000 A 
ATOM     15  C   UNL     1      72.697 223.535 337.827  0.00  0.00    +0.000 A 
ATOM     16  C   UNL     1      73.746 224.082 340.355  0.00  0.00    +0.000 A 
ATOM     17  C   UNL     1      73.820 224.349 337.949  0.00  0.00    +0.000 A 
ATOM     18  C   UNL     1      74.335 224.617 339.213  0.00  0.00    +0.000 A 
BRANCH  18  19
ATOM     19  O   UNL     1      75.436 225.417 339.308  0.00  0.00    +0.000 OA
ATOM     20  H   UNL     1      75.752 225.610 338.408  0.00  0.00    +0.000 HD
ENDBRANCH  18  19
ENDBRANCH  12  13
ENDBRANCH   1  11
TORSDOF 5
ENDMDL
MODEL 7
REMARK VINA RESULT:      -4.6     12.601     17.438
REMARK  Name = 445154_Resveratrol.pdbqt.pdb
REMARK  5 active torsions:
REMARK  status: ('A' for Active; 'I' for Inactive)
REMARK    1  A    between atoms: C_1  and  C_11
REMARK    2  A    between atoms: C_4  and  O_7
REMARK    3  A    between atoms: C_5  and  O_9
REMARK    4  A    between atoms: C_12  and  C_13
REMARK    5  A    between atoms: C_18  and  O_19
REMARK                            x       y       z     vdW  Elec       q    Type
REMARK                         _______ _______ _______ _____ _____    ______ ____
ROOT
ATOM      1  C   UNL     1      68.805 220.347 339.060  0.00  0.00    +0.000 A 
ATOM      2  C   UNL     1      68.240 220.737 337.847  0.00  0.00    +0.000 A 
ATOM      3  C   UNL     1      68.212 219.338 339.818  0.00  0.00    +0.000 A 
ATOM      4  C   UNL     1      67.052 218.724 339.354  0.00  0.00    +0.000 A 
ATOM      5  C   UNL     1      67.080 220.111 337.400  0.00  0.00    +0.000 A 
ATOM      6  C   UNL     1      66.477 219.103 338.145  0.00  0.00    +0.000 A 
ENDROOT
BRANCH   4   7
ATOM      7  O   UNL     1      66.451 217.734 340.075  0.00  0.00    +0.000 OA
ATOM      8  H   UNL     1      66.918 216.899 339.892  0.00  0.00    +0.000 HD
ENDBRANCH   4   7
BRANCH   5   9
ATOM      9  O   UNL     1      66.544 220.510 336.209  0.00  0.00    +0.000 OA
ATOM     10  H   UNL     1      66.459 219.724 335.641  0.00  0.00    +0.000 HD
ENDBRANCH   5   9
BRANCH   1  11
ATOM     11  C   UNL     1      69.993 220.982 339.529  0.00  0.00    +0.000 C 
ATOM     12  C   UNL     1      70.994 221.517 339.924  0.00  0.00    +0.000 C 
BRANCH  12  13
ATOM     13  C   UNL     1      72.181 222.151 340.394  0.00  0.00    +0.000 A 
ATOM     14  C   UNL     1      72.570 223.380 339.861  0.00  0.00    +0.000 A 
ATOM     15  C   UNL     1      72.951 221.541 341.385  0.00  0.00    +0.000 A 
ATOM     16  C   UNL     1      73.729 224.001 340.318  0.00  0.00    +0.000 A 
ATOM     17  C   UNL     1      74.110 222.159 341.845  0.00  0.00    +0.000 A 
ATOM     18  C   UNL     1      74.490 223.385 341.307  0.00  0.00    +0.000 A 
BRANCH  18  19
ATOM     19  O   UNL     1      75.631 223.971 341.774  0.00  0.00    +0.000 OA
ATOM     20  H   UNL     1      75.393 224.825 342.175  0.00  0.00    +0.000 HD
ENDBRANCH  18  19
ENDBRANCH  12  13
ENDBRANCH   1  11
TORSDOF 5
ENDMDL
MODEL 8
REMARK VINA RESULT:      -4.6     26.590     27.844
REMARK  Name = 445154_Resveratrol.pdbqt.pdb
REMARK  5 active torsions:
REMARK  status: ('A' for Active; 'I' for Inactive)
REMARK    1  A    between atoms: C_1  and  C_11
REMARK    2  A    between atoms: C_4  and  O_7
REMARK    3  A    between atoms: C_5  and  O_9
REMARK    4  A    between atoms: C_12  and  C_13
REMARK    5  A    between atoms: C_18  and  O_19
REMARK                            x       y       z     vdW  Elec       q    Type
REMARK                         _______ _______ _______ _____ _____    ______ ____
ROOT
ATOM      1  C   UNL     1      53.790 241.722 347.009  0.00  0.00    +0.000 A 
ATOM      2  C   UNL     1      55.123 241.733 347.418  0.00  0.00    +0.000 A 
ATOM      3  C   UNL     1      52.979 240.622 347.290  0.00  0.00    +0.000 A 
ATOM      4  C   UNL     1      53.512 239.538 347.981  0.00  0.00    +0.000 A 
ATOM      5  C   UNL     1      55.635 240.639 348.108  0.00  0.00    +0.000 A 
ATOM      6  C   UNL     1      54.839 239.535 348.396  0.00  0.00    +0.000 A 
ENDROOT
BRANCH   4   7
ATOM      7  O   UNL     1      52.741 238.449 348.270  0.00  0.00    +0.000 OA
ATOM      8  H   UNL     1      52.635 237.928 347.454  0.00  0.00    +0.000 HD
ENDBRANCH   4   7
BRANCH   5   9
ATOM      9  O   UNL     1      56.943 240.673 348.499  0.00  0.00    +0.000 OA
ATOM     10  H   UNL     1      57.155 241.586 348.760  0.00  0.00    +0.000 HD
ENDBRANCH   5   9
BRANCH   1  11
ATOM     11  C   UNL     1      53.252 242.837 346.301  0.00  0.00    +0.000 C 
ATOM     12  C   UNL     1      52.800 243.776 345.704  0.00  0.00    +0.000 C 
BRANCH  12  13
ATOM     13  C   UNL     1      52.263 244.891 344.995  0.00  0.00    +0.000 A 
ATOM     14  C   UNL     1      52.713 246.179 345.281  0.00  0.00    +0.000 A 
ATOM     15  C   UNL     1      51.289 244.690 344.017  0.00  0.00    +0.000 A 
ATOM     16  C   UNL     1      52.191 247.269 344.590  0.00  0.00    +0.000 A 
ATOM     17  C   UNL     1      50.763 245.777 343.324  0.00  0.00    +0.000 A 
ATOM     18  C   UNL     1      51.219 247.058 343.616  0.00  0.00    +0.000 A 
BRANCH  18  19
ATOM     19  O   UNL     1      50.689 248.108 342.924  0.00  0.00    +0.000 OA
ATOM     20  H   UNL     1      50.935 248.010 341.987  0.00  0.00    +0.000 HD
ENDBRANCH  18  19
ENDBRANCH  12  13
ENDBRANCH   1  11
TORSDOF 5
ENDMDL
MODEL 9
REMARK VINA RESULT:      -4.4     14.545     16.117
REMARK  Name = 445154_Resveratrol.pdbqt.pdb
REMARK  5 active torsions:
REMARK  status: ('A' for Active; 'I' for Inactive)
REMARK    1  A    between atoms: C_1  and  C_11
REMARK    2  A    between atoms: C_4  and  O_7
REMARK    3  A    between atoms: C_5  and  O_9
REMARK    4  A    between atoms: C_12  and  C_13
REMARK    5  A    between atoms: C_18  and  O_19
REMARK                            x       y       z     vdW  Elec       q    Type
REMARK                         _______ _______ _______ _____ _____    ______ ____
ROOT
ATOM      1  C   UNL     1      62.160 227.527 323.987  0.00  0.00    +0.000 A 
ATOM      2  C   UNL     1      61.721 226.314 324.516  0.00  0.00    +0.000 A 
ATOM      3  C   UNL     1      63.290 228.153 324.512  0.00  0.00    +0.000 A 
ATOM      4  C   UNL     1      63.975 227.556 325.567  0.00  0.00    +0.000 A 
ATOM      5  C   UNL     1      62.419 225.735 325.570  0.00  0.00    +0.000 A 
ATOM      6  C   UNL     1      63.549 226.346 326.104  0.00  0.00    +0.000 A 
ENDROOT
BRANCH   4   7
ATOM      7  O   UNL     1      65.085 228.146 326.100  0.00  0.00    +0.000 OA
ATOM      8  H   UNL     1      64.926 229.106 326.145  0.00  0.00    +0.000 HD
ENDBRANCH   4   7
BRANCH   5   9
ATOM      9  O   UNL     1      61.971 224.546 326.071  0.00  0.00    +0.000 OA
ATOM     10  H   UNL     1      61.001 224.597 326.142  0.00  0.00    +0.000 HD
ENDBRANCH   5   9
BRANCH   1  11
ATOM     11  C   UNL     1      61.452 228.132 322.907  0.00  0.00    +0.000 C 
ATOM     12  C   UNL     1      60.855 228.642 321.997  0.00  0.00    +0.000 C 
BRANCH  12  13
ATOM     13  C   UNL     1      60.148 229.246 320.916  0.00  0.00    +0.000 A 
ATOM     14  C   UNL     1      60.447 230.554 320.535  0.00  0.00    +0.000 A 
ATOM     15  C   UNL     1      59.159 228.528 320.244  0.00  0.00    +0.000 A 
ATOM     16  C   UNL     1      59.758 231.146 319.480  0.00  0.00    +0.000 A 
ATOM     17  C   UNL     1      58.467 229.117 319.189  0.00  0.00    +0.000 A 
ATOM     18  C   UNL     1      58.772 230.422 318.816  0.00  0.00    +0.000 A 
BRANCH  18  19
ATOM     19  O   UNL     1      58.081 230.977 317.778  0.00  0.00    +0.000 OA
ATOM     20  H   UNL     1      57.259 231.360 318.130  0.00  0.00    +0.000 HD
ENDBRANCH  18  19
ENDBRANCH  12  13
ENDBRANCH   1  11
TORSDOF 5
ENDMDL
