MODEL 1
REMARK VINA RESULT:      -5.8      0.000      0.000
REMARK  Name = 448438_Violaxanthin.pdbqt.pdb
REMARK  16 active torsions:
REMARK  status: ('A' for Active; 'I' for Inactive)
REMARK    1  A    between atoms: C_1  and  C_5
REMARK    2  A    between atoms: C_2  and  C_27
REMARK    3  A    between atoms: C_3  and  C_5
REMARK    4  A    between atoms: C_3  and  C_7
REMARK    5  A    between atoms: C_6  and  C_10
REMARK    6  A    between atoms: C_8  and  C_10
REMARK    7  A    between atoms: C_8  and  C_12
REMARK    8  A    between atoms: C_11  and  C_14
REMARK    9  A    between atoms: C_19  and  O_23
REMARK   10  A    between atoms: C_25  and  C_27
REMARK   11  A    between atoms: C_25  and  C_29
REMARK   12  A    between atoms: C_28  and  C_32
REMARK   13  A    between atoms: C_30  and  C_32
REMARK   14  A    between atoms: C_30  and  C_34
REMARK   15  A    between atoms: C_33  and  C_36
REMARK   16  A    between atoms: C_41  and  O_45
REMARK                            x       y       z     vdW  Elec       q    Type
REMARK                         _______ _______ _______ _____ _____    ______ ____
ROOT
ATOM      1  C   UNL     1      59.485 250.532 327.205  0.00  0.00    +0.000 C 
ATOM      2  C   UNL     1      60.427 250.341 327.923  0.00  0.00    +0.000 C 
ENDROOT
BRANCH   2   3
ATOM      3  C   UNL     1      61.629 250.095 328.842  0.00  0.00    +0.000 C 
BRANCH   3   4
ATOM      4  C   UNL     1      62.646 249.887 329.618  0.00  0.00    +0.000 C 
ATOM      5  C   UNL     1      62.985 250.883 330.686  0.00  0.00    +0.000 C 
BRANCH   4   7
ATOM      6  C   UNL     1      64.177 247.801 329.236  0.00  0.00    +0.000 C 
ATOM      7  C   UNL     1      63.474 248.759 329.411  0.00  0.00    +0.000 C 
BRANCH   6   8
ATOM      8  C   UNL     1      65.075 246.577 329.014  0.00  0.00    +0.000 C 
BRANCH   8   9
ATOM      9  C   UNL     1      65.831 245.540 328.826  0.00  0.00    +0.000 C 
ATOM     10  C   UNL     1      66.501 245.336 327.502  0.00  0.00    +0.000 C 
BRANCH   9  12
ATOM     11  C   UNL     1      66.354 243.932 330.826  0.00  0.00    +0.000 C 
ATOM     12  C   UNL     1      66.118 244.672 329.908  0.00  0.00    +0.000 C 
BRANCH  11  14
ATOM     13  O   UNL     1      66.134 243.631 333.173  0.00  0.00    +0.000 OA
ATOM     14  C   UNL     1      66.615 243.031 331.938  0.00  0.00    +0.000 C 
ATOM     15  C   UNL     1      65.432 242.463 332.751  0.00  0.00    +0.000 C 
ATOM     16  C   UNL     1      67.986 242.279 332.016  0.00  0.00    +0.000 C 
ATOM     17  C   UNL     1      65.703 241.341 333.589  0.00  0.00    +0.000 C 
ATOM     18  C   UNL     1      67.867 241.253 333.062  0.00  0.00    +0.000 C 
ATOM     19  C   UNL     1      66.889 240.642 333.870  0.00  0.00    +0.000 C 
ATOM     20  C   UNL     1      63.967 242.730 332.392  0.00  0.00    +0.000 C 
ATOM     21  C   UNL     1      68.187 241.614 330.633  0.00  0.00    +0.000 C 
ATOM     22  C   UNL     1      69.056 243.346 332.333  0.00  0.00    +0.000 C 
BRANCH  19  23
ATOM     23  O   UNL     1      67.158 240.167 335.118  0.00  0.00    +0.000 OA
ATOM     24  H   UNL     1      67.169 240.868 335.794  0.00  0.00    +0.000 HD
ENDBRANCH  19  23
ENDBRANCH  11  14
ENDBRANCH   9  12
ENDBRANCH   8   9
ENDBRANCH   6   8
ENDBRANCH   4   7
ENDBRANCH   3   4
ENDBRANCH   2   3
BRANCH   1  25
ATOM     25  C   UNL     1      58.282 250.778 326.286  0.00  0.00    +0.000 C 
BRANCH  25  26
ATOM     26  C   UNL     1      57.265 250.986 325.510  0.00  0.00    +0.000 C 
ATOM     27  C   UNL     1      56.754 252.381 325.306  0.00  0.00    +0.000 C 
BRANCH  26  29
ATOM     28  C   UNL     1      56.137 248.980 324.267  0.00  0.00    +0.000 C 
ATOM     29  C   UNL     1      56.656 249.902 324.836  0.00  0.00    +0.000 C 
BRANCH  28  30
ATOM     30  C   UNL     1      55.473 247.799 323.547  0.00  0.00    +0.000 C 
BRANCH  30  31
ATOM     31  C   UNL     1      54.910 246.801 322.943  0.00  0.00    +0.000 C 
ATOM     32  C   UNL     1      55.214 246.533 321.501  0.00  0.00    +0.000 C 
BRANCH  31  34
ATOM     33  C   UNL     1      53.309 245.201 324.263  0.00  0.00    +0.000 C 
ATOM     34  C   UNL     1      54.046 245.936 323.660  0.00  0.00    +0.000 C 
BRANCH  33  36
ATOM     35  O   UNL     1      51.035 244.719 324.780  0.00  0.00    +0.000 OA
ATOM     36  C   UNL     1      52.417 244.309 324.988  0.00  0.00    +0.000 C 
ATOM     37  C   UNL     1      51.390 243.460 324.211  0.00  0.00    +0.000 C 
ATOM     38  C   UNL     1      52.796 243.858 326.444  0.00  0.00    +0.000 C 
ATOM     39  C   UNL     1      50.790 242.366 324.904  0.00  0.00    +0.000 C 
ATOM     40  C   UNL     1      51.901 242.754 326.798  0.00  0.00    +0.000 C 
ATOM     41  C   UNL     1      50.934 241.907 326.224  0.00  0.00    +0.000 C 
ATOM     42  C   UNL     1      51.291 243.438 322.683  0.00  0.00    +0.000 C 
ATOM     43  C   UNL     1      52.627 245.108 327.338  0.00  0.00    +0.000 C 
ATOM     44  C   UNL     1      54.267 243.377 326.362  0.00  0.00    +0.000 C 
BRANCH  41  45
ATOM     45  O   UNL     1      50.857 240.589 326.559  0.00  0.00    +0.000 OA
ATOM     46  H   UNL     1      50.030 240.174 326.250  0.00  0.00    +0.000 HD
ENDBRANCH  41  45
ENDBRANCH  33  36
ENDBRANCH  31  34
ENDBRANCH  30  31
ENDBRANCH  28  30
ENDBRANCH  26  29
ENDBRANCH  25  26
ENDBRANCH   1  25
TORSDOF 16
ENDMDL
MODEL 2
REMARK VINA RESULT:      -5.7     26.106     32.150
REMARK  Name = 448438_Violaxanthin.pdbqt.pdb
REMARK  16 active torsions:
REMARK  status: ('A' for Active; 'I' for Inactive)
REMARK    1  A    between atoms: C_1  and  C_5
REMARK    2  A    between atoms: C_2  and  C_27
REMARK    3  A    between atoms: C_3  and  C_5
REMARK    4  A    between atoms: C_3  and  C_7
REMARK    5  A    between atoms: C_6  and  C_10
REMARK    6  A    between atoms: C_8  and  C_10
REMARK    7  A    between atoms: C_8  and  C_12
REMARK    8  A    between atoms: C_11  and  C_14
REMARK    9  A    between atoms: C_19  and  O_23
REMARK   10  A    between atoms: C_25  and  C_27
REMARK   11  A    between atoms: C_25  and  C_29
REMARK   12  A    between atoms: C_28  and  C_32
REMARK   13  A    between atoms: C_30  and  C_32
REMARK   14  A    between atoms: C_30  and  C_34
REMARK   15  A    between atoms: C_33  and  C_36
REMARK   16  A    between atoms: C_41  and  O_45
REMARK                            x       y       z     vdW  Elec       q    Type
REMARK                         _______ _______ _______ _____ _____    ______ ____
ROOT
ATOM      1  C   UNL     1      60.636 217.311 335.326  0.00  0.00    +0.000 C 
ATOM      2  C   UNL     1      59.523 217.744 335.443  0.00  0.00    +0.000 C 
ENDROOT
BRANCH   2   3
ATOM      3  C   UNL     1      58.101 218.298 335.590  0.00  0.00    +0.000 C 
BRANCH   3   4
ATOM      4  C   UNL     1      56.900 218.769 335.717  0.00  0.00    +0.000 C 
ATOM      5  C   UNL     1      56.408 219.203 337.065  0.00  0.00    +0.000 C 
BRANCH   4   7
ATOM      6  C   UNL     1      55.299 218.840 333.650  0.00  0.00    +0.000 C 
ATOM      7  C   UNL     1      56.034 218.807 334.599  0.00  0.00    +0.000 C 
BRANCH   6   8
ATOM      8  C   UNL     1      54.360 218.885 332.438  0.00  0.00    +0.000 C 
BRANCH   8   9
ATOM      9  C   UNL     1      53.567 218.926 331.412  0.00  0.00    +0.000 C 
ATOM     10  C   UNL     1      54.137 218.940 330.027  0.00  0.00    +0.000 C 
BRANCH   9  12
ATOM     11  C   UNL     1      50.977 218.761 331.765  0.00  0.00    +0.000 C 
ATOM     12  C   UNL     1      52.165 218.832 331.601  0.00  0.00    +0.000 C 
BRANCH  11  14
ATOM     13  O   UNL     1      48.935 219.965 331.589  0.00  0.00    +0.000 OA
ATOM     14  C   UNL     1      49.538 218.697 331.972  0.00  0.00    +0.000 C 
ATOM     15  C   UNL     1      48.587 218.853 330.766  0.00  0.00    +0.000 C 
ATOM     16  C   UNL     1      48.974 218.022 333.268  0.00  0.00    +0.000 C 
ATOM     17  C   UNL     1      47.233 218.448 330.954  0.00  0.00    +0.000 C 
ATOM     18  C   UNL     1      47.526 217.855 333.083  0.00  0.00    +0.000 C 
ATOM     19  C   UNL     1      46.546 217.954 332.076  0.00  0.00    +0.000 C 
ATOM     20  C   UNL     1      49.085 218.984 329.323  0.00  0.00    +0.000 C 
ATOM     21  C   UNL     1      49.665 216.640 333.362  0.00  0.00    +0.000 C 
ATOM     22  C   UNL     1      49.332 218.956 334.444  0.00  0.00    +0.000 C 
BRANCH  19  23
ATOM     23  O   UNL     1      45.257 218.309 332.337  0.00  0.00    +0.000 OA
ATOM     24  H   UNL     1      44.611 217.704 331.931  0.00  0.00    +0.000 HD
ENDBRANCH  19  23
ENDBRANCH  11  14
ENDBRANCH   9  12
ENDBRANCH   8   9
ENDBRANCH   6   8
ENDBRANCH   4   7
ENDBRANCH   3   4
ENDBRANCH   2   3
BRANCH   1  25
ATOM     25  C   UNL     1      62.058 216.757 335.178  0.00  0.00    +0.000 C 
BRANCH  25  26
ATOM     26  C   UNL     1      63.260 216.289 335.052  0.00  0.00    +0.000 C 
ATOM     27  C   UNL     1      63.469 214.822 334.822  0.00  0.00    +0.000 C 
BRANCH  26  29
ATOM     28  C   UNL     1      65.312 217.907 335.150  0.00  0.00    +0.000 C 
ATOM     29  C   UNL     1      64.370 217.163 335.107  0.00  0.00    +0.000 C 
BRANCH  28  30
ATOM     30  C   UNL     1      66.515 218.858 335.197  0.00  0.00    +0.000 C 
BRANCH  30  31
ATOM     31  C   UNL     1      67.529 219.663 335.242  0.00  0.00    +0.000 C 
ATOM     32  C   UNL     1      67.865 220.508 334.051  0.00  0.00    +0.000 C 
BRANCH  31  34
ATOM     33  C   UNL     1      68.938 219.872 337.441  0.00  0.00    +0.000 C 
ATOM     34  C   UNL     1      68.289 219.778 336.432  0.00  0.00    +0.000 C 
BRANCH  33  36
ATOM     35  O   UNL     1      71.059 220.479 338.337  0.00  0.00    +0.000 OA
ATOM     36  C   UNL     1      69.728 219.983 338.658  0.00  0.00    +0.000 C 
ATOM     37  C   UNL     1      70.248 221.365 339.106  0.00  0.00    +0.000 C 
ATOM     38  C   UNL     1      69.654 218.839 339.731  0.00  0.00    +0.000 C 
ATOM     39  C   UNL     1      70.706 221.483 340.453  0.00  0.00    +0.000 C 
ATOM     40  C   UNL     1      70.291 219.349 340.947  0.00  0.00    +0.000 C 
ATOM     41  C   UNL     1      70.811 220.541 341.489  0.00  0.00    +0.000 C 
ATOM     42  C   UNL     1      69.920 222.671 338.379  0.00  0.00    +0.000 C 
ATOM     43  C   UNL     1      70.378 217.622 339.112  0.00  0.00    +0.000 C 
ATOM     44  C   UNL     1      68.142 218.581 339.961  0.00  0.00    +0.000 C 
BRANCH  41  45
ATOM     45  O   UNL     1      70.629 220.862 342.800  0.00  0.00    +0.000 OA
ATOM     46  H   UNL     1      69.860 221.445 342.937  0.00  0.00    +0.000 HD
ENDBRANCH  41  45
ENDBRANCH  33  36
ENDBRANCH  31  34
ENDBRANCH  30  31
ENDBRANCH  28  30
ENDBRANCH  26  29
ENDBRANCH  25  26
ENDBRANCH   1  25
TORSDOF 16
ENDMDL
MODEL 3
REMARK VINA RESULT:      -5.7      2.150     14.705
REMARK  Name = 448438_Violaxanthin.pdbqt.pdb
REMARK  16 active torsions:
REMARK  status: ('A' for Active; 'I' for Inactive)
REMARK    1  A    between atoms: C_1  and  C_5
REMARK    2  A    between atoms: C_2  and  C_27
REMARK    3  A    between atoms: C_3  and  C_5
REMARK    4  A    between atoms: C_3  and  C_7
REMARK    5  A    between atoms: C_6  and  C_10
REMARK    6  A    between atoms: C_8  and  C_10
REMARK    7  A    between atoms: C_8  and  C_12
REMARK    8  A    between atoms: C_11  and  C_14
REMARK    9  A    between atoms: C_19  and  O_23
REMARK   10  A    between atoms: C_25  and  C_27
REMARK   11  A    between atoms: C_25  and  C_29
REMARK   12  A    between atoms: C_28  and  C_32
REMARK   13  A    between atoms: C_30  and  C_32
REMARK   14  A    between atoms: C_30  and  C_34
REMARK   15  A    between atoms: C_33  and  C_36
REMARK   16  A    between atoms: C_41  and  O_45
REMARK                            x       y       z     vdW  Elec       q    Type
REMARK                         _______ _______ _______ _____ _____    ______ ____
ROOT
ATOM      1  C   UNL     1      60.912 249.369 329.790  0.00  0.00    +0.000 C 
ATOM      2  C   UNL     1      59.869 249.626 329.257  0.00  0.00    +0.000 C 
ENDROOT
BRANCH   2   3
ATOM      3  C   UNL     1      58.533 249.954 328.579  0.00  0.00    +0.000 C 
BRANCH   3   4
ATOM      4  C   UNL     1      57.404 250.232 328.008  0.00  0.00    +0.000 C 
ATOM      5  C   UNL     1      57.328 251.346 327.008  0.00  0.00    +0.000 C 
BRANCH   4   7
ATOM      6  C   UNL     1      55.238 248.935 328.693  0.00  0.00    +0.000 C 
ATOM      7  C   UNL     1      56.232 249.531 328.379  0.00  0.00    +0.000 C 
BRANCH   6   8
ATOM      8  C   UNL     1      53.968 248.173 329.093  0.00  0.00    +0.000 C 
BRANCH   8   9
ATOM      9  C   UNL     1      52.895 247.526 329.429  0.00  0.00    +0.000 C 
ATOM     10  C   UNL     1      51.986 248.083 330.481  0.00  0.00    +0.000 C 
BRANCH   9  12
ATOM     11  C   UNL     1      52.199 245.371 328.114  0.00  0.00    +0.000 C 
ATOM     12  C   UNL     1      52.523 246.359 328.716  0.00  0.00    +0.000 C 
BRANCH  11  14
ATOM     13  O   UNL     1      51.716 243.052 328.314  0.00  0.00    +0.000 OA
ATOM     14  C   UNL     1      51.784 244.177 327.393  0.00  0.00    +0.000 C 
ATOM     15  C   UNL     1      50.463 243.476 327.779  0.00  0.00    +0.000 C 
ATOM     16  C   UNL     1      52.384 243.882 325.977  0.00  0.00    +0.000 C 
ATOM     17  C   UNL     1      49.933 242.538 326.844  0.00  0.00    +0.000 C 
ATOM     18  C   UNL     1      51.598 242.792 325.383  0.00  0.00    +0.000 C 
ATOM     19  C   UNL     1      50.410 242.068 325.609  0.00  0.00    +0.000 C 
ATOM     20  C   UNL     1      49.504 244.028 328.837  0.00  0.00    +0.000 C 
ATOM     21  C   UNL     1      52.201 245.183 325.158  0.00  0.00    +0.000 C 
ATOM     22  C   UNL     1      53.867 243.511 326.195  0.00  0.00    +0.000 C 
BRANCH  19  23
ATOM     23  O   UNL     1      50.259 240.768 325.233  0.00  0.00    +0.000 OA
ATOM     24  H   UNL     1      51.044 240.415 324.777  0.00  0.00    +0.000 HD
ENDBRANCH  19  23
ENDBRANCH  11  14
ENDBRANCH   9  12
ENDBRANCH   8   9
ENDBRANCH   6   8
ENDBRANCH   4   7
ENDBRANCH   3   4
ENDBRANCH   2   3
BRANCH   1  25
ATOM     25  C   UNL     1      62.248 249.040 330.469  0.00  0.00    +0.000 C 
BRANCH  25  26
ATOM     26  C   UNL     1      63.376 248.763 331.043  0.00  0.00    +0.000 C 
ATOM     27  C   UNL     1      63.909 249.664 332.116  0.00  0.00    +0.000 C 
BRANCH  26  29
ATOM     28  C   UNL     1      64.692 246.608 330.362  0.00  0.00    +0.000 C 
ATOM     29  C   UNL     1      64.089 247.599 330.675  0.00  0.00    +0.000 C 
BRANCH  28  30
ATOM     30  C   UNL     1      65.456 245.339 329.961  0.00  0.00    +0.000 C 
BRANCH  30  31
ATOM     31  C   UNL     1      66.104 244.270 329.619  0.00  0.00    +0.000 C 
ATOM     32  C   UNL     1      66.293 243.943 328.169  0.00  0.00    +0.000 C 
BRANCH  31  34
ATOM     33  C   UNL     1      67.151 242.733 331.464  0.00  0.00    +0.000 C 
ATOM     34  C   UNL     1      66.673 243.439 330.615  0.00  0.00    +0.000 C 
BRANCH  33  36
ATOM     35  O   UNL     1      67.176 240.532 332.372  0.00  0.00    +0.000 OA
ATOM     36  C   UNL     1      67.724 241.876 332.491  0.00  0.00    +0.000 C 
ATOM     37  C   UNL     1      68.567 240.651 332.080  0.00  0.00    +0.000 C 
ATOM     38  C   UNL     1      67.892 242.431 333.951  0.00  0.00    +0.000 C 
ATOM     39  C   UNL     1      69.384 240.054 333.087  0.00  0.00    +0.000 C 
ATOM     40  C   UNL     1      68.750 241.488 334.672  0.00  0.00    +0.000 C 
ATOM     41  C   UNL     1      69.555 240.355 334.448  0.00  0.00    +0.000 C 
ATOM     42  C   UNL     1      68.912 240.308 330.628  0.00  0.00    +0.000 C 
ATOM     43  C   UNL     1      66.464 242.545 334.533  0.00  0.00    +0.000 C 
ATOM     44  C   UNL     1      68.585 243.809 333.796  0.00  0.00    +0.000 C 
BRANCH  41  45
ATOM     45  O   UNL     1      70.742 240.189 335.096  0.00  0.00    +0.000 OA
ATOM     46  H   UNL     1      70.835 239.296 335.477  0.00  0.00    +0.000 HD
ENDBRANCH  41  45
ENDBRANCH  33  36
ENDBRANCH  31  34
ENDBRANCH  30  31
ENDBRANCH  28  30
ENDBRANCH  26  29
ENDBRANCH  25  26
ENDBRANCH   1  25
TORSDOF 16
ENDMDL
MODEL 4
REMARK VINA RESULT:      -5.6     22.305     27.216
REMARK  Name = 448438_Violaxanthin.pdbqt.pdb
REMARK  16 active torsions:
REMARK  status: ('A' for Active; 'I' for Inactive)
REMARK    1  A    between atoms: C_1  and  C_5
REMARK    2  A    between atoms: C_2  and  C_27
REMARK    3  A    between atoms: C_3  and  C_5
REMARK    4  A    between atoms: C_3  and  C_7
REMARK    5  A    between atoms: C_6  and  C_10
REMARK    6  A    between atoms: C_8  and  C_10
REMARK    7  A    between atoms: C_8  and  C_12
REMARK    8  A    between atoms: C_11  and  C_14
REMARK    9  A    between atoms: C_19  and  O_23
REMARK   10  A    between atoms: C_25  and  C_27
REMARK   11  A    between atoms: C_25  and  C_29
REMARK   12  A    between atoms: C_28  and  C_32
REMARK   13  A    between atoms: C_30  and  C_32
REMARK   14  A    between atoms: C_30  and  C_34
REMARK   15  A    between atoms: C_33  and  C_36
REMARK   16  A    between atoms: C_41  and  O_45
REMARK                            x       y       z     vdW  Elec       q    Type
REMARK                         _______ _______ _______ _____ _____    ______ ____
ROOT
ATOM      1  C   UNL     1      54.653 219.361 328.436  0.00  0.00    +0.000 C 
ATOM      2  C   UNL     1      55.354 219.729 327.534  0.00  0.00    +0.000 C 
ENDROOT
BRANCH   2   3
ATOM      3  C   UNL     1      56.250 220.196 326.381  0.00  0.00    +0.000 C 
BRANCH   3   4
ATOM      4  C   UNL     1      57.008 220.593 325.408  0.00  0.00    +0.000 C 
ATOM      5  C   UNL     1      56.700 220.170 324.003  0.00  0.00    +0.000 C 
BRANCH   4   7
ATOM      6  C   UNL     1      59.141 222.022 325.909  0.00  0.00    +0.000 C 
ATOM      7  C   UNL     1      58.161 221.366 325.679  0.00  0.00    +0.000 C 
BRANCH   6   8
ATOM      8  C   UNL     1      60.390 222.861 326.205  0.00  0.00    +0.000 C 
BRANCH   8   9
ATOM      9  C   UNL     1      61.445 223.573 326.454  0.00  0.00    +0.000 C 
ATOM     10  C   UNL     1      62.356 223.190 327.580  0.00  0.00    +0.000 C 
BRANCH   9  12
ATOM     11  C   UNL     1      62.107 225.539 324.854  0.00  0.00    +0.000 C 
ATOM     12  C   UNL     1      61.799 224.636 325.586  0.00  0.00    +0.000 C 
BRANCH  11  14
ATOM     13  O   UNL     1      63.095 226.102 322.767  0.00  0.00    +0.000 OA
ATOM     14  C   UNL     1      62.499 226.636 323.983  0.00  0.00    +0.000 C 
ATOM     15  C   UNL     1      61.848 226.772 322.590  0.00  0.00    +0.000 C 
ATOM     16  C   UNL     1      63.187 227.901 324.598  0.00  0.00    +0.000 C 
ATOM     17  C   UNL     1      62.000 228.024 321.925  0.00  0.00    +0.000 C 
ATOM     18  C   UNL     1      63.217 228.937 323.555  0.00  0.00    +0.000 C 
ATOM     19  C   UNL     1      62.689 229.197 322.275  0.00  0.00    +0.000 C 
ATOM     20  C   UNL     1      60.727 225.851 322.100  0.00  0.00    +0.000 C 
ATOM     21  C   UNL     1      62.283 228.349 325.772  0.00  0.00    +0.000 C 
ATOM     22  C   UNL     1      64.594 227.461 325.055  0.00  0.00    +0.000 C 
BRANCH  19  23
ATOM     23  O   UNL     1      63.349 229.942 321.346  0.00  0.00    +0.000 OA
ATOM     24  H   UNL     1      64.282 230.098 321.581  0.00  0.00    +0.000 HD
ENDBRANCH  19  23
ENDBRANCH  11  14
ENDBRANCH   9  12
ENDBRANCH   8   9
ENDBRANCH   6   8
ENDBRANCH   4   7
ENDBRANCH   3   4
ENDBRANCH   2   3
BRANCH   1  25
ATOM     25  C   UNL     1      53.757 218.893 329.589  0.00  0.00    +0.000 C 
BRANCH  25  26
ATOM     26  C   UNL     1      53.000 218.498 330.564  0.00  0.00    +0.000 C 
ATOM     27  C   UNL     1      51.535 218.816 330.547  0.00  0.00    +0.000 C 
BRANCH  26  29
ATOM     28  C   UNL     1      54.021 217.108 332.529  0.00  0.00    +0.000 C 
ATOM     29  C   UNL     1      53.550 217.745 331.627  0.00  0.00    +0.000 C 
BRANCH  28  30
ATOM     30  C   UNL     1      54.629 216.295 333.679  0.00  0.00    +0.000 C 
BRANCH  30  31
ATOM     31  C   UNL     1      55.144 215.605 334.648  0.00  0.00    +0.000 C 
ATOM     32  C   UNL     1      54.912 214.126 334.718  0.00  0.00    +0.000 C 
BRANCH  31  34
ATOM     33  C   UNL     1      56.667 216.778 336.429  0.00  0.00    +0.000 C 
ATOM     34  C   UNL     1      55.966 216.241 335.611  0.00  0.00    +0.000 C 
BRANCH  33  36
ATOM     35  O   UNL     1      58.625 218.096 336.743  0.00  0.00    +0.000 OA
ATOM     36  C   UNL     1      57.520 217.425 337.414  0.00  0.00    +0.000 C 
ATOM     37  C   UNL     1      57.690 218.958 337.387  0.00  0.00    +0.000 C 
ATOM     38  C   UNL     1      57.873 216.667 338.743  0.00  0.00    +0.000 C 
ATOM     39  C   UNL     1      58.237 219.574 338.553  0.00  0.00    +0.000 C 
ATOM     40  C   UNL     1      58.471 217.648 339.651  0.00  0.00    +0.000 C 
ATOM     41  C   UNL     1      58.702 219.032 339.763  0.00  0.00    +0.000 C 
ATOM     42  C   UNL     1      56.944 219.877 336.416  0.00  0.00    +0.000 C 
ATOM     43  C   UNL     1      58.830 215.521 338.343  0.00  0.00    +0.000 C 
ATOM     44  C   UNL     1      56.521 216.148 339.298  0.00  0.00    +0.000 C 
BRANCH  41  45
ATOM     45  O   UNL     1      58.579 219.678 340.956  0.00  0.00    +0.000 OA
ATOM     46  H   UNL     1      59.185 219.326 341.633  0.00  0.00    +0.000 HD
ENDBRANCH  41  45
ENDBRANCH  33  36
ENDBRANCH  31  34
ENDBRANCH  30  31
ENDBRANCH  28  30
ENDBRANCH  26  29
ENDBRANCH  25  26
ENDBRANCH   1  25
TORSDOF 16
ENDMDL
MODEL 5
REMARK VINA RESULT:      -5.5     21.721     26.687
REMARK  Name = 448438_Violaxanthin.pdbqt.pdb
REMARK  16 active torsions:
REMARK  status: ('A' for Active; 'I' for Inactive)
REMARK    1  A    between atoms: C_1  and  C_5
REMARK    2  A    between atoms: C_2  and  C_27
REMARK    3  A    between atoms: C_3  and  C_5
REMARK    4  A    between atoms: C_3  and  C_7
REMARK    5  A    between atoms: C_6  and  C_10
REMARK    6  A    between atoms: C_8  and  C_10
REMARK    7  A    between atoms: C_8  and  C_12
REMARK    8  A    between atoms: C_11  and  C_14
REMARK    9  A    between atoms: C_19  and  O_23
REMARK   10  A    between atoms: C_25  and  C_27
REMARK   11  A    between atoms: C_25  and  C_29
REMARK   12  A    between atoms: C_28  and  C_32
REMARK   13  A    between atoms: C_30  and  C_32
REMARK   14  A    between atoms: C_30  and  C_34
REMARK   15  A    between atoms: C_33  and  C_36
REMARK   16  A    between atoms: C_41  and  O_45
REMARK                            x       y       z     vdW  Elec       q    Type
REMARK                         _______ _______ _______ _____ _____    ______ ____
ROOT
ATOM      1  C   UNL     1      42.176 237.638 337.737  0.00  0.00    +0.000 C 
ATOM      2  C   UNL     1      42.074 237.433 336.559  0.00  0.00    +0.000 C 
ENDROOT
BRANCH   2   3
ATOM      3  C   UNL     1      41.945 237.174 335.054  0.00  0.00    +0.000 C 
BRANCH   3   4
ATOM      4  C   UNL     1      41.834 236.957 333.781  0.00  0.00    +0.000 C 
ATOM      5  C   UNL     1      41.790 238.114 332.828  0.00  0.00    +0.000 C 
BRANCH   4   7
ATOM      6  C   UNL     1      41.563 234.513 332.889  0.00  0.00    +0.000 C 
ATOM      7  C   UNL     1      41.688 235.635 333.298  0.00  0.00    +0.000 C 
BRANCH   6   8
ATOM      8  C   UNL     1      41.405 233.079 332.367  0.00  0.00    +0.000 C 
BRANCH   8   9
ATOM      9  C   UNL     1      41.272 231.865 331.930  0.00  0.00    +0.000 C 
ATOM     10  C   UNL     1      40.895 231.624 330.500  0.00  0.00    +0.000 C 
BRANCH   9  12
ATOM     11  C   UNL     1      41.894 229.848 333.480  0.00  0.00    +0.000 C 
ATOM     12  C   UNL     1      41.604 230.773 332.769  0.00  0.00    +0.000 C 
BRANCH  11  14
ATOM     13  O   UNL     1      41.417 228.716 335.515  0.00  0.00    +0.000 OA
ATOM     14  C   UNL     1      42.269 228.732 334.335  0.00  0.00    +0.000 C 
ATOM     15  C   UNL     1      41.242 227.615 334.623  0.00  0.00    +0.000 C 
ATOM     16  C   UNL     1      43.784 228.412 334.567  0.00  0.00    +0.000 C 
ATOM     17  C   UNL     1      41.748 226.398 335.167  0.00  0.00    +0.000 C 
ATOM     18  C   UNL     1      43.862 227.101 335.226  0.00  0.00    +0.000 C 
ATOM     19  C   UNL     1      43.040 226.004 335.551  0.00  0.00    +0.000 C 
ATOM     20  C   UNL     1      39.855 227.571 333.976  0.00  0.00    +0.000 C 
ATOM     21  C   UNL     1      44.424 228.343 333.159  0.00  0.00    +0.000 C 
ATOM     22  C   UNL     1      44.351 229.560 335.431  0.00  0.00    +0.000 C 
BRANCH  19  23
ATOM     23  O   UNL     1      43.253 225.227 336.649  0.00  0.00    +0.000 OA
ATOM     24  H   UNL     1      43.606 225.730 337.405  0.00  0.00    +0.000 HD
ENDBRANCH  19  23
ENDBRANCH  11  14
ENDBRANCH   9  12
ENDBRANCH   8   9
ENDBRANCH   6   8
ENDBRANCH   4   7
ENDBRANCH   3   4
ENDBRANCH   2   3
BRANCH   1  25
ATOM     25  C   UNL     1      42.306 237.899 339.243  0.00  0.00    +0.000 C 
BRANCH  25  26
ATOM     26  C   UNL     1      42.415 238.119 340.515  0.00  0.00    +0.000 C 
ATOM     27  C   UNL     1      42.856 239.466 341.003  0.00  0.00    +0.000 C 
BRANCH  26  29
ATOM     28  C   UNL     1      41.820 236.233 342.225  0.00  0.00    +0.000 C 
ATOM     29  C   UNL     1      42.095 237.099 341.440  0.00  0.00    +0.000 C 
BRANCH  28  30
ATOM     30  C   UNL     1      41.461 235.128 343.227  0.00  0.00    +0.000 C 
BRANCH  30  31
ATOM     31  C   UNL     1      41.161 234.191 344.072  0.00  0.00    +0.000 C 
ATOM     32  C   UNL     1      39.727 233.826 344.303  0.00  0.00    +0.000 C 
BRANCH  31  34
ATOM     33  C   UNL     1      43.065 232.878 345.302  0.00  0.00    +0.000 C 
ATOM     34  C   UNL     1      42.192 233.484 344.739  0.00  0.00    +0.000 C 
BRANCH  33  36
ATOM     35  O   UNL     1      45.420 232.578 345.488  0.00  0.00    +0.000 OA
ATOM     36  C   UNL     1      44.121 232.140 345.980  0.00  0.00    +0.000 C 
ATOM     37  C   UNL     1      45.145 232.900 346.850  0.00  0.00    +0.000 C 
ATOM     38  C   UNL     1      43.952 230.597 346.218  0.00  0.00    +0.000 C 
ATOM     39  C   UNL     1      45.930 232.127 347.757  0.00  0.00    +0.000 C 
ATOM     40  C   UNL     1      44.993 230.192 347.164  0.00  0.00    +0.000 C 
ATOM     41  C   UNL     1      45.979 230.745 348.004  0.00  0.00    +0.000 C 
ATOM     42  C   UNL     1      45.080 234.406 347.114  0.00  0.00    +0.000 C 
ATOM     43  C   UNL     1      44.079 229.933 344.828  0.00  0.00    +0.000 C 
ATOM     44  C   UNL     1      42.540 230.423 346.836  0.00  0.00    +0.000 C 
BRANCH  41  45
ATOM     45  O   UNL     1      46.234 230.224 349.236  0.00  0.00    +0.000 OA
ATOM     46  H   UNL     1      45.762 229.385 349.390  0.00  0.00    +0.000 HD
ENDBRANCH  41  45
ENDBRANCH  33  36
ENDBRANCH  31  34
ENDBRANCH  30  31
ENDBRANCH  28  30
ENDBRANCH  26  29
ENDBRANCH  25  26
ENDBRANCH   1  25
TORSDOF 16
ENDMDL
MODEL 6
REMARK VINA RESULT:      -5.5     24.528     31.662
REMARK  Name = 448438_Violaxanthin.pdbqt.pdb
REMARK  16 active torsions:
REMARK  status: ('A' for Active; 'I' for Inactive)
REMARK    1  A    between atoms: C_1  and  C_5
REMARK    2  A    between atoms: C_2  and  C_27
REMARK    3  A    between atoms: C_3  and  C_5
REMARK    4  A    between atoms: C_3  and  C_7
REMARK    5  A    between atoms: C_6  and  C_10
REMARK    6  A    between atoms: C_8  and  C_10
REMARK    7  A    between atoms: C_8  and  C_12
REMARK    8  A    between atoms: C_11  and  C_14
REMARK    9  A    between atoms: C_19  and  O_23
REMARK   10  A    between atoms: C_25  and  C_27
REMARK   11  A    between atoms: C_25  and  C_29
REMARK   12  A    between atoms: C_28  and  C_32
REMARK   13  A    between atoms: C_30  and  C_32
REMARK   14  A    between atoms: C_30  and  C_34
REMARK   15  A    between atoms: C_33  and  C_36
REMARK   16  A    between atoms: C_41  and  O_45
REMARK                            x       y       z     vdW  Elec       q    Type
REMARK                         _______ _______ _______ _____ _____    ______ ____
ROOT
ATOM      1  C   UNL     1      52.313 218.499 332.108  0.00  0.00    +0.000 C 
ATOM      2  C   UNL     1      51.133 218.681 331.985  0.00  0.00    +0.000 C 
ENDROOT
BRANCH   2   3
ATOM      3  C   UNL     1      49.626 218.915 331.830  0.00  0.00    +0.000 C 
BRANCH   3   4
ATOM      4  C   UNL     1      48.352 219.110 331.699  0.00  0.00    +0.000 C 
ATOM      5  C   UNL     1      47.417 217.938 331.667  0.00  0.00    +0.000 C 
BRANCH   4   7
ATOM      6  C   UNL     1      47.427 221.534 331.363  0.00  0.00    +0.000 C 
ATOM      7  C   UNL     1      47.852 220.421 331.518  0.00  0.00    +0.000 C 
BRANCH   6   8
ATOM      8  C   UNL     1      46.884 222.954 331.164  0.00  0.00    +0.000 C 
BRANCH   8   9
ATOM      9  C   UNL     1      46.428 224.157 330.995  0.00  0.00    +0.000 C 
ATOM     10  C   UNL     1      46.821 224.940 329.780  0.00  0.00    +0.000 C 
BRANCH   9  12
ATOM     11  C   UNL     1      44.649 225.129 332.653  0.00  0.00    +0.000 C 
ATOM     12  C   UNL     1      45.464 224.678 331.893  0.00  0.00    +0.000 C 
BRANCH  11  14
ATOM     13  O   UNL     1      44.357 226.293 334.705  0.00  0.00    +0.000 OA
ATOM     14  C   UNL     1      43.671 225.697 333.569  0.00  0.00    +0.000 C 
ATOM     15  C   UNL     1      43.684 227.215 333.850  0.00  0.00    +0.000 C 
ATOM     16  C   UNL     1      42.359 224.904 333.885  0.00  0.00    +0.000 C 
ATOM     17  C   UNL     1      42.522 227.768 334.465  0.00  0.00    +0.000 C 
ATOM     18  C   UNL     1      41.454 225.816 334.599  0.00  0.00    +0.000 C 
ATOM     19  C   UNL     1      41.332 227.181 334.927  0.00  0.00    +0.000 C 
ATOM     20  C   UNL     1      44.629 228.187 333.139  0.00  0.00    +0.000 C 
ATOM     21  C   UNL     1      41.756 224.514 332.514  0.00  0.00    +0.000 C 
ATOM     22  C   UNL     1      42.776 223.681 334.730  0.00  0.00    +0.000 C 
BRANCH  19  23
ATOM     23  O   UNL     1      40.718 227.611 336.063  0.00  0.00    +0.000 OA
ATOM     24  H   UNL     1      40.124 228.367 335.907  0.00  0.00    +0.000 HD
ENDBRANCH  19  23
ENDBRANCH  11  14
ENDBRANCH   9  12
ENDBRANCH   8   9
ENDBRANCH   6   8
ENDBRANCH   4   7
ENDBRANCH   3   4
ENDBRANCH   2   3
BRANCH   1  25
ATOM     25  C   UNL     1      53.820 218.265 332.264  0.00  0.00    +0.000 C 
BRANCH  25  26
ATOM     26  C   UNL     1      55.094 218.067 332.396  0.00  0.00    +0.000 C 
ATOM     27  C   UNL     1      55.928 217.744 331.192  0.00  0.00    +0.000 C 
BRANCH  26  29
ATOM     28  C   UNL     1      56.212 218.280 334.751  0.00  0.00    +0.000 C 
ATOM     29  C   UNL     1      55.701 218.182 333.668  0.00  0.00    +0.000 C 
BRANCH  28  30
ATOM     30  C   UNL     1      56.859 218.407 336.136  0.00  0.00    +0.000 C 
BRANCH  30  31
ATOM     31  C   UNL     1      57.401 218.512 337.309  0.00  0.00    +0.000 C 
ATOM     32  C   UNL     1      58.051 219.799 337.718  0.00  0.00    +0.000 C 
BRANCH  31  34
ATOM     33  C   UNL     1      57.284 216.510 338.994  0.00  0.00    +0.000 C 
ATOM     34  C   UNL     1      57.337 217.428 338.218  0.00  0.00    +0.000 C 
BRANCH  33  36
ATOM     35  O   UNL     1      58.562 215.030 340.354  0.00  0.00    +0.000 OA
ATOM     36  C   UNL     1      57.217 215.404 339.938  0.00  0.00    +0.000 C 
ATOM     37  C   UNL     1      57.744 215.596 341.376  0.00  0.00    +0.000 C 
ATOM     38  C   UNL     1      56.219 214.222 339.669  0.00  0.00    +0.000 C 
ATOM     39  C   UNL     1      57.349 214.629 342.348  0.00  0.00    +0.000 C 
ATOM     40  C   UNL     1      56.147 213.432 340.901  0.00  0.00    +0.000 C 
ATOM     41  C   UNL     1      56.567 213.467 342.244  0.00  0.00    +0.000 C 
ATOM     42  C   UNL     1      58.279 216.926 341.912  0.00  0.00    +0.000 C 
ATOM     43  C   UNL     1      56.791 213.444 338.462  0.00  0.00    +0.000 C 
ATOM     44  C   UNL     1      54.855 214.890 339.357  0.00  0.00    +0.000 C 
BRANCH  41  45
ATOM     45  O   UNL     1      55.760 213.029 343.250  0.00  0.00    +0.000 OA
ATOM     46  H   UNL     1      56.104 212.224 343.680  0.00  0.00    +0.000 HD
ENDBRANCH  41  45
ENDBRANCH  33  36
ENDBRANCH  31  34
ENDBRANCH  30  31
ENDBRANCH  28  30
ENDBRANCH  26  29
ENDBRANCH  25  26
ENDBRANCH   1  25
TORSDOF 16
ENDMDL
MODEL 7
REMARK VINA RESULT:      -5.4     23.761     29.287
REMARK  Name = 448438_Violaxanthin.pdbqt.pdb
REMARK  16 active torsions:
REMARK  status: ('A' for Active; 'I' for Inactive)
REMARK    1  A    between atoms: C_1  and  C_5
REMARK    2  A    between atoms: C_2  and  C_27
REMARK    3  A    between atoms: C_3  and  C_5
REMARK    4  A    between atoms: C_3  and  C_7
REMARK    5  A    between atoms: C_6  and  C_10
REMARK    6  A    between atoms: C_8  and  C_10
REMARK    7  A    between atoms: C_8  and  C_12
REMARK    8  A    between atoms: C_11  and  C_14
REMARK    9  A    between atoms: C_19  and  O_23
REMARK   10  A    between atoms: C_25  and  C_27
REMARK   11  A    between atoms: C_25  and  C_29
REMARK   12  A    between atoms: C_28  and  C_32
REMARK   13  A    between atoms: C_30  and  C_32
REMARK   14  A    between atoms: C_30  and  C_34
REMARK   15  A    between atoms: C_33  and  C_36
REMARK   16  A    between atoms: C_41  and  O_45
REMARK                            x       y       z     vdW  Elec       q    Type
REMARK                         _______ _______ _______ _____ _____    ______ ____
ROOT
ATOM      1  C   UNL     1      47.036 222.734 331.702  0.00  0.00    +0.000 C 
ATOM      2  C   UNL     1      47.127 223.554 330.831  0.00  0.00    +0.000 C 
ENDROOT
BRANCH   2   3
ATOM      3  C   UNL     1      47.245 224.602 329.719  0.00  0.00    +0.000 C 
BRANCH   3   4
ATOM      4  C   UNL     1      47.344 225.487 328.777  0.00  0.00    +0.000 C 
ATOM      5  C   UNL     1      47.581 226.926 329.128  0.00  0.00    +0.000 C 
BRANCH   4   7
ATOM      6  C   UNL     1      47.004 224.785 326.280  0.00  0.00    +0.000 C 
ATOM      7  C   UNL     1      47.160 225.108 327.427  0.00  0.00    +0.000 C 
BRANCH   6   8
ATOM      8  C   UNL     1      46.803 224.371 324.817  0.00  0.00    +0.000 C 
BRANCH   8   9
ATOM      9  C   UNL     1      46.633 224.018 323.581  0.00  0.00    +0.000 C 
ATOM     10  C   UNL     1      45.311 224.242 322.915  0.00  0.00    +0.000 C 
BRANCH   9  12
ATOM     11  C   UNL     1      48.668 223.121 322.196  0.00  0.00    +0.000 C 
ATOM     12  C   UNL     1      47.733 223.536 322.828  0.00  0.00    +0.000 C 
BRANCH  11  14
ATOM     13  O   UNL     1      50.431 221.527 322.203  0.00  0.00    +0.000 OA
ATOM     14  C   UNL     1      49.804 222.602 321.450  0.00  0.00    +0.000 C 
ATOM     15  C   UNL     1      49.802 221.130 320.986  0.00  0.00    +0.000 C 
ATOM     16  C   UNL     1      50.769 223.599 320.723  0.00  0.00    +0.000 C 
ATOM     17  C   UNL     1      50.750 220.766 319.985  0.00  0.00    +0.000 C 
ATOM     18  C   UNL     1      51.638 222.806 319.842  0.00  0.00    +0.000 C 
ATOM     19  C   UNL     1      51.759 221.497 319.336  0.00  0.00    +0.000 C 
ATOM     20  C   UNL     1      48.610 220.191 321.195  0.00  0.00    +0.000 C 
ATOM     21  C   UNL     1      49.864 224.533 319.884  0.00  0.00    +0.000 C 
ATOM     22  C   UNL     1      51.546 224.346 321.828  0.00  0.00    +0.000 C 
BRANCH  19  23
ATOM     23  O   UNL     1      52.962 220.936 319.029  0.00  0.00    +0.000 OA
ATOM     24  H   UNL     1      53.714 221.434 319.396  0.00  0.00    +0.000 HD
ENDBRANCH  19  23
ENDBRANCH  11  14
ENDBRANCH   9  12
ENDBRANCH   8   9
ENDBRANCH   6   8
ENDBRANCH   4   7
ENDBRANCH   3   4
ENDBRANCH   2   3
BRANCH   1  25
ATOM     25  C   UNL     1      46.918 221.686 332.815  0.00  0.00    +0.000 C 
BRANCH  25  26
ATOM     26  C   UNL     1      46.819 220.800 333.756  0.00  0.00    +0.000 C 
ATOM     27  C   UNL     1      45.692 220.883 334.742  0.00  0.00    +0.000 C 
BRANCH  26  29
ATOM     28  C   UNL     1      48.551 218.847 333.900  0.00  0.00    +0.000 C 
ATOM     29  C   UNL     1      47.755 219.744 333.836  0.00  0.00    +0.000 C 
BRANCH  28  30
ATOM     30  C   UNL     1      49.566 217.699 333.975  0.00  0.00    +0.000 C 
BRANCH  30  31
ATOM     31  C   UNL     1      50.420 216.725 334.037  0.00  0.00    +0.000 C 
ATOM     32  C   UNL     1      50.146 215.547 334.921  0.00  0.00    +0.000 C 
BRANCH  31  34
ATOM     33  C   UNL     1      52.578 216.776 332.552  0.00  0.00    +0.000 C 
ATOM     34  C   UNL     1      51.586 216.756 333.233  0.00  0.00    +0.000 C 
BRANCH  33  36
ATOM     35  O   UNL     1      54.060 215.452 331.241  0.00  0.00    +0.000 OA
ATOM     36  C   UNL     1      53.777 216.795 331.728  0.00  0.00    +0.000 C 
ATOM     37  C   UNL     1      53.687 216.397 330.240  0.00  0.00    +0.000 C 
ATOM     38  C   UNL     1      55.017 217.641 332.192  0.00  0.00    +0.000 C 
ATOM     39  C   UNL     1      54.784 216.758 329.402  0.00  0.00    +0.000 C 
ATOM     40  C   UNL     1      55.934 217.718 331.053  0.00  0.00    +0.000 C 
ATOM     41  C   UNL     1      55.999 217.404 329.682  0.00  0.00    +0.000 C 
ATOM     42  C   UNL     1      52.374 216.046 329.535  0.00  0.00    +0.000 C 
ATOM     43  C   UNL     1      55.605 216.904 333.417  0.00  0.00    +0.000 C 
ATOM     44  C   UNL     1      54.456 219.041 332.551  0.00  0.00    +0.000 C 
BRANCH  41  45
ATOM     45  O   UNL     1      56.617 218.231 328.793  0.00  0.00    +0.000 OA
ATOM     46  H   UNL     1      56.998 219.019 329.222  0.00  0.00    +0.000 HD
ENDBRANCH  41  45
ENDBRANCH  33  36
ENDBRANCH  31  34
ENDBRANCH  30  31
ENDBRANCH  28  30
ENDBRANCH  26  29
ENDBRANCH  25  26
ENDBRANCH   1  25
TORSDOF 16
ENDMDL
MODEL 8
REMARK VINA RESULT:      -5.3     12.991     18.458
REMARK  Name = 448438_Violaxanthin.pdbqt.pdb
REMARK  16 active torsions:
REMARK  status: ('A' for Active; 'I' for Inactive)
REMARK    1  A    between atoms: C_1  and  C_5
REMARK    2  A    between atoms: C_2  and  C_27
REMARK    3  A    between atoms: C_3  and  C_5
REMARK    4  A    between atoms: C_3  and  C_7
REMARK    5  A    between atoms: C_6  and  C_10
REMARK    6  A    between atoms: C_8  and  C_10
REMARK    7  A    between atoms: C_8  and  C_12
REMARK    8  A    between atoms: C_11  and  C_14
REMARK    9  A    between atoms: C_19  and  O_23
REMARK   10  A    between atoms: C_25  and  C_27
REMARK   11  A    between atoms: C_25  and  C_29
REMARK   12  A    between atoms: C_28  and  C_32
REMARK   13  A    between atoms: C_30  and  C_32
REMARK   14  A    between atoms: C_30  and  C_34
REMARK   15  A    between atoms: C_33  and  C_36
REMARK   16  A    between atoms: C_41  and  O_45
REMARK                            x       y       z     vdW  Elec       q    Type
REMARK                         _______ _______ _______ _____ _____    ______ ____
ROOT
ATOM      1  C   UNL     1      62.841 245.786 343.129  0.00  0.00    +0.000 C 
ATOM      2  C   UNL     1      61.953 246.209 343.816  0.00  0.00    +0.000 C 
ENDROOT
BRANCH   2   3
ATOM      3  C   UNL     1      60.820 246.749 344.696  0.00  0.00    +0.000 C 
BRANCH   3   4
ATOM      4  C   UNL     1      59.860 247.206 345.438  0.00  0.00    +0.000 C 
ATOM      5  C   UNL     1      59.385 248.616 345.259  0.00  0.00    +0.000 C 
BRANCH   4   7
ATOM      6  C   UNL     1      58.843 245.710 347.328  0.00  0.00    +0.000 C 
ATOM      7  C   UNL     1      59.310 246.397 346.460  0.00  0.00    +0.000 C 
BRANCH   6   8
ATOM      8  C   UNL     1      58.246 244.835 348.437  0.00  0.00    +0.000 C 
BRANCH   8   9
ATOM      9  C   UNL     1      57.738 244.096 349.375  0.00  0.00    +0.000 C 
ATOM     10  C   UNL     1      58.056 244.387 350.809  0.00  0.00    +0.000 C 
BRANCH   9  12
ATOM     11  C   UNL     1      55.987 242.247 348.764  0.00  0.00    +0.000 C 
ATOM     12  C   UNL     1      56.787 243.097 349.048  0.00  0.00    +0.000 C 
BRANCH  11  14
ATOM     13  O   UNL     1      55.747 240.004 348.012  0.00  0.00    +0.000 OA
ATOM     14  C   UNL     1      55.031 241.210 348.401  0.00  0.00    +0.000 C 
ATOM     15  C   UNL     1      54.986 239.899 349.215  0.00  0.00    +0.000 C 
ATOM     16  C   UNL     1      53.777 241.584 347.541  0.00  0.00    +0.000 C 
ATOM     17  C   UNL     1      53.832 239.077 349.050  0.00  0.00    +0.000 C 
ATOM     18  C   UNL     1      52.868 240.430 347.564  0.00  0.00    +0.000 C 
ATOM     19  C   UNL     1      52.698 239.200 348.230  0.00  0.00    +0.000 C 
ATOM     20  C   UNL     1      55.844 239.659 350.460  0.00  0.00    +0.000 C 
ATOM     21  C   UNL     1      53.123 242.796 348.247  0.00  0.00    +0.000 C 
ATOM     22  C   UNL     1      54.296 241.919 346.126  0.00  0.00    +0.000 C 
BRANCH  19  23
ATOM     23  O   UNL     1      52.124 238.117 347.638  0.00  0.00    +0.000 OA
ATOM     24  H   UNL     1      52.594 237.287 347.834  0.00  0.00    +0.000 HD
ENDBRANCH  19  23
ENDBRANCH  11  14
ENDBRANCH   9  12
ENDBRANCH   8   9
ENDBRANCH   6   8
ENDBRANCH   4   7
ENDBRANCH   3   4
ENDBRANCH   2   3
BRANCH   1  25
ATOM     25  C   UNL     1      63.975 245.245 342.250  0.00  0.00    +0.000 C 
BRANCH  25  26
ATOM     26  C   UNL     1      64.933 244.788 341.507  0.00  0.00    +0.000 C 
ATOM     27  C   UNL     1      65.738 243.610 341.968  0.00  0.00    +0.000 C 
BRANCH  26  29
ATOM     28  C   UNL     1      65.427 245.891 339.188  0.00  0.00    +0.000 C 
ATOM     29  C   UNL     1      65.202 245.383 340.253  0.00  0.00    +0.000 C 
BRANCH  28  30
ATOM     30  C   UNL     1      65.710 246.545 337.829  0.00  0.00    +0.000 C 
BRANCH  30  31
ATOM     31  C   UNL     1      65.946 247.101 336.683  0.00  0.00    +0.000 C 
ATOM     32  C   UNL     1      66.343 248.544 336.621  0.00  0.00    +0.000 C 
BRANCH  31  34
ATOM     33  C   UNL     1      65.819 245.674 334.489  0.00  0.00    +0.000 C 
ATOM     34  C   UNL     1      65.875 246.331 335.495  0.00  0.00    +0.000 C 
BRANCH  33  36
ATOM     35  O   UNL     1      64.364 244.702 332.874  0.00  0.00    +0.000 OA
ATOM     36  C   UNL     1      65.753 244.875 333.275  0.00  0.00    +0.000 C 
ATOM     37  C   UNL     1      65.160 245.487 331.989  0.00  0.00    +0.000 C 
ATOM     38  C   UNL     1      66.680 243.615 333.132  0.00  0.00    +0.000 C 
ATOM     39  C   UNL     1      65.429 244.812 330.761  0.00  0.00    +0.000 C 
ATOM     40  C   UNL     1      66.625 243.198 331.729  0.00  0.00    +0.000 C 
ATOM     41  C   UNL     1      66.132 243.628 330.482  0.00  0.00    +0.000 C 
ATOM     42  C   UNL     1      64.690 246.940 331.881  0.00  0.00    +0.000 C 
ATOM     43  C   UNL     1      66.125 242.561 334.118  0.00  0.00    +0.000 C 
ATOM     44  C   UNL     1      68.103 244.098 333.514  0.00  0.00    +0.000 C 
BRANCH  41  45
ATOM     45  O   UNL     1      66.847 243.447 329.337  0.00  0.00    +0.000 OA
ATOM     46  H   UNL     1      67.727 243.865 329.378  0.00  0.00    +0.000 HD
ENDBRANCH  41  45
ENDBRANCH  33  36
ENDBRANCH  31  34
ENDBRANCH  30  31
ENDBRANCH  28  30
ENDBRANCH  26  29
ENDBRANCH  25  26
ENDBRANCH   1  25
TORSDOF 16
ENDMDL
MODEL 9
REMARK VINA RESULT:      -5.2      2.882     14.295
REMARK  Name = 448438_Violaxanthin.pdbqt.pdb
REMARK  16 active torsions:
REMARK  status: ('A' for Active; 'I' for Inactive)
REMARK    1  A    between atoms: C_1  and  C_5
REMARK    2  A    between atoms: C_2  and  C_27
REMARK    3  A    between atoms: C_3  and  C_5
REMARK    4  A    between atoms: C_3  and  C_7
REMARK    5  A    between atoms: C_6  and  C_10
REMARK    6  A    between atoms: C_8  and  C_10
REMARK    7  A    between atoms: C_8  and  C_12
REMARK    8  A    between atoms: C_11  and  C_14
REMARK    9  A    between atoms: C_19  and  O_23
REMARK   10  A    between atoms: C_25  and  C_27
REMARK   11  A    between atoms: C_25  and  C_29
REMARK   12  A    between atoms: C_28  and  C_32
REMARK   13  A    between atoms: C_30  and  C_32
REMARK   14  A    between atoms: C_30  and  C_34
REMARK   15  A    between atoms: C_33  and  C_36
REMARK   16  A    between atoms: C_41  and  O_45
REMARK                            x       y       z     vdW  Elec       q    Type
REMARK                         _______ _______ _______ _____ _____    ______ ____
ROOT
ATOM      1  C   UNL     1      60.941 249.521 329.946  0.00  0.00    +0.000 C 
ATOM      2  C   UNL     1      59.954 249.710 329.291  0.00  0.00    +0.000 C 
ENDROOT
BRANCH   2   3
ATOM      3  C   UNL     1      58.690 249.951 328.457  0.00  0.00    +0.000 C 
BRANCH   3   4
ATOM      4  C   UNL     1      57.621 250.156 327.754  0.00  0.00    +0.000 C 
ATOM      5  C   UNL     1      57.659 251.114 326.601  0.00  0.00    +0.000 C 
BRANCH   4   7
ATOM      6  C   UNL     1      55.373 248.999 328.424  0.00  0.00    +0.000 C 
ATOM      7  C   UNL     1      56.406 249.531 328.116  0.00  0.00    +0.000 C 
BRANCH   6   8
ATOM      8  C   UNL     1      54.055 248.319 328.815  0.00  0.00    +0.000 C 
BRANCH   8   9
ATOM      9  C   UNL     1      52.942 247.740 329.144  0.00  0.00    +0.000 C 
ATOM     10  C   UNL     1      51.987 248.430 330.069  0.00  0.00    +0.000 C 
BRANCH   9  12
ATOM     11  C   UNL     1      52.257 245.478 328.015  0.00  0.00    +0.000 C 
ATOM     12  C   UNL     1      52.576 246.516 328.532  0.00  0.00    +0.000 C 
BRANCH  11  14
ATOM     13  O   UNL     1      51.816 243.175 328.403  0.00  0.00    +0.000 OA
ATOM     14  C   UNL     1      51.848 244.226 327.397  0.00  0.00    +0.000 C 
ATOM     15  C   UNL     1      50.547 243.538 327.862  0.00  0.00    +0.000 C 
ATOM     16  C   UNL     1      52.427 243.831 325.997  0.00  0.00    +0.000 C 
ATOM     17  C   UNL     1      50.014 242.522 327.013  0.00  0.00    +0.000 C 
ATOM     18  C   UNL     1      51.647 242.686 325.505  0.00  0.00    +0.000 C 
ATOM     19  C   UNL     1      50.476 241.965 325.809  0.00  0.00    +0.000 C 
ATOM     20  C   UNL     1      49.598 244.156 328.893  0.00  0.00    +0.000 C 
ATOM     21  C   UNL     1      52.207 245.061 325.083  0.00  0.00    +0.000 C 
ATOM     22  C   UNL     1      53.919 243.500 326.213  0.00  0.00    +0.000 C 
BRANCH  19  23
ATOM     23  O   UNL     1      50.340 240.638 325.538  0.00  0.00    +0.000 OA
ATOM     24  H   UNL     1      51.121 240.261 325.095  0.00  0.00    +0.000 HD
ENDBRANCH  19  23
ENDBRANCH  11  14
ENDBRANCH   9  12
ENDBRANCH   8   9
ENDBRANCH   6   8
ENDBRANCH   4   7
ENDBRANCH   3   4
ENDBRANCH   2   3
BRANCH   1  25
ATOM     25  C   UNL     1      62.205 249.279 330.781  0.00  0.00    +0.000 C 
BRANCH  25  26
ATOM     26  C   UNL     1      63.272 249.074 331.487  0.00  0.00    +0.000 C 
ATOM     27  C   UNL     1      63.749 250.128 332.440  0.00  0.00    +0.000 C 
BRANCH  26  29
ATOM     28  C   UNL     1      64.560 246.807 331.280  0.00  0.00    +0.000 C 
ATOM     29  C   UNL     1      63.970 247.850 331.376  0.00  0.00    +0.000 C 
BRANCH  28  30
ATOM     30  C   UNL     1      65.306 245.473 331.158  0.00  0.00    +0.000 C 
BRANCH  30  31
ATOM     31  C   UNL     1      65.933 244.343 331.055  0.00  0.00    +0.000 C 
ATOM     32  C   UNL     1      65.758 243.293 332.110  0.00  0.00    +0.000 C 
BRANCH  31  34
ATOM     33  C   UNL     1      67.435 243.870 328.961  0.00  0.00    +0.000 C 
ATOM     34  C   UNL     1      66.744 244.084 329.922  0.00  0.00    +0.000 C 
BRANCH  33  36
ATOM     35  O   UNL     1      69.656 243.419 328.228  0.00  0.00    +0.000 OA
ATOM     36  C   UNL     1      68.277 243.613 327.802  0.00  0.00    +0.000 C 
ATOM     37  C   UNL     1      69.019 242.266 327.681  0.00  0.00    +0.000 C 
ATOM     38  C   UNL     1      68.066 244.460 326.496  0.00  0.00    +0.000 C 
ATOM     39  C   UNL     1      69.537 241.921 326.397  0.00  0.00    +0.000 C 
ATOM     40  C   UNL     1      68.817 243.796 325.428  0.00  0.00    +0.000 C 
ATOM     41  C   UNL     1      69.533 242.611 325.173  0.00  0.00    +0.000 C 
ATOM     42  C   UNL     1      68.869 241.123 328.687  0.00  0.00    +0.000 C 
ATOM     43  C   UNL     1      68.571 245.884 326.821  0.00  0.00    +0.000 C 
ATOM     44  C   UNL     1      66.542 244.417 326.213  0.00  0.00    +0.000 C 
BRANCH  41  45
ATOM     45  O   UNL     1      69.451 241.977 323.970  0.00  0.00    +0.000 OA
ATOM     46  H   UNL     1      70.326 241.738 323.615  0.00  0.00    +0.000 HD
ENDBRANCH  41  45
ENDBRANCH  33  36
ENDBRANCH  31  34
ENDBRANCH  30  31
ENDBRANCH  28  30
ENDBRANCH  26  29
ENDBRANCH  25  26
ENDBRANCH   1  25
TORSDOF 16
ENDMDL
