MODEL 1
REMARK VINA RESULT:      -7.4      0.000      0.000
REMARK  Name = 490561_Nocardiopsis.pdbqt.pdb
REMARK  3 active torsions:
REMARK  status: ('A' for Active; 'I' for Inactive)
REMARK    1  A    between atoms: C_7  and  O_32
REMARK    2  A    between atoms: C_7  and  C_35
REMARK    3  A    between atoms: C_35  and  O_36
REMARK                            x       y       z     vdW  Elec       q    Type
REMARK                         _______ _______ _______ _____ _____    ______ ____
ROOT
ATOM      1  O   UNL     1      52.799 249.459 327.427  0.00  0.00    +0.000 OA
ATOM      2  O   UNL     1      53.718 243.518 322.889  0.00  0.00    +0.000 OA
ATOM      3  N   UNL     1      52.414 247.301 328.313  0.00  0.00    +0.000 N 
ATOM      4  N   UNL     1      54.084 248.164 325.973  0.00  0.00    +0.000 N 
ATOM      5  N   UNL     1      52.421 242.622 324.594  0.00  0.00    +0.000 N 
ATOM      6  C   UNL     1      52.766 248.688 328.679  0.00  0.00    +0.000 C 
ATOM      7  C   UNL     1      54.240 248.829 329.257  0.00  0.00    +0.000 C 
ATOM      8  C   UNL     1      54.073 249.198 326.893  0.00  0.00    +0.000 C 
ATOM      9  C   UNL     1      54.945 249.075 328.001  0.00  0.00    +0.000 C 
ATOM     10  C   UNL     1      52.644 246.589 327.162  0.00  0.00    +0.000 A 
ATOM     11  C   UNL     1      53.405 246.987 326.063  0.00  0.00    +0.000 A 
ATOM     12  C   UNL     1      52.157 245.283 327.060  0.00  0.00    +0.000 A 
ATOM     13  C   UNL     1      53.558 246.027 325.057  0.00  0.00    +0.000 A 
ATOM     14  C   UNL     1      51.660 249.368 329.551  0.00  0.00    +0.000 C 
ATOM     15  C   UNL     1      51.761 246.305 329.082  0.00  0.00    +0.000 A 
ATOM     16  C   UNL     1      54.814 247.944 324.790  0.00  0.00    +0.000 A 
ATOM     17  C   UNL     1      51.571 245.089 328.325  0.00  0.00    +0.000 A 
ATOM     18  C   UNL     1      52.277 244.314 326.056  0.00  0.00    +0.000 A 
ATOM     19  C   UNL     1      53.058 244.715 324.931  0.00  0.00    +0.000 A 
ATOM     20  C   UNL     1      54.488 246.663 324.204  0.00  0.00    +0.000 A 
ATOM     21  C   UNL     1      51.872 242.909 325.793  0.00  0.00    +0.000 C 
ATOM     22  C   UNL     1      51.321 246.375 330.415  0.00  0.00    +0.000 A 
ATOM     23  C   UNL     1      53.164 243.636 323.972  0.00  0.00    +0.000 C 
ATOM     24  C   UNL     1      55.741 248.801 324.178  0.00  0.00    +0.000 A 
ATOM     25  C   UNL     1      50.926 244.002 328.949  0.00  0.00    +0.000 A 
ATOM     26  C   UNL     1      55.139 246.302 323.007  0.00  0.00    +0.000 A 
ATOM     27  C   UNL     1      50.687 245.273 330.987  0.00  0.00    +0.000 A 
ATOM     28  C   UNL     1      50.485 244.106 330.267  0.00  0.00    +0.000 A 
ATOM     29  C   UNL     1      56.349 248.395 322.990  0.00  0.00    +0.000 A 
ATOM     30  C   UNL     1      56.055 247.169 322.412  0.00  0.00    +0.000 A 
ATOM     31  H   UNL     1      52.315 241.723 324.149  0.00  0.00    +0.000 HD
ENDROOT
BRANCH   7  32
ATOM     32  O   UNL     1      54.768 247.639 329.861  0.00  0.00    +0.000 OA
ATOM     33  H   UNL     1      55.653 247.864 330.224  0.00  0.00    +0.000 HD
ENDBRANCH   7  32
BRANCH   7  35
ATOM     34  O   UNL     1      54.280 251.169 329.791  0.00  0.00    +0.000 OA
ATOM     35  C   UNL     1      54.365 250.014 330.213  0.00  0.00    +0.000 C 
BRANCH  35  36
ATOM     36  O   UNL     1      54.514 249.605 331.509  0.00  0.00    +0.000 OA
ATOM     37  C   UNL     1      53.763 250.265 332.491  0.00  0.00    +0.000 C 
ENDBRANCH  35  36
ENDBRANCH   7  35
TORSDOF 3
ENDMDL
MODEL 2
REMARK VINA RESULT:      -7.2      2.438      5.534
REMARK  Name = 490561_Nocardiopsis.pdbqt.pdb
REMARK  3 active torsions:
REMARK  status: ('A' for Active; 'I' for Inactive)
REMARK    1  A    between atoms: C_7  and  O_32
REMARK    2  A    between atoms: C_7  and  C_35
REMARK    3  A    between atoms: C_35  and  O_36
REMARK                            x       y       z     vdW  Elec       q    Type
REMARK                         _______ _______ _______ _____ _____    ______ ____
ROOT
ATOM      1  O   UNL     1      51.466 246.847 326.640  0.00  0.00    +0.000 OA
ATOM      2  O   UNL     1      57.508 249.753 323.208  0.00  0.00    +0.000 OA
ATOM      3  N   UNL     1      52.708 245.455 325.188  0.00  0.00    +0.000 N 
ATOM      4  N   UNL     1      53.537 247.920 326.687  0.00  0.00    +0.000 N 
ATOM      5  N   UNL     1      57.061 247.891 321.895  0.00  0.00    +0.000 N 
ATOM      6  C   UNL     1      51.783 245.443 326.340  0.00  0.00    +0.000 C 
ATOM      7  C   UNL     1      52.453 244.905 327.677  0.00  0.00    +0.000 C 
ATOM      8  C   UNL     1      52.549 247.288 327.421  0.00  0.00    +0.000 C 
ATOM      9  C   UNL     1      52.948 246.175 328.201  0.00  0.00    +0.000 C 
ATOM     10  C   UNL     1      53.629 246.390 324.785  0.00  0.00    +0.000 A 
ATOM     11  C   UNL     1      54.009 247.546 325.466  0.00  0.00    +0.000 A 
ATOM     12  C   UNL     1      54.356 246.168 323.612  0.00  0.00    +0.000 A 
ATOM     13  C   UNL     1      55.044 248.280 324.875  0.00  0.00    +0.000 A 
ATOM     14  C   UNL     1      50.412 244.778 325.988  0.00  0.00    +0.000 C 
ATOM     15  C   UNL     1      52.920 244.468 324.193  0.00  0.00    +0.000 A 
ATOM     16  C   UNL     1      54.389 249.004 326.966  0.00  0.00    +0.000 A 
ATOM     17  C   UNL     1      53.892 244.900 323.215  0.00  0.00    +0.000 A 
ATOM     18  C   UNL     1      55.377 246.898 322.990  0.00  0.00    +0.000 A 
ATOM     19  C   UNL     1      55.773 248.080 323.685  0.00  0.00    +0.000 A 
ATOM     20  C   UNL     1      55.294 249.256 325.866  0.00  0.00    +0.000 A 
ATOM     21  C   UNL     1      56.263 246.806 321.801  0.00  0.00    +0.000 C 
ATOM     22  C   UNL     1      52.328 243.199 324.077  0.00  0.00    +0.000 A 
ATOM     23  C   UNL     1      56.860 248.739 322.995  0.00  0.00    +0.000 C 
ATOM     24  C   UNL     1      54.419 249.802 328.119  0.00  0.00    +0.000 A 
ATOM     25  C   UNL     1      54.208 244.031 322.151  0.00  0.00    +0.000 A 
ATOM     26  C   UNL     1      56.210 250.319 325.997  0.00  0.00    +0.000 A 
ATOM     27  C   UNL     1      52.672 242.376 323.005  0.00  0.00    +0.000 A 
ATOM     28  C   UNL     1      53.592 242.784 322.052  0.00  0.00    +0.000 A 
ATOM     29  C   UNL     1      55.342 250.845 328.191  0.00  0.00    +0.000 A 
ATOM     30  C   UNL     1      56.223 251.102 327.150  0.00  0.00    +0.000 A 
ATOM     31  H   UNL     1      57.777 248.099 321.216  0.00  0.00    +0.000 HD
ENDROOT
BRANCH   7  32
ATOM     32  O   UNL     1      53.565 244.018 327.481  0.00  0.00    +0.000 OA
ATOM     33  H   UNL     1      53.723 243.958 326.513  0.00  0.00    +0.000 HD
ENDBRANCH   7  32
BRANCH   7  35
ATOM     34  O   UNL     1      51.194 243.063 328.563  0.00  0.00    +0.000 OA
ATOM     35  C   UNL     1      51.425 244.273 328.613  0.00  0.00    +0.000 C 
BRANCH  35  36
ATOM     36  O   UNL     1      50.896 245.191 329.478  0.00  0.00    +0.000 OA
ATOM     37  C   UNL     1      50.619 244.769 330.786  0.00  0.00    +0.000 C 
ENDBRANCH  35  36
ENDBRANCH   7  35
TORSDOF 3
ENDMDL
MODEL 3
REMARK VINA RESULT:      -7.2     31.635     33.386
REMARK  Name = 490561_Nocardiopsis.pdbqt.pdb
REMARK  3 active torsions:
REMARK  status: ('A' for Active; 'I' for Inactive)
REMARK    1  A    between atoms: C_7  and  O_32
REMARK    2  A    between atoms: C_7  and  C_35
REMARK    3  A    between atoms: C_35  and  O_36
REMARK                            x       y       z     vdW  Elec       q    Type
REMARK                         _______ _______ _______ _____ _____    ______ ____
ROOT
ATOM      1  O   UNL     1      69.247 222.749 338.083  0.00  0.00    +0.000 OA
ATOM      2  O   UNL     1      65.793 216.060 337.840  0.00  0.00    +0.000 OA
ATOM      3  N   UNL     1      69.930 221.078 339.610  0.00  0.00    +0.000 N 
ATOM      4  N   UNL     1      68.568 220.828 336.947  0.00  0.00    +0.000 N 
ATOM      5  N   UNL     1      66.758 216.025 339.952  0.00  0.00    +0.000 N 
ATOM      6  C   UNL     1      70.374 222.307 338.919  0.00  0.00    +0.000 C 
ATOM      7  C   UNL     1      71.548 222.053 337.879  0.00  0.00    +0.000 C 
ATOM      8  C   UNL     1      69.352 221.969 336.919  0.00  0.00    +0.000 C 
ATOM      9  C   UNL     1      70.738 221.784 336.694  0.00  0.00    +0.000 C 
ATOM     10  C   UNL     1      69.029 220.113 339.237  0.00  0.00    +0.000 A 
ATOM     11  C   UNL     1      68.379 219.996 338.008  0.00  0.00    +0.000 A 
ATOM     12  C   UNL     1      68.758 219.059 340.114  0.00  0.00    +0.000 A 
ATOM     13  C   UNL     1      67.579 218.859 337.855  0.00  0.00    +0.000 A 
ATOM     14  C   UNL     1      70.632 223.484 339.916  0.00  0.00    +0.000 C 
ATOM     15  C   UNL     1      70.353 220.542 340.852  0.00  0.00    +0.000 A 
ATOM     16  C   UNL     1      67.848 220.138 335.954  0.00  0.00    +0.000 A 
ATOM     17  C   UNL     1      69.629 219.336 341.183  0.00  0.00    +0.000 A 
ATOM     18  C   UNL     1      67.945 217.924 339.992  0.00  0.00    +0.000 A 
ATOM     19  C   UNL     1      67.281 217.798 338.735  0.00  0.00    +0.000 A 
ATOM     20  C   UNL     1      67.217 218.954 336.493  0.00  0.00    +0.000 A 
ATOM     21  C   UNL     1      67.572 216.719 340.775  0.00  0.00    +0.000 C 
ATOM     22  C   UNL     1      71.342 221.026 341.725  0.00  0.00    +0.000 A 
ATOM     23  C   UNL     1      66.507 216.577 338.687  0.00  0.00    +0.000 C 
ATOM     24  C   UNL     1      67.693 220.486 334.604  0.00  0.00    +0.000 A 
ATOM     25  C   UNL     1      69.928 218.684 342.396  0.00  0.00    +0.000 A 
ATOM     26  C   UNL     1      66.453 218.159 335.615  0.00  0.00    +0.000 A 
ATOM     27  C   UNL     1      71.601 220.346 342.915  0.00  0.00    +0.000 A 
ATOM     28  C   UNL     1      70.903 219.197 343.251  0.00  0.00    +0.000 A 
ATOM     29  C   UNL     1      66.919 219.665 333.784  0.00  0.00    +0.000 A 
ATOM     30  C   UNL     1      66.309 218.522 334.277  0.00  0.00    +0.000 A 
ATOM     31  H   UNL     1      66.340 215.145 340.215  0.00  0.00    +0.000 HD
ENDROOT
BRANCH   7  32
ATOM     32  O   UNL     1      72.362 220.903 338.156  0.00  0.00    +0.000 OA
ATOM     33  H   UNL     1      72.854 220.689 337.334  0.00  0.00    +0.000 HD
ENDBRANCH   7  32
BRANCH   7  35
ATOM     34  O   UNL     1      72.036 224.229 336.992  0.00  0.00    +0.000 OA
ATOM     35  C   UNL     1      72.421 223.292 337.694  0.00  0.00    +0.000 C 
BRANCH  35  36
ATOM     36  O   UNL     1      73.574 223.212 338.424  0.00  0.00    +0.000 OA
ATOM     37  C   UNL     1      74.097 224.403 338.949  0.00  0.00    +0.000 C 
ENDBRANCH  35  36
ENDBRANCH   7  35
TORSDOF 3
ENDMDL
MODEL 4
REMARK VINA RESULT:      -6.6      3.232      4.995
REMARK  Name = 490561_Nocardiopsis.pdbqt.pdb
REMARK  3 active torsions:
REMARK  status: ('A' for Active; 'I' for Inactive)
REMARK    1  A    between atoms: C_7  and  O_32
REMARK    2  A    between atoms: C_7  and  C_35
REMARK    3  A    between atoms: C_35  and  O_36
REMARK                            x       y       z     vdW  Elec       q    Type
REMARK                         _______ _______ _______ _____ _____    ______ ____
ROOT
ATOM      1  O   UNL     1      50.353 245.652 326.436  0.00  0.00    +0.000 OA
ATOM      2  O   UNL     1      53.795 243.258 320.180  0.00  0.00    +0.000 OA
ATOM      3  N   UNL     1      50.132 243.376 325.836  0.00  0.00    +0.000 N 
ATOM      4  N   UNL     1      52.259 245.370 325.120  0.00  0.00    +0.000 N 
ATOM      5  N   UNL     1      52.223 241.585 320.532  0.00  0.00    +0.000 N 
ATOM      6  C   UNL     1      50.075 244.313 326.977  0.00  0.00    +0.000 C 
ATOM      7  C   UNL     1      51.233 244.078 328.040  0.00  0.00    +0.000 C 
ATOM      8  C   UNL     1      51.756 245.711 326.364  0.00  0.00    +0.000 C 
ATOM      9  C   UNL     1      52.238 244.971 327.471  0.00  0.00    +0.000 C 
ATOM     10  C   UNL     1      50.848 243.427 324.667  0.00  0.00    +0.000 A 
ATOM     11  C   UNL     1      51.827 244.358 324.318  0.00  0.00    +0.000 A 
ATOM     12  C   UNL     1      50.681 242.412 323.721  0.00  0.00    +0.000 A 
ATOM     13  C   UNL     1      52.474 244.124 323.099  0.00  0.00    +0.000 A 
ATOM     14  C   UNL     1      48.639 244.408 327.591  0.00  0.00    +0.000 C 
ATOM     15  C   UNL     1      49.474 242.133 325.659  0.00  0.00    +0.000 A 
ATOM     16  C   UNL     1      53.354 245.837 324.370  0.00  0.00    +0.000 A 
ATOM     17  C   UNL     1      49.774 241.554 324.369  0.00  0.00    +0.000 A 
ATOM     18  C   UNL     1      51.298 242.170 322.486  0.00  0.00    +0.000 A 
ATOM     19  C   UNL     1      52.303 243.117 322.127  0.00  0.00    +0.000 A 
ATOM     20  C   UNL     1      53.485 245.110 323.127  0.00  0.00    +0.000 A 
ATOM     21  C   UNL     1      51.277 241.162 321.396  0.00  0.00    +0.000 C 
ATOM     22  C   UNL     1      48.629 241.453 326.551  0.00  0.00    +0.000 A 
ATOM     23  C   UNL     1      52.915 242.759 320.865  0.00  0.00    +0.000 C 
ATOM     24  C   UNL     1      54.243 246.872 324.697  0.00  0.00    +0.000 A 
ATOM     25  C   UNL     1      49.187 240.317 324.035  0.00  0.00    +0.000 A 
ATOM     26  C   UNL     1      54.539 245.470 322.263  0.00  0.00    +0.000 A 
ATOM     27  C   UNL     1      48.072 240.231 326.174  0.00  0.00    +0.000 A 
ATOM     28  C   UNL     1      48.339 239.672 324.935  0.00  0.00    +0.000 A 
ATOM     29  C   UNL     1      55.263 247.189 323.800  0.00  0.00    +0.000 A 
ATOM     30  C   UNL     1      55.411 246.503 322.603  0.00  0.00    +0.000 A 
ATOM     31  H   UNL     1      52.439 241.092 319.678  0.00  0.00    +0.000 HD
ENDROOT
BRANCH   7  32
ATOM     32  O   UNL     1      51.761 242.744 328.072  0.00  0.00    +0.000 OA
ATOM     33  H   UNL     1      51.327 242.276 328.819  0.00  0.00    +0.000 HD
ENDBRANCH   7  32
BRANCH   7  35
ATOM     34  O   UNL     1      50.945 245.697 329.790  0.00  0.00    +0.000 OA
ATOM     35  C   UNL     1      50.816 244.521 329.441  0.00  0.00    +0.000 C 
BRANCH  35  36
ATOM     36  O   UNL     1      50.270 243.491 330.156  0.00  0.00    +0.000 OA
ATOM     37  C   UNL     1      49.746 243.784 331.423  0.00  0.00    +0.000 C 
ENDBRANCH  35  36
ENDBRANCH   7  35
TORSDOF 3
ENDMDL
MODEL 5
REMARK VINA RESULT:      -6.4     33.384     34.861
REMARK  Name = 490561_Nocardiopsis.pdbqt.pdb
REMARK  3 active torsions:
REMARK  status: ('A' for Active; 'I' for Inactive)
REMARK    1  A    between atoms: C_7  and  O_32
REMARK    2  A    between atoms: C_7  and  C_35
REMARK    3  A    between atoms: C_35  and  O_36
REMARK                            x       y       z     vdW  Elec       q    Type
REMARK                         _______ _______ _______ _____ _____    ______ ____
ROOT
ATOM      1  O   UNL     1      76.178 221.977 341.885  0.00  0.00    +0.000 OA
ATOM      2  O   UNL     1      69.244 221.010 339.107  0.00  0.00    +0.000 OA
ATOM      3  N   UNL     1      75.318 223.621 340.419  0.00  0.00    +0.000 N 
ATOM      4  N   UNL     1      73.886 221.635 342.155  0.00  0.00    +0.000 N 
ATOM      5  N   UNL     1      70.141 222.560 337.628  0.00  0.00    +0.000 N 
ATOM      6  C   UNL     1      76.298 223.392 341.501  0.00  0.00    +0.000 C 
ATOM      7  C   UNL     1      75.956 224.184 342.836  0.00  0.00    +0.000 C 
ATOM      8  C   UNL     1      75.086 221.951 342.770  0.00  0.00    +0.000 C 
ATOM      9  C   UNL     1      75.132 223.171 343.487  0.00  0.00    +0.000 C 
ATOM     10  C   UNL     1      74.116 223.015 340.152  0.00  0.00    +0.000 A 
ATOM     11  C   UNL     1      73.450 222.080 340.944  0.00  0.00    +0.000 A 
ATOM     12  C   UNL     1      73.396 223.401 339.018  0.00  0.00    +0.000 A 
ATOM     13  C   UNL     1      72.187 221.690 340.484  0.00  0.00    +0.000 A 
ATOM     14  C   UNL     1      77.773 223.560 341.006  0.00  0.00    +0.000 C 
ATOM     15  C   UNL     1      75.343 224.572 339.368  0.00  0.00    +0.000 A 
ATOM     16  C   UNL     1      72.762 220.900 342.574  0.00  0.00    +0.000 A 
ATOM     17  C   UNL     1      74.201 224.429 338.495  0.00  0.00    +0.000 A 
ATOM     18  C   UNL     1      72.144 223.009 338.526  0.00  0.00    +0.000 A 
ATOM     19  C   UNL     1      71.457 222.055 339.334  0.00  0.00    +0.000 A 
ATOM     20  C   UNL     1      71.730 220.899 341.561  0.00  0.00    +0.000 A 
ATOM     21  C   UNL     1      71.231 223.322 337.397  0.00  0.00    +0.000 C 
ATOM     22  C   UNL     1      76.295 225.574 339.115  0.00  0.00    +0.000 A 
ATOM     23  C   UNL     1      70.159 221.749 338.773  0.00  0.00    +0.000 C 
ATOM     24  C   UNL     1      72.583 220.214 343.784  0.00  0.00    +0.000 A 
ATOM     25  C   UNL     1      74.084 225.298 337.392  0.00  0.00    +0.000 A 
ATOM     26  C   UNL     1      70.539 220.197 341.836  0.00  0.00    +0.000 A 
ATOM     27  C   UNL     1      76.136 226.409 338.009  0.00  0.00    +0.000 A 
ATOM     28  C   UNL     1      75.053 226.273 337.156  0.00  0.00    +0.000 A 
ATOM     29  C   UNL     1      71.387 219.530 343.999  0.00  0.00    +0.000 A 
ATOM     30  C   UNL     1      70.381 219.519 343.044  0.00  0.00    +0.000 A 
ATOM     31  H   UNL     1      69.338 222.560 337.017  0.00  0.00    +0.000 HD
ENDROOT
BRANCH   7  32
ATOM     32  O   UNL     1      75.171 225.372 342.649  0.00  0.00    +0.000 OA
ATOM     33  H   UNL     1      74.688 225.536 343.487  0.00  0.00    +0.000 HD
ENDBRANCH   7  32
BRANCH   7  35
ATOM     34  O   UNL     1      77.762 223.616 344.312  0.00  0.00    +0.000 OA
ATOM     35  C   UNL     1      77.212 224.497 343.648  0.00  0.00    +0.000 C 
BRANCH  35  36
ATOM     36  O   UNL     1      77.615 225.792 343.479  0.00  0.00    +0.000 OA
ATOM     37  C   UNL     1      77.845 226.558 344.630  0.00  0.00    +0.000 C 
ENDBRANCH  35  36
ENDBRANCH   7  35
TORSDOF 3
ENDMDL
MODEL 6
REMARK VINA RESULT:      -6.4     31.349     33.629
REMARK  Name = 490561_Nocardiopsis.pdbqt.pdb
REMARK  3 active torsions:
REMARK  status: ('A' for Active; 'I' for Inactive)
REMARK    1  A    between atoms: C_7  and  O_32
REMARK    2  A    between atoms: C_7  and  C_35
REMARK    3  A    between atoms: C_35  and  O_36
REMARK                            x       y       z     vdW  Elec       q    Type
REMARK                         _______ _______ _______ _____ _____    ______ ____
ROOT
ATOM      1  O   UNL     1      68.056 218.847 335.003  0.00  0.00    +0.000 OA
ATOM      2  O   UNL     1      70.327 219.891 342.109  0.00  0.00    +0.000 OA
ATOM      3  N   UNL     1      66.949 217.658 336.720  0.00  0.00    +0.000 N 
ATOM      4  N   UNL     1      68.508 220.220 336.835  0.00  0.00    +0.000 N 
ATOM      5  N   UNL     1      69.162 217.887 342.267  0.00  0.00    +0.000 N 
ATOM      6  C   UNL     1      66.793 218.177 335.346  0.00  0.00    +0.000 C 
ATOM      7  C   UNL     1      65.702 219.327 335.229  0.00  0.00    +0.000 C 
ATOM      8  C   UNL     1      67.937 220.125 335.577  0.00  0.00    +0.000 C 
ATOM      9  C   UNL     1      66.570 220.477 335.471  0.00  0.00    +0.000 C 
ATOM     10  C   UNL     1      67.705 218.111 337.772  0.00  0.00    +0.000 A 
ATOM     11  C   UNL     1      68.445 219.292 337.830  0.00  0.00    +0.000 A 
ATOM     12  C   UNL     1      67.702 217.395 338.972  0.00  0.00    +0.000 A 
ATOM     13  C   UNL     1      69.051 219.564 339.061  0.00  0.00    +0.000 A 
ATOM     14  C   UNL     1      66.639 217.028 334.295  0.00  0.00    +0.000 C 
ATOM     15  C   UNL     1      66.318 216.551 337.341  0.00  0.00    +0.000 A 
ATOM     16  C   UNL     1      69.196 221.253 337.496  0.00  0.00    +0.000 A 
ATOM     17  C   UNL     1      66.789 216.362 338.694  0.00  0.00    +0.000 A 
ATOM     18  C   UNL     1      68.318 217.634 340.207  0.00  0.00    +0.000 A 
ATOM     19  C   UNL     1      69.074 218.843 340.273  0.00  0.00    +0.000 A 
ATOM     20  C   UNL     1      69.559 220.864 338.841  0.00  0.00    +0.000 A 
ATOM     21  C   UNL     1      68.400 217.027 341.560  0.00  0.00    +0.000 C 
ATOM     22  C   UNL     1      65.343 215.687 336.813  0.00  0.00    +0.000 A 
ATOM     23  C   UNL     1      69.630 219.027 341.596  0.00  0.00    +0.000 C 
ATOM     24  C   UNL     1      69.544 222.516 336.994  0.00  0.00    +0.000 A 
ATOM     25  C   UNL     1      66.262 215.293 339.447  0.00  0.00    +0.000 A 
ATOM     26  C   UNL     1      70.260 221.798 339.630  0.00  0.00    +0.000 A 
ATOM     27  C   UNL     1      64.854 214.642 337.597  0.00  0.00    +0.000 A 
ATOM     28  C   UNL     1      65.308 214.441 338.890  0.00  0.00    +0.000 A 
ATOM     29  C   UNL     1      70.244 223.397 337.818  0.00  0.00    +0.000 A 
ATOM     30  C   UNL     1      70.598 223.047 339.113  0.00  0.00    +0.000 A 
ATOM     31  H   UNL     1      69.396 217.737 343.237  0.00  0.00    +0.000 HD
ENDROOT
BRANCH   7  32
ATOM     32  O   UNL     1      64.681 219.295 336.237  0.00  0.00    +0.000 OA
ATOM     33  H   UNL     1      64.768 218.441 336.714  0.00  0.00    +0.000 HD
ENDBRANCH   7  32
BRANCH   7  35
ATOM     34  O   UNL     1      65.651 219.959 332.914  0.00  0.00    +0.000 OA
ATOM     35  C   UNL     1      65.076 219.377 333.837  0.00  0.00    +0.000 C 
BRANCH  35  36
ATOM     36  O   UNL     1      63.903 218.678 333.784  0.00  0.00    +0.000 OA
ATOM     37  C   UNL     1      63.382 218.373 332.519  0.00  0.00    +0.000 C 
ENDBRANCH  35  36
ENDBRANCH   7  35
TORSDOF 3
ENDMDL
MODEL 7
REMARK VINA RESULT:      -6.3     32.931     34.947
REMARK  Name = 490561_Nocardiopsis.pdbqt.pdb
REMARK  3 active torsions:
REMARK  status: ('A' for Active; 'I' for Inactive)
REMARK    1  A    between atoms: C_7  and  O_32
REMARK    2  A    between atoms: C_7  and  C_35
REMARK    3  A    between atoms: C_35  and  O_36
REMARK                            x       y       z     vdW  Elec       q    Type
REMARK                         _______ _______ _______ _____ _____    ______ ____
ROOT
ATOM      1  O   UNL     1      69.895 216.408 338.806  0.00  0.00    +0.000 OA
ATOM      2  O   UNL     1      69.240 223.637 336.795  0.00  0.00    +0.000 OA
ATOM      3  N   UNL     1      69.958 218.054 340.502  0.00  0.00    +0.000 N 
ATOM      4  N   UNL     1      68.759 218.152 337.753  0.00  0.00    +0.000 N 
ATOM      5  N   UNL     1      70.170 223.812 338.916  0.00  0.00    +0.000 N 
ATOM      6  C   UNL     1      69.664 216.630 340.242  0.00  0.00    +0.000 C 
ATOM      7  C   UNL     1      68.133 216.257 340.448  0.00  0.00    +0.000 C 
ATOM      8  C   UNL     1      68.706 216.842 338.193  0.00  0.00    +0.000 C 
ATOM      9  C   UNL     1      67.661 216.512 339.090  0.00  0.00    +0.000 C 
ATOM     10  C   UNL     1      69.859 219.156 339.690  0.00  0.00    +0.000 A 
ATOM     11  C   UNL     1      69.318 219.209 338.405  0.00  0.00    +0.000 A 
ATOM     12  C   UNL     1      70.249 220.404 340.183  0.00  0.00    +0.000 A 
ATOM     13  C   UNL     1      69.251 220.484 337.832  0.00  0.00    +0.000 A 
ATOM     14  C   UNL     1      70.668 215.677 340.971  0.00  0.00    +0.000 C 
ATOM     15  C   UNL     1      70.396 218.678 341.697  0.00  0.00    +0.000 A 
ATOM     16  C   UNL     1      68.213 218.808 336.633  0.00  0.00    +0.000 A 
ATOM     17  C   UNL     1      70.607 220.096 341.509  0.00  0.00    +0.000 A 
ATOM     18  C   UNL     1      70.214 221.686 339.621  0.00  0.00    +0.000 A 
ATOM     19  C   UNL     1      69.658 221.747 338.308  0.00  0.00    +0.000 A 
ATOM     20  C   UNL     1      68.525 220.220 336.649  0.00  0.00    +0.000 A 
ATOM     21  C   UNL     1      70.542 223.087 339.992  0.00  0.00    +0.000 C 
ATOM     22  C   UNL     1      70.622 218.100 342.958  0.00  0.00    +0.000 A 
ATOM     23  C   UNL     1      69.620 223.112 337.832  0.00  0.00    +0.000 C 
ATOM     24  C   UNL     1      67.469 218.246 335.585  0.00  0.00    +0.000 A 
ATOM     25  C   UNL     1      71.054 220.861 342.605  0.00  0.00    +0.000 A 
ATOM     26  C   UNL     1      68.047 221.011 335.585  0.00  0.00    +0.000 A 
ATOM     27  C   UNL     1      71.065 218.899 344.011  0.00  0.00    +0.000 A 
ATOM     28  C   UNL     1      71.285 220.256 343.840  0.00  0.00    +0.000 A 
ATOM     29  C   UNL     1      67.028 219.077 334.554  0.00  0.00    +0.000 A 
ATOM     30  C   UNL     1      67.311 220.435 334.551  0.00  0.00    +0.000 A 
ATOM     31  H   UNL     1      70.274 224.815 338.874  0.00  0.00    +0.000 HD
ENDROOT
BRANCH   7  32
ATOM     32  O   UNL     1      67.421 217.111 341.355  0.00  0.00    +0.000 OA
ATOM     33  H   UNL     1      67.816 218.007 341.284  0.00  0.00    +0.000 HD
ENDBRANCH   7  32
BRANCH   7  35
ATOM     34  O   UNL     1      67.997 213.906 339.984  0.00  0.00    +0.000 OA
ATOM     35  C   UNL     1      67.953 214.792 340.840  0.00  0.00    +0.000 C 
BRANCH  35  36
ATOM     36  O   UNL     1      67.805 214.645 342.191  0.00  0.00    +0.000 OA
ATOM     37  C   UNL     1      66.704 213.909 342.650  0.00  0.00    +0.000 C 
ENDBRANCH  35  36
ENDBRANCH   7  35
TORSDOF 3
ENDMDL
MODEL 8
REMARK VINA RESULT:      -6.3     29.718     32.608
REMARK  Name = 490561_Nocardiopsis.pdbqt.pdb
REMARK  3 active torsions:
REMARK  status: ('A' for Active; 'I' for Inactive)
REMARK    1  A    between atoms: C_7  and  O_32
REMARK    2  A    between atoms: C_7  and  C_35
REMARK    3  A    between atoms: C_35  and  O_36
REMARK                            x       y       z     vdW  Elec       q    Type
REMARK                         _______ _______ _______ _____ _____    ______ ____
ROOT
ATOM      1  O   UNL     1      55.258 230.896 356.139  0.00  0.00    +0.000 OA
ATOM      2  O   UNL     1      53.559 224.279 352.967  0.00  0.00    +0.000 OA
ATOM      3  N   UNL     1      56.714 230.038 354.486  0.00  0.00    +0.000 N 
ATOM      4  N   UNL     1      53.805 229.488 354.978  0.00  0.00    +0.000 N 
ATOM      5  N   UNL     1      55.817 224.487 352.462  0.00  0.00    +0.000 N 
ATOM      6  C   UNL     1      56.271 231.284 355.145  0.00  0.00    +0.000 C 
ATOM      7  C   UNL     1      55.495 232.269 354.169  0.00  0.00    +0.000 C 
ATOM      8  C   UNL     1      54.070 230.780 355.396  0.00  0.00    +0.000 C 
ATOM      9  C   UNL     1      54.139 231.774 354.389  0.00  0.00    +0.000 C 
ATOM     10  C   UNL     1      56.053 228.859 354.256  0.00  0.00    +0.000 A 
ATOM     11  C   UNL     1      54.706 228.587 354.496  0.00  0.00    +0.000 A 
ATOM     12  C   UNL     1      56.733 227.805 353.638  0.00  0.00    +0.000 A 
ATOM     13  C   UNL     1      54.261 227.327 354.080  0.00  0.00    +0.000 A 
ATOM     14  C   UNL     1      57.418 231.956 355.969  0.00  0.00    +0.000 C 
ATOM     15  C   UNL     1      57.956 229.739 353.871  0.00  0.00    +0.000 A 
ATOM     16  C   UNL     1      52.612 228.759 354.821  0.00  0.00    +0.000 A 
ATOM     17  C   UNL     1      57.991 228.380 353.382  0.00  0.00    +0.000 A 
ATOM     18  C   UNL     1      56.317 226.530 353.235  0.00  0.00    +0.000 A 
ATOM     19  C   UNL     1      54.938 226.249 353.474  0.00  0.00    +0.000 A 
ATOM     20  C   UNL     1      52.870 227.434 354.303  0.00  0.00    +0.000 A 
ATOM     21  C   UNL     1      56.867 225.329 352.556  0.00  0.00    +0.000 C 
ATOM     22  C   UNL     1      59.072 230.575 353.695  0.00  0.00    +0.000 A 
ATOM     23  C   UNL     1      54.592 224.933 352.983  0.00  0.00    +0.000 C 
ATOM     24  C   UNL     1      51.304 229.174 355.117  0.00  0.00    +0.000 A 
ATOM     25  C   UNL     1      59.165 227.923 352.750  0.00  0.00    +0.000 A 
ATOM     26  C   UNL     1      51.768 226.582 354.096  0.00  0.00    +0.000 A 
ATOM     27  C   UNL     1      60.211 230.076 353.064  0.00  0.00    +0.000 A 
ATOM     28  C   UNL     1      60.263 228.770 352.604  0.00  0.00    +0.000 A 
ATOM     29  C   UNL     1      50.252 228.285 354.899  0.00  0.00    +0.000 A 
ATOM     30  C   UNL     1      50.476 227.011 354.398  0.00  0.00    +0.000 A 
ATOM     31  H   UNL     1      55.887 223.574 352.039  0.00  0.00    +0.000 HD
ENDROOT
BRANCH   7  32
ATOM     32  O   UNL     1      55.823 232.124 352.779  0.00  0.00    +0.000 OA
ATOM     33  H   UNL     1      56.454 231.375 352.706  0.00  0.00    +0.000 HD
ENDBRANCH   7  32
BRANCH   7  35
ATOM     34  O   UNL     1      55.009 234.156 355.572  0.00  0.00    +0.000 OA
ATOM     35  C   UNL     1      55.638 233.727 354.602  0.00  0.00    +0.000 C 
BRANCH  35  36
ATOM     36  O   UNL     1      56.548 234.397 353.831  0.00  0.00    +0.000 OA
ATOM     37  C   UNL     1      56.558 235.797 353.904  0.00  0.00    +0.000 C 
ENDBRANCH  35  36
ENDBRANCH   7  35
TORSDOF 3
ENDMDL
MODEL 9
REMARK VINA RESULT:      -6.2     16.520     18.333
REMARK  Name = 490561_Nocardiopsis.pdbqt.pdb
REMARK  3 active torsions:
REMARK  status: ('A' for Active; 'I' for Inactive)
REMARK    1  A    between atoms: C_7  and  O_32
REMARK    2  A    between atoms: C_7  and  C_35
REMARK    3  A    between atoms: C_35  and  O_36
REMARK                            x       y       z     vdW  Elec       q    Type
REMARK                         _______ _______ _______ _____ _____    ______ ____
ROOT
ATOM      1  O   UNL     1      69.223 242.283 334.537  0.00  0.00    +0.000 OA
ATOM      2  O   UNL     1      65.010 242.690 340.767  0.00  0.00    +0.000 OA
ATOM      3  N   UNL     1      67.997 240.369 335.188  0.00  0.00    +0.000 N 
ATOM      4  N   UNL     1      67.540 243.268 335.818  0.00  0.00    +0.000 N 
ATOM      5  N   UNL     1      65.224 240.395 340.482  0.00  0.00    +0.000 N 
ATOM      6  C   UNL     1      68.622 241.040 334.029  0.00  0.00    +0.000 C 
ATOM      7  C   UNL     1      67.568 241.534 332.947  0.00  0.00    +0.000 C 
ATOM      8  C   UNL     1      68.152 243.193 334.578  0.00  0.00    +0.000 C 
ATOM      9  C   UNL     1      67.321 242.873 333.477  0.00  0.00    +0.000 C 
ATOM     10  C   UNL     1      67.457 240.883 336.340  0.00  0.00    +0.000 A 
ATOM     11  C   UNL     1      67.255 242.228 336.650  0.00  0.00    +0.000 A 
ATOM     12  C   UNL     1      66.962 240.007 337.311  0.00  0.00    +0.000 A 
ATOM     13  C   UNL     1      66.596 242.477 337.859  0.00  0.00    +0.000 A 
ATOM     14  C   UNL     1      69.815 240.216 333.444  0.00  0.00    +0.000 C 
ATOM     15  C   UNL     1      67.751 238.990 335.404  0.00  0.00    +0.000 A 
ATOM     16  C   UNL     1      66.960 244.331 336.535  0.00  0.00    +0.000 A 
ATOM     17  C   UNL     1      67.154 238.754 336.699  0.00  0.00    +0.000 A 
ATOM     18  C   UNL     1      66.321 240.232 338.536  0.00  0.00    +0.000 A 
ATOM     19  C   UNL     1      66.109 241.606 338.855  0.00  0.00    +0.000 A 
ATOM     20  C   UNL     1      66.405 243.875 337.790  0.00  0.00    +0.000 A 
ATOM     21  C   UNL     1      65.714 239.455 339.647  0.00  0.00    +0.000 C 
ATOM     22  C   UNL     1      68.003 237.908 334.544  0.00  0.00    +0.000 A 
ATOM     23  C   UNL     1      65.401 241.736 340.110  0.00  0.00    +0.000 C 
ATOM     24  C   UNL     1      66.896 245.683 336.168  0.00  0.00    +0.000 A 
ATOM     25  C   UNL     1      66.855 237.428 337.071  0.00  0.00    +0.000 A 
ATOM     26  C   UNL     1      65.791 244.830 338.623  0.00  0.00    +0.000 A 
ATOM     27  C   UNL     1      67.691 236.614 334.958  0.00  0.00    +0.000 A 
ATOM     28  C   UNL     1      67.132 236.373 336.203  0.00  0.00    +0.000 A 
ATOM     29  C   UNL     1      66.282 246.586 337.037  0.00  0.00    +0.000 A 
ATOM     30  C   UNL     1      65.739 246.171 338.243  0.00  0.00    +0.000 A 
ATOM     31  H   UNL     1      64.747 240.164 341.341  0.00  0.00    +0.000 HD
ENDROOT
BRANCH   7  32
ATOM     32  O   UNL     1      66.332 240.806 332.931  0.00  0.00    +0.000 OA
ATOM     33  H   UNL     1      65.679 241.327 333.448  0.00  0.00    +0.000 HD
ENDBRANCH   7  32
BRANCH   7  35
ATOM     34  O   UNL     1      68.719 242.615 331.139  0.00  0.00    +0.000 OA
ATOM     35  C   UNL     1      68.175 241.587 331.546  0.00  0.00    +0.000 C 
BRANCH  35  36
ATOM     36  O   UNL     1      68.071 240.384 330.904  0.00  0.00    +0.000 OA
ATOM     37  C   UNL     1      68.841 240.194 329.748  0.00  0.00    +0.000 C 
ENDBRANCH  35  36
ENDBRANCH   7  35
TORSDOF 3
ENDMDL
