MODEL 1
REMARK VINA RESULT:      -5.9      0.000      0.000
REMARK  Name = 5109870_Ethoxyphenyl.pdbqt.pdb
REMARK  6 active torsions:
REMARK  status: ('A' for Active; 'I' for Inactive)
REMARK    1  A    between atoms: N_2  and  C_22
REMARK    2  A    between atoms: C_3  and  O_11
REMARK    3  A    between atoms: C_3  and  C_13
REMARK    4  A    between atoms: C_16  and  N_19
REMARK    5  A    between atoms: C_25  and  O_28
REMARK    6  A    between atoms: O_28  and  C_29
REMARK                            x       y       z     vdW  Elec       q    Type
REMARK                         _______ _______ _______ _____ _____    ______ ____
ROOT
ATOM      1  N   UNL     1      58.436 217.356 335.049  0.00  0.00    +0.000 N 
ATOM      2  N   UNL     1      56.199 217.611 334.219  0.00  0.00    +0.000 N 
ATOM      3  C   UNL     1      57.809 218.339 335.965  0.00  0.00    +0.000 C 
ATOM      4  C   UNL     1      57.457 217.114 333.942  0.00  0.00    +0.000 C 
ATOM      5  C   UNL     1      56.438 218.319 335.449  0.00  0.00    +0.000 C 
ATOM      6  C   UNL     1      59.783 217.634 334.551  0.00  0.00    +0.000 C 
ATOM      7  C   UNL     1      57.910 216.854 332.615  0.00  0.00    +0.000 C 
ATOM      8  C   UNL     1      60.808 217.657 333.404  0.00  0.00    +0.000 C 
ATOM      9  C   UNL     1      59.078 216.876 331.616  0.00  0.00    +0.000 C 
ATOM     10  C   UNL     1      60.510 217.279 331.957  0.00  0.00    +0.000 C 
ENDROOT
BRANCH   3  11
ATOM     11  C   UNL     1      57.950 217.921 337.409  0.00  0.00    +0.000 A 
ATOM     12  C   UNL     1      58.310 218.840 338.405  0.00  0.00    +0.000 A 
ATOM     13  C   UNL     1      58.395 218.456 339.741  0.00  0.00    +0.000 A 
ATOM     14  C   UNL     1      58.103 217.139 340.084  0.00  0.00    +0.000 A 
ATOM     15  C   UNL     1      57.727 216.205 339.123  0.00  0.00    +0.000 A 
ATOM     16  C   UNL     1      57.647 216.605 337.792  0.00  0.00    +0.000 A 
BRANCH  14  17
ATOM     17  N   UNL     1      58.191 216.732 341.472  0.00  0.00    +0.000 N 
ATOM     18  O   UNL     1      58.259 217.624 342.329  0.00  0.00    +0.000 OA
ATOM     19  O   UNL     1      58.192 215.517 341.717  0.00  0.00    +0.000 OA
ENDBRANCH  14  17
ENDBRANCH   3  11
BRANCH   2  20
ATOM     20  C   UNL     1      55.067 217.811 333.413  0.00  0.00    +0.000 A 
ATOM     21  C   UNL     1      54.854 219.005 332.716  0.00  0.00    +0.000 A 
ATOM     22  C   UNL     1      53.738 219.185 331.899  0.00  0.00    +0.000 A 
ATOM     23  C   UNL     1      52.805 218.161 331.754  0.00  0.00    +0.000 A 
ATOM     24  C   UNL     1      53.001 216.960 332.429  0.00  0.00    +0.000 A 
ATOM     25  C   UNL     1      54.121 216.791 333.243  0.00  0.00    +0.000 A 
BRANCH  23  26
ATOM     26  O   UNL     1      51.678 218.236 330.977  0.00  0.00    +0.000 OA
BRANCH  26  27
ATOM     27  C   UNL     1      50.624 218.792 331.570  0.00  0.00    +0.000 C 
ATOM     28  C   UNL     1      49.409 219.419 332.264  0.00  0.00    +0.000 C 
ENDBRANCH  26  27
ENDBRANCH  23  26
ENDBRANCH   2  20
BRANCH   3  29
ATOM     29  O   UNL     1      58.315 219.658 335.801  0.00  0.00    +0.000 OA
ATOM     30  H   UNL     1      58.574 219.942 336.692  0.00  0.00    +0.000 HD
ENDBRANCH   3  29
TORSDOF 6
ENDMDL
MODEL 2
REMARK VINA RESULT:      -5.9     12.650     17.084
REMARK  Name = 5109870_Ethoxyphenyl.pdbqt.pdb
REMARK  6 active torsions:
REMARK  status: ('A' for Active; 'I' for Inactive)
REMARK    1  A    between atoms: N_2  and  C_22
REMARK    2  A    between atoms: C_3  and  O_11
REMARK    3  A    between atoms: C_3  and  C_13
REMARK    4  A    between atoms: C_16  and  N_19
REMARK    5  A    between atoms: C_25  and  O_28
REMARK    6  A    between atoms: O_28  and  C_29
REMARK                            x       y       z     vdW  Elec       q    Type
REMARK                         _______ _______ _______ _____ _____    ______ ____
ROOT
ATOM      1  N   UNL     1      71.172 222.291 338.261  0.00  0.00    +0.000 N 
ATOM      2  N   UNL     1      71.226 221.309 340.450  0.00  0.00    +0.000 N 
ATOM      3  C   UNL     1      70.836 220.864 338.038  0.00  0.00    +0.000 C 
ATOM      4  C   UNL     1      71.558 222.422 339.702  0.00  0.00    +0.000 C 
ATOM      5  C   UNL     1      70.774 220.404 339.427  0.00  0.00    +0.000 C 
ATOM      6  C   UNL     1      72.140 222.923 337.366  0.00  0.00    +0.000 C 
ATOM      7  C   UNL     1      72.560 223.353 340.105  0.00  0.00    +0.000 C 
ATOM      8  C   UNL     1      73.350 223.844 337.138  0.00  0.00    +0.000 C 
ATOM      9  C   UNL     1      73.704 224.289 339.683  0.00  0.00    +0.000 C 
ATOM     10  C   UNL     1      74.135 224.545 338.242  0.00  0.00    +0.000 C 
ENDROOT
BRANCH   3  11
ATOM     11  C   UNL     1      69.550 220.711 337.261  0.00  0.00    +0.000 A 
ATOM     12  C   UNL     1      69.537 220.707 335.859  0.00  0.00    +0.000 A 
ATOM     13  C   UNL     1      68.353 220.521 335.150  0.00  0.00    +0.000 A 
ATOM     14  C   UNL     1      67.170 220.325 335.856  0.00  0.00    +0.000 A 
ATOM     15  C   UNL     1      67.148 220.307 337.247  0.00  0.00    +0.000 A 
ATOM     16  C   UNL     1      68.341 220.494 337.940  0.00  0.00    +0.000 A 
BRANCH  14  17
ATOM     17  N   UNL     1      65.933 220.133 335.125  0.00  0.00    +0.000 N 
ATOM     18  O   UNL     1      64.903 219.926 335.783  0.00  0.00    +0.000 OA
ATOM     19  O   UNL     1      65.980 220.188 333.888  0.00  0.00    +0.000 OA
ENDBRANCH  14  17
ENDBRANCH   3  11
BRANCH   2  20
ATOM     20  C   UNL     1      71.586 220.904 341.745  0.00  0.00    +0.000 A 
ATOM     21  C   UNL     1      72.918 220.682 342.110  0.00  0.00    +0.000 A 
ATOM     22  C   UNL     1      73.267 220.302 343.405  0.00  0.00    +0.000 A 
ATOM     23  C   UNL     1      72.282 220.143 344.377  0.00  0.00    +0.000 A 
ATOM     24  C   UNL     1      70.951 220.370 344.042  0.00  0.00    +0.000 A 
ATOM     25  C   UNL     1      70.613 220.750 342.743  0.00  0.00    +0.000 A 
BRANCH  23  26
ATOM     26  O   UNL     1      72.519 219.775 345.677  0.00  0.00    +0.000 OA
BRANCH  26  27
ATOM     27  C   UNL     1      71.836 220.464 346.588  0.00  0.00    +0.000 C 
ATOM     28  C   UNL     1      71.058 221.250 347.650  0.00  0.00    +0.000 C 
ENDBRANCH  26  27
ENDBRANCH  23  26
ENDBRANCH   2  20
BRANCH   3  29
ATOM     29  O   UNL     1      71.873 220.141 337.387  0.00  0.00    +0.000 OA
ATOM     30  H   UNL     1      71.555 219.223 337.348  0.00  0.00    +0.000 HD
ENDBRANCH   3  29
TORSDOF 6
ENDMDL
MODEL 3
REMARK VINA RESULT:      -5.8      3.006      9.028
REMARK  Name = 5109870_Ethoxyphenyl.pdbqt.pdb
REMARK  6 active torsions:
REMARK  status: ('A' for Active; 'I' for Inactive)
REMARK    1  A    between atoms: N_2  and  C_22
REMARK    2  A    between atoms: C_3  and  O_11
REMARK    3  A    between atoms: C_3  and  C_13
REMARK    4  A    between atoms: C_16  and  N_19
REMARK    5  A    between atoms: C_25  and  O_28
REMARK    6  A    between atoms: O_28  and  C_29
REMARK                            x       y       z     vdW  Elec       q    Type
REMARK                         _______ _______ _______ _____ _____    ______ ____
ROOT
ATOM      1  N   UNL     1      54.254 216.857 332.776  0.00  0.00    +0.000 N 
ATOM      2  N   UNL     1      56.030 217.616 334.200  0.00  0.00    +0.000 N 
ATOM      3  C   UNL     1      54.476 218.266 332.375  0.00  0.00    +0.000 C 
ATOM      4  C   UNL     1      55.104 216.614 333.985  0.00  0.00    +0.000 C 
ATOM      5  C   UNL     1      55.642 218.580 333.204  0.00  0.00    +0.000 C 
ATOM      6  C   UNL     1      52.879 216.396 332.960  0.00  0.00    +0.000 C 
ATOM      7  C   UNL     1      54.666 215.732 335.016  0.00  0.00    +0.000 C 
ATOM      8  C   UNL     1      51.828 215.603 333.754  0.00  0.00    +0.000 C 
ATOM      9  C   UNL     1      53.506 214.937 335.636  0.00  0.00    +0.000 C 
ATOM     10  C   UNL     1      52.095 214.861 335.060  0.00  0.00    +0.000 C 
ENDROOT
BRANCH   3  11
ATOM     11  C   UNL     1      54.704 218.392 330.887  0.00  0.00    +0.000 A 
ATOM     12  C   UNL     1      53.911 219.233 330.093  0.00  0.00    +0.000 A 
ATOM     13  C   UNL     1      54.156 219.377 328.730  0.00  0.00    +0.000 A 
ATOM     14  C   UNL     1      55.216 218.679 328.158  0.00  0.00    +0.000 A 
ATOM     15  C   UNL     1      56.032 217.848 328.919  0.00  0.00    +0.000 A 
ATOM     16  C   UNL     1      55.774 217.716 330.281  0.00  0.00    +0.000 A 
BRANCH  14  17
ATOM     17  N   UNL     1      55.475 218.822 326.739  0.00  0.00    +0.000 N 
ATOM     18  O   UNL     1      56.222 217.989 326.206  0.00  0.00    +0.000 OA
ATOM     19  O   UNL     1      54.934 219.766 326.147  0.00  0.00    +0.000 OA
ENDBRANCH  14  17
ENDBRANCH   3  11
BRANCH   2  20
ATOM     20  C   UNL     1      56.852 217.918 335.298  0.00  0.00    +0.000 A 
ATOM     21  C   UNL     1      56.405 218.703 336.366  0.00  0.00    +0.000 A 
ATOM     22  C   UNL     1      57.221 218.978 337.462  0.00  0.00    +0.000 A 
ATOM     23  C   UNL     1      58.514 218.461 337.519  0.00  0.00    +0.000 A 
ATOM     24  C   UNL     1      58.977 217.668 336.474  0.00  0.00    +0.000 A 
ATOM     25  C   UNL     1      58.151 217.400 335.382  0.00  0.00    +0.000 A 
BRANCH  23  26
ATOM     26  O   UNL     1      59.394 218.671 338.549  0.00  0.00    +0.000 OA
BRANCH  26  27
ATOM     27  C   UNL     1      58.830 218.991 339.711  0.00  0.00    +0.000 C 
ATOM     28  C   UNL     1      58.191 219.375 341.051  0.00  0.00    +0.000 C 
ENDBRANCH  26  27
ENDBRANCH  23  26
ENDBRANCH   2  20
BRANCH   3  29
ATOM     29  O   UNL     1      53.419 219.132 332.768  0.00  0.00    +0.000 OA
ATOM     30  H   UNL     1      52.709 218.543 333.072  0.00  0.00    +0.000 HD
ENDBRANCH   3  29
TORSDOF 6
ENDMDL
MODEL 4
REMARK VINA RESULT:      -5.7     23.596     25.392
REMARK  Name = 5109870_Ethoxyphenyl.pdbqt.pdb
REMARK  6 active torsions:
REMARK  status: ('A' for Active; 'I' for Inactive)
REMARK    1  A    between atoms: N_2  and  C_22
REMARK    2  A    between atoms: C_3  and  O_11
REMARK    3  A    between atoms: C_3  and  C_13
REMARK    4  A    between atoms: C_16  and  N_19
REMARK    5  A    between atoms: C_25  and  O_28
REMARK    6  A    between atoms: O_28  and  C_29
REMARK                            x       y       z     vdW  Elec       q    Type
REMARK                         _______ _______ _______ _____ _____    ______ ____
ROOT
ATOM      1  N   UNL     1      67.841 238.993 336.292  0.00  0.00    +0.000 N 
ATOM      2  N   UNL     1      67.290 240.596 334.593  0.00  0.00    +0.000 N 
ATOM      3  C   UNL     1      68.114 238.291 335.016  0.00  0.00    +0.000 C 
ATOM      4  C   UNL     1      67.190 240.295 335.937  0.00  0.00    +0.000 C 
ATOM      5  C   UNL     1      67.870 239.385 334.074  0.00  0.00    +0.000 C 
ATOM      6  C   UNL     1      67.114 238.274 337.338  0.00  0.00    +0.000 C 
ATOM      7  C   UNL     1      66.196 240.865 336.785  0.00  0.00    +0.000 C 
ATOM      8  C   UNL     1      66.039 238.236 338.437  0.00  0.00    +0.000 C 
ATOM      9  C   UNL     1      65.224 240.667 337.960  0.00  0.00    +0.000 C 
ATOM     10  C   UNL     1      65.103 239.390 338.785  0.00  0.00    +0.000 C 
ENDROOT
BRANCH   3  11
ATOM     11  C   UNL     1      69.514 237.724 334.981  0.00  0.00    +0.000 A 
ATOM     12  C   UNL     1      70.624 238.492 335.361  0.00  0.00    +0.000 A 
ATOM     13  C   UNL     1      71.906 237.948 335.368  0.00  0.00    +0.000 A 
ATOM     14  C   UNL     1      72.075 236.616 335.002  0.00  0.00    +0.000 A 
ATOM     15  C   UNL     1      70.994 235.822 334.634  0.00  0.00    +0.000 A 
ATOM     16  C   UNL     1      69.719 236.380 334.633  0.00  0.00    +0.000 A 
BRANCH  14  17
ATOM     17  N   UNL     1      73.407 236.044 335.004  0.00  0.00    +0.000 N 
ATOM     18  O   UNL     1      73.542 234.906 335.476  0.00  0.00    +0.000 OA
ATOM     19  O   UNL     1      74.328 236.727 334.535  0.00  0.00    +0.000 OA
ENDBRANCH  14  17
ENDBRANCH   3  11
BRANCH   2  20
ATOM     20  C   UNL     1      66.656 241.561 333.795  0.00  0.00    +0.000 A 
ATOM     21  C   UNL     1      65.314 241.445 333.417  0.00  0.00    +0.000 A 
ATOM     22  C   UNL     1      64.687 242.421 332.643  0.00  0.00    +0.000 A 
ATOM     23  C   UNL     1      65.392 243.550 332.233  0.00  0.00    +0.000 A 
ATOM     24  C   UNL     1      66.725 243.693 332.607  0.00  0.00    +0.000 A 
ATOM     25  C   UNL     1      67.343 242.710 333.381  0.00  0.00    +0.000 A 
BRANCH  23  26
ATOM     26  O   UNL     1      64.870 244.565 331.474  0.00  0.00    +0.000 OA
BRANCH  26  27
ATOM     27  C   UNL     1      65.225 244.544 330.191  0.00  0.00    +0.000 C 
ATOM     28  C   UNL     1      65.638 244.536 328.714  0.00  0.00    +0.000 C 
ENDBRANCH  26  27
ENDBRANCH  23  26
ENDBRANCH   2  20
BRANCH   3  29
ATOM     29  O   UNL     1      67.177 237.259 334.734  0.00  0.00    +0.000 OA
ATOM     30  H   UNL     1      66.361 237.720 334.480  0.00  0.00    +0.000 HD
ENDBRANCH   3  29
TORSDOF 6
ENDMDL
MODEL 5
REMARK VINA RESULT:      -5.6     26.887     29.377
REMARK  Name = 5109870_Ethoxyphenyl.pdbqt.pdb
REMARK  6 active torsions:
REMARK  status: ('A' for Active; 'I' for Inactive)
REMARK    1  A    between atoms: N_2  and  C_22
REMARK    2  A    between atoms: C_3  and  O_11
REMARK    3  A    between atoms: C_3  and  C_13
REMARK    4  A    between atoms: C_16  and  N_19
REMARK    5  A    between atoms: C_25  and  O_28
REMARK    6  A    between atoms: O_28  and  C_29
REMARK                            x       y       z     vdW  Elec       q    Type
REMARK                         _______ _______ _______ _____ _____    ______ ____
ROOT
ATOM      1  N   UNL     1      50.353 243.820 327.374  0.00  0.00    +0.000 N 
ATOM      2  N   UNL     1      52.108 244.992 326.230  0.00  0.00    +0.000 N 
ATOM      3  C   UNL     1      51.426 243.966 328.387  0.00  0.00    +0.000 C 
ATOM      4  C   UNL     1      50.919 244.305 326.075  0.00  0.00    +0.000 C 
ATOM      5  C   UNL     1      52.371 244.790 327.631  0.00  0.00    +0.000 C 
ATOM      6  C   UNL     1      49.694 242.521 327.244  0.00  0.00    +0.000 C 
ATOM      7  C   UNL     1      50.529 243.704 324.843  0.00  0.00    +0.000 C 
ATOM      8  C   UNL     1      49.115 241.395 326.371  0.00  0.00    +0.000 C 
ATOM      9  C   UNL     1      49.841 242.525 324.136  0.00  0.00    +0.000 C 
ATOM     10  C   UNL     1      49.151 241.365 324.846  0.00  0.00    +0.000 C 
ENDROOT
BRANCH   3  11
ATOM     11  C   UNL     1      50.909 244.598 329.658  0.00  0.00    +0.000 A 
ATOM     12  C   UNL     1      50.153 243.867 330.584  0.00  0.00    +0.000 A 
ATOM     13  C   UNL     1      49.716 244.445 331.774  0.00  0.00    +0.000 A 
ATOM     14  C   UNL     1      50.054 245.768 332.043  0.00  0.00    +0.000 A 
ATOM     15  C   UNL     1      50.816 246.518 331.152  0.00  0.00    +0.000 A 
ATOM     16  C   UNL     1      51.244 245.925 329.968  0.00  0.00    +0.000 A 
BRANCH  14  17
ATOM     17  N   UNL     1      49.602 246.377 333.278  0.00  0.00    +0.000 N 
ATOM     18  O   UNL     1      48.780 245.750 333.961  0.00  0.00    +0.000 OA
ATOM     19  O   UNL     1      50.065 247.488 333.575  0.00  0.00    +0.000 OA
ENDBRANCH  14  17
ENDBRANCH   3  11
BRANCH   2  20
ATOM     20  C   UNL     1      53.078 245.413 325.308  0.00  0.00    +0.000 A 
ATOM     21  C   UNL     1      53.853 244.505 324.579  0.00  0.00    +0.000 A 
ATOM     22  C   UNL     1      54.799 244.934 323.648  0.00  0.00    +0.000 A 
ATOM     23  C   UNL     1      54.985 246.295 323.417  0.00  0.00    +0.000 A 
ATOM     24  C   UNL     1      54.218 247.217 324.122  0.00  0.00    +0.000 A 
ATOM     25  C   UNL     1      53.275 246.777 325.051  0.00  0.00    +0.000 A 
BRANCH  23  26
ATOM     26  O   UNL     1      55.885 246.819 322.525  0.00  0.00    +0.000 OA
BRANCH  26  27
ATOM     27  C   UNL     1      56.433 247.974 322.896  0.00  0.00    +0.000 C 
ATOM     28  C   UNL     1      57.063 249.311 323.307  0.00  0.00    +0.000 C 
ENDBRANCH  26  27
ENDBRANCH  23  26
ENDBRANCH   2  20
BRANCH   3  29
ATOM     29  O   UNL     1      52.073 242.738 328.697  0.00  0.00    +0.000 OA
ATOM     30  H   UNL     1      51.666 242.081 328.108  0.00  0.00    +0.000 HD
ENDBRANCH   3  29
TORSDOF 6
ENDMDL
MODEL 6
REMARK VINA RESULT:      -5.5     24.759     27.424
REMARK  Name = 5109870_Ethoxyphenyl.pdbqt.pdb
REMARK  6 active torsions:
REMARK  status: ('A' for Active; 'I' for Inactive)
REMARK    1  A    between atoms: N_2  and  C_22
REMARK    2  A    between atoms: C_3  and  O_11
REMARK    3  A    between atoms: C_3  and  C_13
REMARK    4  A    between atoms: C_16  and  N_19
REMARK    5  A    between atoms: C_25  and  O_28
REMARK    6  A    between atoms: O_28  and  C_29
REMARK                            x       y       z     vdW  Elec       q    Type
REMARK                         _______ _______ _______ _____ _____    ______ ____
ROOT
ATOM      1  N   UNL     1      51.161 244.088 327.498  0.00  0.00    +0.000 N 
ATOM      2  N   UNL     1      50.077 242.130 326.632  0.00  0.00    +0.000 N 
ATOM      3  C   UNL     1      49.722 244.300 327.786  0.00  0.00    +0.000 C 
ATOM      4  C   UNL     1      51.254 242.853 326.656  0.00  0.00    +0.000 C 
ATOM      5  C   UNL     1      49.187 243.013 327.338  0.00  0.00    +0.000 C 
ATOM      6  C   UNL     1      51.928 245.201 326.942  0.00  0.00    +0.000 C 
ATOM      7  C   UNL     1      52.254 242.735 325.647  0.00  0.00    +0.000 C 
ATOM      8  C   UNL     1      52.972 245.745 325.951  0.00  0.00    +0.000 C 
ATOM      9  C   UNL     1      53.316 243.437 324.786  0.00  0.00    +0.000 C 
ATOM     10  C   UNL     1      53.687 244.914 324.891  0.00  0.00    +0.000 C 
ENDROOT
BRANCH   3  11
ATOM     11  C   UNL     1      49.486 244.612 329.245  0.00  0.00    +0.000 A 
ATOM     12  C   UNL     1      50.137 243.897 330.261  0.00  0.00    +0.000 A 
ATOM     13  C   UNL     1      49.947 244.219 331.602  0.00  0.00    +0.000 A 
ATOM     14  C   UNL     1      49.106 245.279 331.928  0.00  0.00    +0.000 A 
ATOM     15  C   UNL     1      48.457 246.020 330.945  0.00  0.00    +0.000 A 
ATOM     16  C   UNL     1      48.658 245.685 329.609  0.00  0.00    +0.000 A 
BRANCH  14  17
ATOM     17  N   UNL     1      48.902 245.619 333.322  0.00  0.00    +0.000 N 
ATOM     18  O   UNL     1      47.910 245.142 333.891  0.00  0.00    +0.000 OA
ATOM     19  O   UNL     1      49.733 246.365 333.860  0.00  0.00    +0.000 OA
ENDBRANCH  14  17
ENDBRANCH   3  11
BRANCH   2  20
ATOM     20  C   UNL     1      49.642 241.067 325.824  0.00  0.00    +0.000 A 
ATOM     21  C   UNL     1      49.680 239.739 326.261  0.00  0.00    +0.000 A 
ATOM     22  C   UNL     1      49.224 238.693 325.459  0.00  0.00    +0.000 A 
ATOM     23  C   UNL     1      48.707 238.956 324.193  0.00  0.00    +0.000 A 
ATOM     24  C   UNL     1      48.648 240.270 323.741  0.00  0.00    +0.000 A 
ATOM     25  C   UNL     1      49.107 241.309 324.551  0.00  0.00    +0.000 A 
BRANCH  23  26
ATOM     26  O   UNL     1      48.233 238.002 323.329  0.00  0.00    +0.000 OA
BRANCH  26  27
ATOM     27  C   UNL     1      48.842 236.822 323.409  0.00  0.00    +0.000 C 
ATOM     28  C   UNL     1      49.532 235.456 323.512  0.00  0.00    +0.000 C 
ENDBRANCH  26  27
ENDBRANCH  23  26
ENDBRANCH   2  20
BRANCH   3  29
ATOM     29  O   UNL     1      49.136 245.317 326.982  0.00  0.00    +0.000 OA
ATOM     30  H   UNL     1      48.177 245.192 327.075  0.00  0.00    +0.000 HD
ENDBRANCH   3  29
TORSDOF 6
ENDMDL
MODEL 7
REMARK VINA RESULT:      -5.3     21.823     23.770
REMARK  Name = 5109870_Ethoxyphenyl.pdbqt.pdb
REMARK  6 active torsions:
REMARK  status: ('A' for Active; 'I' for Inactive)
REMARK    1  A    between atoms: N_2  and  C_22
REMARK    2  A    between atoms: C_3  and  O_11
REMARK    3  A    between atoms: C_3  and  C_13
REMARK    4  A    between atoms: C_16  and  N_19
REMARK    5  A    between atoms: C_25  and  O_28
REMARK    6  A    between atoms: O_28  and  C_29
REMARK                            x       y       z     vdW  Elec       q    Type
REMARK                         _______ _______ _______ _____ _____    ______ ____
ROOT
ATOM      1  N   UNL     1      46.803 235.053 323.547  0.00  0.00    +0.000 N 
ATOM      2  N   UNL     1      44.876 234.543 324.885  0.00  0.00    +0.000 N 
ATOM      3  C   UNL     1      46.714 233.573 323.523  0.00  0.00    +0.000 C 
ATOM      4  C   UNL     1      45.773 235.530 324.524  0.00  0.00    +0.000 C 
ATOM      5  C   UNL     1      45.455 233.388 324.250  0.00  0.00    +0.000 C 
ATOM      6  C   UNL     1      48.111 235.665 323.774  0.00  0.00    +0.000 C 
ATOM      7  C   UNL     1      46.008 236.689 325.321  0.00  0.00    +0.000 C 
ATOM      8  C   UNL     1      48.992 236.730 324.449  0.00  0.00    +0.000 C 
ATOM      9  C   UNL     1      47.023 237.718 325.844  0.00  0.00    +0.000 C 
ATOM     10  C   UNL     1      48.498 237.764 325.455  0.00  0.00    +0.000 C 
ENDROOT
BRANCH   3  11
ATOM     11  C   UNL     1      46.715 233.038 322.111  0.00  0.00    +0.000 A 
ATOM     12  C   UNL     1      46.054 233.711 321.073  0.00  0.00    +0.000 A 
ATOM     13  C   UNL     1      46.096 233.235 319.765  0.00  0.00    +0.000 A 
ATOM     14  C   UNL     1      46.820 232.078 319.493  0.00  0.00    +0.000 A 
ATOM     15  C   UNL     1      47.501 231.394 320.495  0.00  0.00    +0.000 A 
ATOM     16  C   UNL     1      47.449 231.884 321.797  0.00  0.00    +0.000 A 
BRANCH  14  17
ATOM     17  N   UNL     1      46.868 231.575 318.134  0.00  0.00    +0.000 N 
ATOM     18  O   UNL     1      46.649 232.379 317.216  0.00  0.00    +0.000 OA
ATOM     19  O   UNL     1      47.125 230.373 317.973  0.00  0.00    +0.000 OA
ENDBRANCH  14  17
ENDBRANCH   3  11
BRANCH   2  20
ATOM     20  C   UNL     1      43.918 234.471 325.907  0.00  0.00    +0.000 A 
ATOM     21  C   UNL     1      44.084 233.645 327.024  0.00  0.00    +0.000 A 
ATOM     22  C   UNL     1      43.136 233.597 328.046  0.00  0.00    +0.000 A 
ATOM     23  C   UNL     1      41.993 234.390 327.977  0.00  0.00    +0.000 A 
ATOM     24  C   UNL     1      41.811 235.228 326.881  0.00  0.00    +0.000 A 
ATOM     25  C   UNL     1      42.765 235.268 325.865  0.00  0.00    +0.000 A 
BRANCH  23  26
ATOM     26  O   UNL     1      41.004 234.419 328.925  0.00  0.00    +0.000 OA
BRANCH  26  27
ATOM     27  C   UNL     1      41.271 233.734 330.035  0.00  0.00    +0.000 C 
ATOM     28  C   UNL     1      41.574 232.931 331.306  0.00  0.00    +0.000 C 
ENDBRANCH  26  27
ENDBRANCH  23  26
ENDBRANCH   2  20
BRANCH   3  29
ATOM     29  O   UNL     1      47.743 232.939 324.272  0.00  0.00    +0.000 OA
ATOM     30  H   UNL     1      48.475 232.820 323.645  0.00  0.00    +0.000 HD
ENDBRANCH   3  29
TORSDOF 6
ENDMDL
MODEL 8
REMARK VINA RESULT:      -5.2      4.211     10.330
REMARK  Name = 5109870_Ethoxyphenyl.pdbqt.pdb
REMARK  6 active torsions:
REMARK  status: ('A' for Active; 'I' for Inactive)
REMARK    1  A    between atoms: N_2  and  C_22
REMARK    2  A    between atoms: C_3  and  O_11
REMARK    3  A    between atoms: C_3  and  C_13
REMARK    4  A    between atoms: C_16  and  N_19
REMARK    5  A    between atoms: C_25  and  O_28
REMARK    6  A    between atoms: O_28  and  C_29
REMARK                            x       y       z     vdW  Elec       q    Type
REMARK                         _______ _______ _______ _____ _____    ______ ____
ROOT
ATOM      1  N   UNL     1      50.347 218.889 329.796  0.00  0.00    +0.000 N 
ATOM      2  N   UNL     1      51.997 218.601 331.514  0.00  0.00    +0.000 N 
ATOM      3  C   UNL     1      49.561 218.650 331.030  0.00  0.00    +0.000 C 
ATOM      4  C   UNL     1      51.784 218.668 330.151  0.00  0.00    +0.000 C 
ATOM      5  C   UNL     1      50.646 218.617 332.013  0.00  0.00    +0.000 C 
ATOM      6  C   UNL     1      49.958 218.180 328.578  0.00  0.00    +0.000 C 
ATOM      7  C   UNL     1      52.691 218.115 329.200  0.00  0.00    +0.000 C 
ATOM      8  C   UNL     1      50.331 217.393 327.310  0.00  0.00    +0.000 C 
ATOM      9  C   UNL     1      52.880 217.384 327.861  0.00  0.00    +0.000 C 
ATOM     10  C   UNL     1      51.749 216.997 326.912  0.00  0.00    +0.000 C 
ENDROOT
BRANCH   3  11
ATOM     11  C   UNL     1      48.535 219.736 331.255  0.00  0.00    +0.000 A 
ATOM     12  C   UNL     1      48.526 220.503 332.429  0.00  0.00    +0.000 A 
ATOM     13  C   UNL     1      47.604 221.531 332.610  0.00  0.00    +0.000 A 
ATOM     14  C   UNL     1      46.688 221.800 331.597  0.00  0.00    +0.000 A 
ATOM     15  C   UNL     1      46.679 221.069 330.413  0.00  0.00    +0.000 A 
ATOM     16  C   UNL     1      47.608 220.046 330.248  0.00  0.00    +0.000 A 
BRANCH  14  17
ATOM     17  N   UNL     1      45.724 222.868 331.779  0.00  0.00    +0.000 N 
ATOM     18  O   UNL     1      44.953 223.110 330.840  0.00  0.00    +0.000 OA
ATOM     19  O   UNL     1      45.730 223.471 332.861  0.00  0.00    +0.000 OA
ENDBRANCH  14  17
ENDBRANCH   3  11
BRANCH   2  20
ATOM     20  C   UNL     1      53.103 218.192 332.276  0.00  0.00    +0.000 A 
ATOM     21  C   UNL     1      53.231 216.885 332.756  0.00  0.00    +0.000 A 
ATOM     22  C   UNL     1      54.345 216.483 333.492  0.00  0.00    +0.000 A 
ATOM     23  C   UNL     1      55.371 217.387 333.759  0.00  0.00    +0.000 A 
ATOM     24  C   UNL     1      55.271 218.690 333.281  0.00  0.00    +0.000 A 
ATOM     25  C   UNL     1      54.152 219.082 332.546  0.00  0.00    +0.000 A 
BRANCH  23  26
ATOM     26  O   UNL     1      56.506 217.093 334.470  0.00  0.00    +0.000 OA
BRANCH  26  27
ATOM     27  C   UNL     1      56.662 217.794 335.591  0.00  0.00    +0.000 C 
ATOM     28  C   UNL     1      56.838 218.587 336.891  0.00  0.00    +0.000 C 
ENDBRANCH  26  27
ENDBRANCH  23  26
ENDBRANCH   2  20
BRANCH   3  29
ATOM     29  O   UNL     1      48.920 217.381 331.048  0.00  0.00    +0.000 OA
ATOM     30  H   UNL     1      47.979 217.570 330.902  0.00  0.00    +0.000 HD
ENDBRANCH   3  29
TORSDOF 6
ENDMDL
MODEL 9
REMARK VINA RESULT:      -5.2      6.752     10.048
REMARK  Name = 5109870_Ethoxyphenyl.pdbqt.pdb
REMARK  6 active torsions:
REMARK  status: ('A' for Active; 'I' for Inactive)
REMARK    1  A    between atoms: N_2  and  C_22
REMARK    2  A    between atoms: C_3  and  O_11
REMARK    3  A    between atoms: C_3  and  C_13
REMARK    4  A    between atoms: C_16  and  N_19
REMARK    5  A    between atoms: C_25  and  O_28
REMARK    6  A    between atoms: O_28  and  C_29
REMARK                            x       y       z     vdW  Elec       q    Type
REMARK                         _______ _______ _______ _____ _____    ______ ____
ROOT
ATOM      1  N   UNL     1      56.760 218.664 326.851  0.00  0.00    +0.000 N 
ATOM      2  N   UNL     1      55.179 219.014 328.622  0.00  0.00    +0.000 N 
ATOM      3  C   UNL     1      56.003 219.871 326.441  0.00  0.00    +0.000 C 
ATOM      4  C   UNL     1      56.083 218.125 328.073  0.00  0.00    +0.000 C 
ATOM      5  C   UNL     1      55.173 220.059 327.633  0.00  0.00    +0.000 C 
ATOM      6  C   UNL     1      57.009 217.629 325.849  0.00  0.00    +0.000 C 
ATOM      7  C   UNL     1      56.031 216.721 328.315  0.00  0.00    +0.000 C 
ATOM      8  C   UNL     1      57.072 216.146 325.443  0.00  0.00    +0.000 C 
ATOM      9  C   UNL     1      56.217 215.301 327.757  0.00  0.00    +0.000 C 
ATOM     10  C   UNL     1      56.708 214.975 326.350  0.00  0.00    +0.000 C 
ENDROOT
BRANCH   3  11
ATOM     11  C   UNL     1      56.925 221.024 326.122  0.00  0.00    +0.000 A 
ATOM     12  C   UNL     1      57.466 221.831 327.133  0.00  0.00    +0.000 A 
ATOM     13  C   UNL     1      58.350 222.865 326.834  0.00  0.00    +0.000 A 
ATOM     14  C   UNL     1      58.705 223.084 325.507  0.00  0.00    +0.000 A 
ATOM     15  C   UNL     1      58.199 222.293 324.479  0.00  0.00    +0.000 A 
ATOM     16  C   UNL     1      57.318 221.264 324.796  0.00  0.00    +0.000 A 
BRANCH  14  17
ATOM     17  N   UNL     1      59.623 224.160 325.187  0.00  0.00    +0.000 N 
ATOM     18  O   UNL     1      60.030 224.864 326.122  0.00  0.00    +0.000 OA
ATOM     19  O   UNL     1      59.945 224.308 324.000  0.00  0.00    +0.000 OA
ENDBRANCH  14  17
ENDBRANCH   3  11
BRANCH   2  20
ATOM     20  C   UNL     1      54.184 218.860 329.599  0.00  0.00    +0.000 A 
ATOM     21  C   UNL     1      54.462 218.969 330.966  0.00  0.00    +0.000 A 
ATOM     22  C   UNL     1      53.461 218.837 331.928  0.00  0.00    +0.000 A 
ATOM     23  C   UNL     1      52.145 218.599 331.540  0.00  0.00    +0.000 A 
ATOM     24  C   UNL     1      51.841 218.498 330.186  0.00  0.00    +0.000 A 
ATOM     25  C   UNL     1      52.850 218.631 329.232  0.00  0.00    +0.000 A 
BRANCH  23  26
ATOM     26  O   UNL     1      51.090 218.455 332.404  0.00  0.00    +0.000 OA
BRANCH  26  27
ATOM     27  C   UNL     1      49.982 219.101 332.048  0.00  0.00    +0.000 C 
ATOM     28  C   UNL     1      48.696 219.831 331.640  0.00  0.00    +0.000 C 
ENDBRANCH  26  27
ENDBRANCH  23  26
ENDBRANCH   2  20
BRANCH   3  29
ATOM     29  O   UNL     1      55.135 219.639 325.339  0.00  0.00    +0.000 OA
ATOM     30  H   UNL     1      54.541 220.408 325.319  0.00  0.00    +0.000 HD
ENDBRANCH   3  29
TORSDOF 6
ENDMDL
