MODEL 1
REMARK VINA RESULT:      -5.9      0.000      0.000
REMARK  Name = 5280445_Luteolin.pdbqt.pdb
REMARK  5 active torsions:
REMARK  status: ('A' for Active; 'I' for Inactive)
REMARK    1  A    between atoms: C_5  and  C_12
REMARK    2  A    between atoms: C_8  and  O_22
REMARK    3  A    between atoms: C_10  and  O_24
REMARK    4  A    between atoms: C_15  and  O_18
REMARK    5  A    between atoms: C_17  and  O_20
REMARK                            x       y       z     vdW  Elec       q    Type
REMARK                         _______ _______ _______ _____ _____    ______ ____
ROOT
ATOM      1  O   UNL     1      54.493 246.212 324.347  0.00  0.00    +0.000 OA
ATOM      2  O   UNL     1      56.349 244.838 320.943  0.00  0.00    +0.000 OA
ATOM      3  C   UNL     1      56.004 246.693 322.429  0.00  0.00    +0.000 A 
ATOM      4  C   UNL     1      55.320 247.066 323.612  0.00  0.00    +0.000 A 
ATOM      5  C   UNL     1      54.314 244.896 323.903  0.00  0.00    +0.000 A 
ATOM      6  C   UNL     1      55.832 245.312 321.939  0.00  0.00    +0.000 A 
ATOM      7  C   UNL     1      54.964 244.621 322.821  0.00  0.00    +0.000 A 
ATOM      8  C   UNL     1      56.812 247.608 321.755  0.00  0.00    +0.000 A 
ATOM      9  C   UNL     1      55.458 248.359 324.105  0.00  0.00    +0.000 A 
ATOM     10  C   UNL     1      56.268 249.263 323.421  0.00  0.00    +0.000 A 
ATOM     11  C   UNL     1      56.944 248.900 322.255  0.00  0.00    +0.000 A 
ENDROOT
BRANCH   5  12
ATOM     12  C   UNL     1      53.451 244.008 324.671  0.00  0.00    +0.000 A 
ATOM     13  C   UNL     1      53.632 243.865 326.050  0.00  0.00    +0.000 A 
ATOM     14  C   UNL     1      52.429 243.284 324.044  0.00  0.00    +0.000 A 
ATOM     15  C   UNL     1      52.805 243.015 326.773  0.00  0.00    +0.000 A 
ATOM     16  C   UNL     1      51.598 242.430 324.769  0.00  0.00    +0.000 A 
ATOM     17  C   UNL     1      51.794 242.303 326.138  0.00  0.00    +0.000 A 
BRANCH  15  18
ATOM     18  O   UNL     1      52.992 242.886 328.119  0.00  0.00    +0.000 OA
ATOM     19  H   UNL     1      52.994 241.922 328.285  0.00  0.00    +0.000 HD
ENDBRANCH  15  18
BRANCH  17  20
ATOM     20  O   UNL     1      51.006 241.479 326.895  0.00  0.00    +0.000 OA
ATOM     21  H   UNL     1      50.221 241.251 326.364  0.00  0.00    +0.000 HD
ENDBRANCH  17  20
ENDBRANCH   5  12
BRANCH   8  22
ATOM     22  O   UNL     1      57.496 247.307 320.610  0.00  0.00    +0.000 OA
ATOM     23  H   UNL     1      57.576 248.113 320.054  0.00  0.00    +0.000 HD
ENDBRANCH   8  22
BRANCH  10  24
ATOM     24  O   UNL     1      56.389 250.527 323.922  0.00  0.00    +0.000 OA
ATOM     25  H   UNL     1      57.276 250.861 323.698  0.00  0.00    +0.000 HD
ENDBRANCH  10  24
TORSDOF 5
ENDMDL
MODEL 2
REMARK VINA RESULT:      -5.7      8.722     12.006
REMARK  Name = 5280445_Luteolin.pdbqt.pdb
REMARK  5 active torsions:
REMARK  status: ('A' for Active; 'I' for Inactive)
REMARK    1  A    between atoms: C_5  and  C_12
REMARK    2  A    between atoms: C_8  and  O_22
REMARK    3  A    between atoms: C_10  and  O_24
REMARK    4  A    between atoms: C_15  and  O_18
REMARK    5  A    between atoms: C_17  and  O_20
REMARK                            x       y       z     vdW  Elec       q    Type
REMARK                         _______ _______ _______ _____ _____    ______ ____
ROOT
ATOM      1  O   UNL     1      47.582 236.148 324.615  0.00  0.00    +0.000 OA
ATOM      2  O   UNL     1      50.005 238.675 322.454  0.00  0.00    +0.000 OA
ATOM      3  C   UNL     1      48.622 238.399 324.398  0.00  0.00    +0.000 A 
ATOM      4  C   UNL     1      47.806 237.452 325.066  0.00  0.00    +0.000 A 
ATOM      5  C   UNL     1      48.192 235.729 323.426  0.00  0.00    +0.000 A 
ATOM      6  C   UNL     1      49.277 237.983 323.143  0.00  0.00    +0.000 A 
ATOM      7  C   UNL     1      48.921 236.638 322.869  0.00  0.00    +0.000 A 
ATOM      8  C   UNL     1      48.794 239.682 324.918  0.00  0.00    +0.000 A 
ATOM      9  C   UNL     1      47.172 237.808 326.251  0.00  0.00    +0.000 A 
ATOM     10  C   UNL     1      47.354 239.093 326.758  0.00  0.00    +0.000 A 
ATOM     11  C   UNL     1      48.156 240.030 326.104  0.00  0.00    +0.000 A 
ENDROOT
BRANCH   5  12
ATOM     12  C   UNL     1      47.957 234.369 322.959  0.00  0.00    +0.000 A 
ATOM     13  C   UNL     1      48.057 233.290 323.842  0.00  0.00    +0.000 A 
ATOM     14  C   UNL     1      47.626 234.120 321.620  0.00  0.00    +0.000 A 
ATOM     15  C   UNL     1      47.831 231.998 323.386  0.00  0.00    +0.000 A 
ATOM     16  C   UNL     1      47.399 232.822 321.162  0.00  0.00    +0.000 A 
ATOM     17  C   UNL     1      47.503 231.764 322.055  0.00  0.00    +0.000 A 
BRANCH  15  18
ATOM     18  O   UNL     1      47.931 230.953 324.260  0.00  0.00    +0.000 OA
ATOM     19  H   UNL     1      47.441 230.219 323.837  0.00  0.00    +0.000 HD
ENDBRANCH  15  18
BRANCH  17  20
ATOM     20  O   UNL     1      47.291 230.473 321.656  0.00  0.00    +0.000 OA
ATOM     21  H   UNL     1      46.350 230.389 321.415  0.00  0.00    +0.000 HD
ENDBRANCH  17  20
ENDBRANCH   5  12
BRANCH   8  22
ATOM     22  O   UNL     1      49.567 240.637 324.319  0.00  0.00    +0.000 OA
ATOM     23  H   UNL     1      49.675 241.401 324.927  0.00  0.00    +0.000 HD
ENDBRANCH   8  22
BRANCH  10  24
ATOM     24  O   UNL     1      46.721 239.421 327.923  0.00  0.00    +0.000 OA
ATOM     25  H   UNL     1      46.302 238.617 328.279  0.00  0.00    +0.000 HD
ENDBRANCH  10  24
TORSDOF 5
ENDMDL
MODEL 3
REMARK VINA RESULT:      -5.6     30.930     32.411
REMARK  Name = 5280445_Luteolin.pdbqt.pdb
REMARK  5 active torsions:
REMARK  status: ('A' for Active; 'I' for Inactive)
REMARK    1  A    between atoms: C_5  and  C_12
REMARK    2  A    between atoms: C_8  and  O_22
REMARK    3  A    between atoms: C_10  and  O_24
REMARK    4  A    between atoms: C_15  and  O_18
REMARK    5  A    between atoms: C_17  and  O_20
REMARK                            x       y       z     vdW  Elec       q    Type
REMARK                         _______ _______ _______ _____ _____    ______ ____
ROOT
ATOM      1  O   UNL     1      72.977 223.493 339.361  0.00  0.00    +0.000 OA
ATOM      2  O   UNL     1      72.410 222.765 335.353  0.00  0.00    +0.000 OA
ATOM      3  C   UNL     1      73.496 224.122 337.009  0.00  0.00    +0.000 A 
ATOM      4  C   UNL     1      73.623 224.289 338.411  0.00  0.00    +0.000 A 
ATOM      5  C   UNL     1      72.144 222.458 338.922  0.00  0.00    +0.000 A 
ATOM      6  C   UNL     1      72.624 223.038 336.520  0.00  0.00    +0.000 A 
ATOM      7  C   UNL     1      72.072 222.360 337.637  0.00  0.00    +0.000 A 
ATOM      8  C   UNL     1      74.178 224.961 336.128  0.00  0.00    +0.000 A 
ATOM      9  C   UNL     1      74.437 225.300 338.910  0.00  0.00    +0.000 A 
ATOM     10  C   UNL     1      75.112 226.131 338.017  0.00  0.00    +0.000 A 
ATOM     11  C   UNL     1      74.989 225.971 336.636  0.00  0.00    +0.000 A 
ENDROOT
BRANCH   5  12
ATOM     12  C   UNL     1      71.472 221.630 339.915  0.00  0.00    +0.000 A 
ATOM     13  C   UNL     1      70.314 220.921 339.579  0.00  0.00    +0.000 A 
ATOM     14  C   UNL     1      71.973 221.528 341.220  0.00  0.00    +0.000 A 
ATOM     15  C   UNL     1      69.681 220.135 340.534  0.00  0.00    +0.000 A 
ATOM     16  C   UNL     1      71.337 220.739 342.179  0.00  0.00    +0.000 A 
ATOM     17  C   UNL     1      70.189 220.043 341.825  0.00  0.00    +0.000 A 
BRANCH  15  18
ATOM     18  O   UNL     1      68.552 219.448 340.192  0.00  0.00    +0.000 OA
ATOM     19  H   UNL     1      68.840 218.519 340.088  0.00  0.00    +0.000 HD
ENDBRANCH  15  18
BRANCH  17  20
ATOM     20  O   UNL     1      69.529 219.256 342.728  0.00  0.00    +0.000 OA
ATOM     21  H   UNL     1      68.655 219.044 342.352  0.00  0.00    +0.000 HD
ENDBRANCH  17  20
ENDBRANCH   5  12
BRANCH   8  22
ATOM     22  O   UNL     1      74.094 224.849 334.768  0.00  0.00    +0.000 OA
ATOM     23  H   UNL     1      73.153 224.750 334.504  0.00  0.00    +0.000 HD
ENDBRANCH   8  22
BRANCH  10  24
ATOM     24  O   UNL     1      75.904 227.118 338.529  0.00  0.00    +0.000 OA
ATOM     25  H   UNL     1      76.343 227.572 337.787  0.00  0.00    +0.000 HD
ENDBRANCH  10  24
TORSDOF 5
ENDMDL
MODEL 4
REMARK VINA RESULT:      -5.6     30.838     32.824
REMARK  Name = 5280445_Luteolin.pdbqt.pdb
REMARK  5 active torsions:
REMARK  status: ('A' for Active; 'I' for Inactive)
REMARK    1  A    between atoms: C_5  and  C_12
REMARK    2  A    between atoms: C_8  and  O_22
REMARK    3  A    between atoms: C_10  and  O_24
REMARK    4  A    between atoms: C_15  and  O_18
REMARK    5  A    between atoms: C_17  and  O_20
REMARK                            x       y       z     vdW  Elec       q    Type
REMARK                         _______ _______ _______ _____ _____    ______ ____
ROOT
ATOM      1  O   UNL     1      69.808 221.795 337.993  0.00  0.00    +0.000 OA
ATOM      2  O   UNL     1      69.713 219.324 341.281  0.00  0.00    +0.000 OA
ATOM      3  C   UNL     1      68.632 219.993 339.243  0.00  0.00    +0.000 A 
ATOM      4  C   UNL     1      68.758 220.886 338.151  0.00  0.00    +0.000 A 
ATOM      5  C   UNL     1      70.812 221.844 338.968  0.00  0.00    +0.000 A 
ATOM      6  C   UNL     1      69.677 220.024 340.285  0.00  0.00    +0.000 A 
ATOM      7  C   UNL     1      70.638 221.006 339.934  0.00  0.00    +0.000 A 
ATOM      8  C   UNL     1      67.551 219.115 339.324  0.00  0.00    +0.000 A 
ATOM      9  C   UNL     1      67.793 220.886 337.149  0.00  0.00    +0.000 A 
ATOM     10  C   UNL     1      66.718 220.004 337.244  0.00  0.00    +0.000 A 
ATOM     11  C   UNL     1      66.589 219.122 338.318  0.00  0.00    +0.000 A 
ENDROOT
BRANCH   5  12
ATOM     12  C   UNL     1      71.906 222.792 338.801  0.00  0.00    +0.000 A 
ATOM     13  C   UNL     1      72.223 223.290 337.534  0.00  0.00    +0.000 A 
ATOM     14  C   UNL     1      72.656 223.221 339.904  0.00  0.00    +0.000 A 
ATOM     15  C   UNL     1      73.268 224.193 337.386  0.00  0.00    +0.000 A 
ATOM     16  C   UNL     1      73.706 224.128 339.756  0.00  0.00    +0.000 A 
ATOM     17  C   UNL     1      74.005 224.611 338.488  0.00  0.00    +0.000 A 
BRANCH  15  18
ATOM     18  O   UNL     1      73.567 224.672 336.142  0.00  0.00    +0.000 OA
ATOM     19  H   UNL     1      72.954 224.209 335.536  0.00  0.00    +0.000 HD
ENDBRANCH  15  18
BRANCH  17  20
ATOM     20  O   UNL     1      75.024 225.502 338.289  0.00  0.00    +0.000 OA
ATOM     21  H   UNL     1      74.837 226.290 338.831  0.00  0.00    +0.000 HD
ENDBRANCH  17  20
ENDBRANCH   5  12
BRANCH   8  22
ATOM     22  O   UNL     1      67.375 218.232 340.352  0.00  0.00    +0.000 OA
ATOM     23  H   UNL     1      67.133 217.351 339.991  0.00  0.00    +0.000 HD
ENDBRANCH   8  22
BRANCH  10  24
ATOM     24  O   UNL     1      65.782 220.021 336.250  0.00  0.00    +0.000 OA
ATOM     25  H   UNL     1      65.012 220.527 336.565  0.00  0.00    +0.000 HD
ENDBRANCH  10  24
TORSDOF 5
ENDMDL
MODEL 5
REMARK VINA RESULT:      -5.5     18.731     20.055
REMARK  Name = 5280445_Luteolin.pdbqt.pdb
REMARK  5 active torsions:
REMARK  status: ('A' for Active; 'I' for Inactive)
REMARK    1  A    between atoms: C_5  and  C_12
REMARK    2  A    between atoms: C_8  and  O_22
REMARK    3  A    between atoms: C_10  and  O_24
REMARK    4  A    between atoms: C_15  and  O_18
REMARK    5  A    between atoms: C_17  and  O_20
REMARK                            x       y       z     vdW  Elec       q    Type
REMARK                         _______ _______ _______ _____ _____    ______ ____
ROOT
ATOM      1  O   UNL     1      61.691 227.563 324.080  0.00  0.00    +0.000 OA
ATOM      2  O   UNL     1      65.681 228.009 323.185  0.00  0.00    +0.000 OA
ATOM      3  C   UNL     1      63.434 228.728 322.739  0.00  0.00    +0.000 A 
ATOM      4  C   UNL     1      62.089 228.496 323.119  0.00  0.00    +0.000 A 
ATOM      5  C   UNL     1      62.670 226.793 324.721  0.00  0.00    +0.000 A 
ATOM      6  C   UNL     1      64.485 227.930 323.399  0.00  0.00    +0.000 A 
ATOM      7  C   UNL     1      63.872 227.053 324.329  0.00  0.00    +0.000 A 
ATOM      8  C   UNL     1      63.746 229.681 321.770  0.00  0.00    +0.000 A 
ATOM      9  C   UNL     1      61.071 229.229 322.519  0.00  0.00    +0.000 A 
ATOM     10  C   UNL     1      61.397 230.178 321.552  0.00  0.00    +0.000 A 
ATOM     11  C   UNL     1      62.721 230.410 321.174  0.00  0.00    +0.000 A 
ENDROOT
BRANCH   5  12
ATOM     12  C   UNL     1      62.252 225.821 325.723  0.00  0.00    +0.000 A 
ATOM     13  C   UNL     1      63.085 225.515 326.803  0.00  0.00    +0.000 A 
ATOM     14  C   UNL     1      61.011 225.177 325.622  0.00  0.00    +0.000 A 
ATOM     15  C   UNL     1      62.678 224.586 327.751  0.00  0.00    +0.000 A 
ATOM     16  C   UNL     1      60.601 224.244 326.574  0.00  0.00    +0.000 A 
ATOM     17  C   UNL     1      61.444 223.955 327.640  0.00  0.00    +0.000 A 
BRANCH  15  18
ATOM     18  O   UNL     1      63.502 224.297 328.801  0.00  0.00    +0.000 OA
ATOM     19  H   UNL     1      62.924 223.879 329.471  0.00  0.00    +0.000 HD
ENDBRANCH  15  18
BRANCH  17  20
ATOM     20  O   UNL     1      61.089 223.048 328.600  0.00  0.00    +0.000 OA
ATOM     21  H   UNL     1      60.650 223.536 329.320  0.00  0.00    +0.000 HD
ENDBRANCH  17  20
ENDBRANCH   5  12
BRANCH   8  22
ATOM     22  O   UNL     1      65.023 229.948 321.361  0.00  0.00    +0.000 OA
ATOM     23  H   UNL     1      65.658 229.626 322.037  0.00  0.00    +0.000 HD
ENDBRANCH   8  22
BRANCH  10  24
ATOM     24  O   UNL     1      60.382 230.886 320.975  0.00  0.00    +0.000 OA
ATOM     25  H   UNL     1      60.109 230.422 320.163  0.00  0.00    +0.000 HD
ENDBRANCH  10  24
TORSDOF 5
ENDMDL
MODEL 6
REMARK VINA RESULT:      -5.4     27.680     30.452
REMARK  Name = 5280445_Luteolin.pdbqt.pdb
REMARK  5 active torsions:
REMARK  status: ('A' for Active; 'I' for Inactive)
REMARK    1  A    between atoms: C_5  and  C_12
REMARK    2  A    between atoms: C_8  and  O_22
REMARK    3  A    between atoms: C_10  and  O_24
REMARK    4  A    between atoms: C_15  and  O_18
REMARK    5  A    between atoms: C_17  and  O_20
REMARK                            x       y       z     vdW  Elec       q    Type
REMARK                         _______ _______ _______ _____ _____    ______ ____
ROOT
ATOM      1  O   UNL     1      55.744 217.085 335.314  0.00  0.00    +0.000 OA
ATOM      2  O   UNL     1      57.629 220.321 337.017  0.00  0.00    +0.000 OA
ATOM      3  C   UNL     1      56.807 218.087 337.330  0.00  0.00    +0.000 A 
ATOM      4  C   UNL     1      56.151 217.030 336.650  0.00  0.00    +0.000 A 
ATOM      5  C   UNL     1      55.990 218.252 334.580  0.00  0.00    +0.000 A 
ATOM      6  C   UNL     1      57.077 219.327 336.579  0.00  0.00    +0.000 A 
ATOM      7  C   UNL     1      56.589 219.174 335.257  0.00  0.00    +0.000 A 
ATOM      8  C   UNL     1      57.181 217.949 338.666  0.00  0.00    +0.000 A 
ATOM      9  C   UNL     1      55.879 215.845 337.325  0.00  0.00    +0.000 A 
ATOM     10  C   UNL     1      56.259 215.722 338.660  0.00  0.00    +0.000 A 
ATOM     11  C   UNL     1      56.905 216.760 339.334  0.00  0.00    +0.000 A 
ENDROOT
BRANCH   5  12
ATOM     12  C   UNL     1      55.564 218.306 333.187  0.00  0.00    +0.000 A 
ATOM     13  C   UNL     1      56.258 217.590 332.207  0.00  0.00    +0.000 A 
ATOM     14  C   UNL     1      54.456 219.075 332.806  0.00  0.00    +0.000 A 
ATOM     15  C   UNL     1      55.845 217.649 330.883  0.00  0.00    +0.000 A 
ATOM     16  C   UNL     1      54.041 219.135 331.476  0.00  0.00    +0.000 A 
ATOM     17  C   UNL     1      54.743 218.416 330.518  0.00  0.00    +0.000 A 
BRANCH  15  18
ATOM     18  O   UNL     1      56.531 216.944 329.936  0.00  0.00    +0.000 OA
ATOM     19  H   UNL     1      57.030 216.266 330.434  0.00  0.00    +0.000 HD
ENDBRANCH  15  18
BRANCH  17  20
ATOM     20  O   UNL     1      54.377 218.441 329.200  0.00  0.00    +0.000 OA
ATOM     21  H   UNL     1      54.690 217.614 328.790  0.00  0.00    +0.000 HD
ENDBRANCH  17  20
ENDBRANCH   5  12
BRANCH   8  22
ATOM     22  O   UNL     1      57.815 218.932 339.374  0.00  0.00    +0.000 OA
ATOM     23  H   UNL     1      58.608 218.559 339.816  0.00  0.00    +0.000 HD
ENDBRANCH   8  22
BRANCH  10  24
ATOM     24  O   UNL     1      55.981 214.550 339.303  0.00  0.00    +0.000 OA
ATOM     25  H   UNL     1      55.999 214.717 340.262  0.00  0.00    +0.000 HD
ENDBRANCH  10  24
TORSDOF 5
ENDMDL
MODEL 7
REMARK VINA RESULT:      -5.4     19.827     24.495
REMARK  Name = 5280445_Luteolin.pdbqt.pdb
REMARK  5 active torsions:
REMARK  status: ('A' for Active; 'I' for Inactive)
REMARK    1  A    between atoms: C_5  and  C_12
REMARK    2  A    between atoms: C_8  and  O_22
REMARK    3  A    between atoms: C_10  and  O_24
REMARK    4  A    between atoms: C_15  and  O_18
REMARK    5  A    between atoms: C_17  and  O_20
REMARK                            x       y       z     vdW  Elec       q    Type
REMARK                         _______ _______ _______ _____ _____    ______ ____
ROOT
ATOM      1  O   UNL     1      45.439 237.721 344.359  0.00  0.00    +0.000 OA
ATOM      2  O   UNL     1      48.325 236.896 347.171  0.00  0.00    +0.000 OA
ATOM      3  C   UNL     1      46.323 236.151 346.076  0.00  0.00    +0.000 A 
ATOM      4  C   UNL     1      45.381 236.530 345.088  0.00  0.00    +0.000 A 
ATOM      5  C   UNL     1      46.489 238.614 344.606  0.00  0.00    +0.000 A 
ATOM      6  C   UNL     1      47.438 237.074 346.356  0.00  0.00    +0.000 A 
ATOM      7  C   UNL     1      47.310 238.210 345.516  0.00  0.00    +0.000 A 
ATOM      8  C   UNL     1      46.191 234.942 346.758  0.00  0.00    +0.000 A 
ATOM      9  C   UNL     1      44.315 235.685 344.796  0.00  0.00    +0.000 A 
ATOM     10  C   UNL     1      44.197 234.480 345.485  0.00  0.00    +0.000 A 
ATOM     11  C   UNL     1      45.121 234.102 346.460  0.00  0.00    +0.000 A 
ENDROOT
BRANCH   5  12
ATOM     12  C   UNL     1      46.547 239.855 343.844  0.00  0.00    +0.000 A 
ATOM     13  C   UNL     1      47.094 239.870 342.558  0.00  0.00    +0.000 A 
ATOM     14  C   UNL     1      46.057 241.051 344.386  0.00  0.00    +0.000 A 
ATOM     15  C   UNL     1      47.145 241.059 341.841  0.00  0.00    +0.000 A 
ATOM     16  C   UNL     1      46.109 242.245 343.666  0.00  0.00    +0.000 A 
ATOM     17  C   UNL     1      46.656 242.239 342.390  0.00  0.00    +0.000 A 
BRANCH  15  18
ATOM     18  O   UNL     1      47.681 241.059 340.585  0.00  0.00    +0.000 OA
ATOM     19  H   UNL     1      47.819 242.003 340.366  0.00  0.00    +0.000 HD
ENDBRANCH  15  18
BRANCH  17  20
ATOM     20  O   UNL     1      46.730 243.382 341.642  0.00  0.00    +0.000 OA
ATOM     21  H   UNL     1      46.297 244.094 342.148  0.00  0.00    +0.000 HD
ENDBRANCH  17  20
ENDBRANCH   5  12
BRANCH   8  22
ATOM     22  O   UNL     1      47.066 234.523 347.721  0.00  0.00    +0.000 OA
ATOM     23  H   UNL     1      46.568 234.121 348.466  0.00  0.00    +0.000 HD
ENDBRANCH   8  22
BRANCH  10  24
ATOM     24  O   UNL     1      43.142 233.666 345.184  0.00  0.00    +0.000 OA
ATOM     25  H   UNL     1      43.488 232.873 344.737  0.00  0.00    +0.000 HD
ENDBRANCH  10  24
TORSDOF 5
ENDMDL
MODEL 8
REMARK VINA RESULT:      -5.3     30.358     31.743
REMARK  Name = 5280445_Luteolin.pdbqt.pdb
REMARK  5 active torsions:
REMARK  status: ('A' for Active; 'I' for Inactive)
REMARK    1  A    between atoms: C_5  and  C_12
REMARK    2  A    between atoms: C_8  and  O_22
REMARK    3  A    between atoms: C_10  and  O_24
REMARK    4  A    between atoms: C_15  and  O_18
REMARK    5  A    between atoms: C_17  and  O_20
REMARK                            x       y       z     vdW  Elec       q    Type
REMARK                         _______ _______ _______ _____ _____    ______ ____
ROOT
ATOM      1  O   UNL     1      68.804 220.289 337.858  0.00  0.00    +0.000 OA
ATOM      2  O   UNL     1      70.865 223.749 337.021  0.00  0.00    +0.000 OA
ATOM      3  C   UNL     1      70.385 222.044 338.642  0.00  0.00    +0.000 A 
ATOM      4  C   UNL     1      69.633 220.857 338.829  0.00  0.00    +0.000 A 
ATOM      5  C   UNL     1      68.692 220.917 336.612  0.00  0.00    +0.000 A 
ATOM      6  C   UNL     1      70.286 222.726 337.338  0.00  0.00    +0.000 A 
ATOM      7  C   UNL     1      69.401 221.991 336.508  0.00  0.00    +0.000 A 
ATOM      8  C   UNL     1      71.191 222.544 339.665  0.00  0.00    +0.000 A 
ATOM      9  C   UNL     1      69.702 220.186 340.045  0.00  0.00    +0.000 A 
ATOM     10  C   UNL     1      70.511 220.698 341.058  0.00  0.00    +0.000 A 
ATOM     11  C   UNL     1      71.253 221.866 340.879  0.00  0.00    +0.000 A 
ENDROOT
BRANCH   5  12
ATOM     12  C   UNL     1      67.827 220.323 335.602  0.00  0.00    +0.000 A 
ATOM     13  C   UNL     1      66.519 219.948 335.923  0.00  0.00    +0.000 A 
ATOM     14  C   UNL     1      68.288 220.117 334.295  0.00  0.00    +0.000 A 
ATOM     15  C   UNL     1      65.702 219.381 334.952  0.00  0.00    +0.000 A 
ATOM     16  C   UNL     1      67.469 219.548 333.320  0.00  0.00    +0.000 A 
ATOM     17  C   UNL     1      66.173 219.183 333.659  0.00  0.00    +0.000 A 
BRANCH  15  18
ATOM     18  O   UNL     1      64.426 219.020 335.279  0.00  0.00    +0.000 OA
ATOM     19  H   UNL     1      64.172 218.350 334.613  0.00  0.00    +0.000 HD
ENDBRANCH  15  18
BRANCH  17  20
ATOM     20  O   UNL     1      65.329 218.621 332.740  0.00  0.00    +0.000 OA
ATOM     21  H   UNL     1      65.006 217.779 333.111  0.00  0.00    +0.000 HD
ENDBRANCH  17  20
ENDBRANCH   5  12
BRANCH   8  22
ATOM     22  O   UNL     1      71.938 223.682 339.544  0.00  0.00    +0.000 OA
ATOM     23  H   UNL     1      72.864 223.498 339.814  0.00  0.00    +0.000 HD
ENDBRANCH   8  22
BRANCH  10  24
ATOM     24  O   UNL     1      70.563 220.023 342.244  0.00  0.00    +0.000 OA
ATOM     25  H   UNL     1      69.680 220.059 342.654  0.00  0.00    +0.000 HD
ENDBRANCH  10  24
TORSDOF 5
ENDMDL
MODEL 9
REMARK VINA RESULT:      -5.2     22.756     25.086
REMARK  Name = 5280445_Luteolin.pdbqt.pdb
REMARK  5 active torsions:
REMARK  status: ('A' for Active; 'I' for Inactive)
REMARK    1  A    between atoms: C_5  and  C_12
REMARK    2  A    between atoms: C_8  and  O_22
REMARK    3  A    between atoms: C_10  and  O_24
REMARK    4  A    between atoms: C_15  and  O_18
REMARK    5  A    between atoms: C_17  and  O_20
REMARK                            x       y       z     vdW  Elec       q    Type
REMARK                         _______ _______ _______ _____ _____    ______ ____
ROOT
ATOM      1  O   UNL     1      62.111 222.299 328.715  0.00  0.00    +0.000 OA
ATOM      2  O   UNL     1      63.320 225.595 326.572  0.00  0.00    +0.000 OA
ATOM      3  C   UNL     1      61.502 224.137 327.151  0.00  0.00    +0.000 A 
ATOM      4  C   UNL     1      61.189 222.992 327.925  0.00  0.00    +0.000 A 
ATOM      5  C   UNL     1      63.437 222.747 328.759  0.00  0.00    +0.000 A 
ATOM      6  C   UNL     1      62.893 224.629 327.179  0.00  0.00    +0.000 A 
ATOM      7  C   UNL     1      63.655 223.791 328.032  0.00  0.00    +0.000 A 
ATOM      8  C   UNL     1      60.521 224.771 326.390  0.00  0.00    +0.000 A 
ATOM      9  C   UNL     1      59.889 222.498 327.925  0.00  0.00    +0.000 A 
ATOM     10  C   UNL     1      58.919 223.142 327.159  0.00  0.00    +0.000 A 
ATOM     11  C   UNL     1      59.223 224.270 326.394  0.00  0.00    +0.000 A 
ENDROOT
BRANCH   5  12
ATOM     12  C   UNL     1      64.395 222.022 329.583  0.00  0.00    +0.000 A 
ATOM     13  C   UNL     1      64.017 221.521 330.832  0.00  0.00    +0.000 A 
ATOM     14  C   UNL     1      65.708 221.814 329.140  0.00  0.00    +0.000 A 
ATOM     15  C   UNL     1      64.939 220.833 331.611  0.00  0.00    +0.000 A 
ATOM     16  C   UNL     1      66.634 221.123 329.921  0.00  0.00    +0.000 A 
ATOM     17  C   UNL     1      66.238 220.634 331.159  0.00  0.00    +0.000 A 
BRANCH  15  18
ATOM     18  O   UNL     1      64.556 220.349 332.829  0.00  0.00    +0.000 OA
ATOM     19  H   UNL     1      65.391 220.179 333.310  0.00  0.00    +0.000 HD
ENDBRANCH  15  18
BRANCH  17  20
ATOM     20  O   UNL     1      67.108 219.949 331.963  0.00  0.00    +0.000 OA
ATOM     21  H   UNL     1      66.593 219.285 332.458  0.00  0.00    +0.000 HD
ENDBRANCH  17  20
ENDBRANCH   5  12
BRANCH   8  22
ATOM     22  O   UNL     1      60.763 225.877 325.623  0.00  0.00    +0.000 OA
ATOM     23  H   UNL     1      59.959 226.441 325.597  0.00  0.00    +0.000 HD
ENDBRANCH   8  22
BRANCH  10  24
ATOM     24  O   UNL     1      57.650 222.640 327.173  0.00  0.00    +0.000 OA
ATOM     25  H   UNL     1      57.212 222.896 326.341  0.00  0.00    +0.000 HD
ENDBRANCH  10  24
TORSDOF 5
ENDMDL
