MODEL 1
REMARK VINA RESULT:      -5.9      0.000      0.000
REMARK  Name = 5281239_Fucoxanthin.pdbqt.pdb
REMARK  19 active torsions:
REMARK  status: ('A' for Active; 'I' for Inactive)
REMARK    1  A    between atoms: C_1  and  C_5
REMARK    2  A    between atoms: C_2  and  C_26
REMARK    3  A    between atoms: C_3  and  C_5
REMARK    4  A    between atoms: C_3  and  C_7
REMARK    5  A    between atoms: C_6  and  C_10
REMARK    6  A    between atoms: C_8  and  C_10
REMARK    7  A    between atoms: C_8  and  C_12
REMARK    8  A    between atoms: C_12  and  C_13
REMARK    9  A    between atoms: C_13  and  C_15
REMARK   10  A    between atoms: C_20  and  O_24
REMARK   11  A    between atoms: C_26  and  C_27
REMARK   12  A    between atoms: C_27  and  C_30
REMARK   13  A    between atoms: C_29  and  C_33
REMARK   14  A    between atoms: C_31  and  C_33
REMARK   15  A    between atoms: C_31  and  C_44
REMARK   16  A    between atoms: C_35  and  O_45
REMARK   17  A    between atoms: C_37  and  O_47
REMARK   18  A    between atoms: C_39  and  C_43
REMARK   19  A    between atoms: O_47  and  C_49
REMARK                            x       y       z     vdW  Elec       q    Type
REMARK                         _______ _______ _______ _____ _____    ______ ____
ROOT
ATOM      1  C   UNL     1      61.520 249.371 328.261  0.00  0.00    +0.000 C 
ATOM      2  C   UNL     1      60.400 249.688 327.969  0.00  0.00    +0.000 C 
ENDROOT
BRANCH   2   3
ATOM      3  C   UNL     1      58.970 250.100 327.599  0.00  0.00    +0.000 C 
BRANCH   3   4
ATOM      4  C   UNL     1      57.763 250.452 327.286  0.00  0.00    +0.000 C 
ATOM      5  C   UNL     1      57.538 251.542 326.283  0.00  0.00    +0.000 C 
BRANCH   4   7
ATOM      6  C   UNL     1      55.722 249.197 328.337  0.00  0.00    +0.000 C 
ATOM      7  C   UNL     1      56.660 249.772 327.856  0.00  0.00    +0.000 C 
BRANCH   6   8
ATOM      8  C   UNL     1      54.522 248.464 328.948  0.00  0.00    +0.000 C 
BRANCH   8   9
ATOM      9  C   UNL     1      53.512 247.843 329.473  0.00  0.00    +0.000 C 
ATOM     10  C   UNL     1      53.069 248.168 330.867  0.00  0.00    +0.000 C 
BRANCH   9  12
ATOM     11  C   UNL     1      52.385 245.867 328.173  0.00  0.00    +0.000 C 
ATOM     12  C   UNL     1      52.900 246.774 328.772  0.00  0.00    +0.000 C 
BRANCH  11  18
ATOM     13  C   UNL     1      52.122 244.596 326.030  0.00  0.00    +0.000 C 
ATOM     14  C   UNL     1      50.785 243.980 328.174  0.00  0.00    +0.000 C 
ATOM     15  C   UNL     1      51.608 243.282 325.620  0.00  0.00    +0.000 C 
ATOM     16  C   UNL     1      50.836 242.228 326.144  0.00  0.00    +0.000 C 
ATOM     17  C   UNL     1      50.532 242.762 327.413  0.00  0.00    +0.000 C 
ATOM     18  C   UNL     1      51.820 244.876 327.512  0.00  0.00    +0.000 C 
ATOM     19  C   UNL     1      51.467 245.712 325.173  0.00  0.00    +0.000 C 
ATOM     20  C   UNL     1      53.666 244.600 325.814  0.00  0.00    +0.000 C 
ATOM     21  C   UNL     1      49.488 244.750 328.441  0.00  0.00    +0.000 C 
BRANCH  14  22
ATOM     22  O   UNL     1      51.250 243.600 329.450  0.00  0.00    +0.000 OA
ATOM     23  H   UNL     1      52.003 243.026 329.217  0.00  0.00    +0.000 HD
ENDBRANCH  14  22
BRANCH  16  24
ATOM     24  O   UNL     1      49.836 241.666 325.360  0.00  0.00    +0.000 OA
BRANCH  24  26
ATOM     25  O   UNL     1      49.952 239.626 326.512  0.00  0.00    +0.000 OA
ATOM     26  C   UNL     1      49.373 240.532 325.941  0.00  0.00    +0.000 C 
ATOM     27  C   UNL     1      47.898 240.361 325.854  0.00  0.00    +0.000 C 
ENDBRANCH  24  26
ENDBRANCH  16  24
ENDBRANCH  11  18
ENDBRANCH   9  12
ENDBRANCH   8   9
ENDBRANCH   6   8
ENDBRANCH   4   7
ENDBRANCH   3   4
ENDBRANCH   2   3
BRANCH   1  28
ATOM     28  C   UNL     1      62.952 248.974 328.639  0.00  0.00    +0.000 C 
BRANCH  28  29
ATOM     29  C   UNL     1      64.166 248.647 328.951  0.00  0.00    +0.000 C 
ATOM     30  C   UNL     1      65.308 249.528 328.545  0.00  0.00    +0.000 C 
BRANCH  29  32
ATOM     31  C   UNL     1      64.630 246.416 330.237  0.00  0.00    +0.000 C 
ATOM     32  C   UNL     1      64.413 247.436 329.641  0.00  0.00    +0.000 C 
BRANCH  31  33
ATOM     33  C   UNL     1      64.918 245.122 331.008  0.00  0.00    +0.000 C 
BRANCH  33  34
ATOM     34  C   UNL     1      65.155 244.021 331.656  0.00  0.00    +0.000 C 
ATOM     35  C   UNL     1      64.033 243.480 332.518  0.00  0.00    +0.000 C 
BRANCH  34  37
ATOM     36  O   UNL     1      67.061 242.890 332.551  0.00  0.00    +0.000 OA
ATOM     37  C   UNL     1      66.498 243.367 331.570  0.00  0.00    +0.000 C 
BRANCH  37  38
ATOM     38  C   UNL     1      67.196 243.265 330.311  0.00  0.00    +0.000 C 
BRANCH  38  40
ATOM     39  O   UNL     1      69.348 243.018 329.336  0.00  0.00    +0.000 OA
ATOM     40  C   UNL     1      67.927 243.167 329.062  0.00  0.00    +0.000 C 
ATOM     41  C   UNL     1      68.719 241.879 328.752  0.00  0.00    +0.000 C 
ATOM     42  C   UNL     1      67.538 244.102 327.862  0.00  0.00    +0.000 C 
ATOM     43  C   UNL     1      69.126 241.673 327.400  0.00  0.00    +0.000 C 
ATOM     44  C   UNL     1      68.223 243.583 326.676  0.00  0.00    +0.000 C 
ATOM     45  C   UNL     1      68.972 242.468 326.251  0.00  0.00    +0.000 C 
ATOM     46  C   UNL     1      68.709 240.654 329.671  0.00  0.00    +0.000 C 
ATOM     47  C   UNL     1      66.002 243.975 327.720  0.00  0.00    +0.000 C 
ATOM     48  C   UNL     1      67.978 245.525 328.272  0.00  0.00    +0.000 C 
BRANCH  45  49
ATOM     49  O   UNL     1      68.817 241.941 325.005  0.00  0.00    +0.000 OA
ATOM     50  H   UNL     1      69.421 241.196 324.839  0.00  0.00    +0.000 HD
ENDBRANCH  45  49
ENDBRANCH  38  40
ENDBRANCH  37  38
ENDBRANCH  34  37
ENDBRANCH  33  34
ENDBRANCH  31  33
ENDBRANCH  29  32
ENDBRANCH  28  29
ENDBRANCH   1  28
TORSDOF 19
ENDMDL
MODEL 2
REMARK VINA RESULT:      -5.3      6.467     11.005
REMARK  Name = 5281239_Fucoxanthin.pdbqt.pdb
REMARK  19 active torsions:
REMARK  status: ('A' for Active; 'I' for Inactive)
REMARK    1  A    between atoms: C_1  and  C_5
REMARK    2  A    between atoms: C_2  and  C_26
REMARK    3  A    between atoms: C_3  and  C_5
REMARK    4  A    between atoms: C_3  and  C_7
REMARK    5  A    between atoms: C_6  and  C_10
REMARK    6  A    between atoms: C_8  and  C_10
REMARK    7  A    between atoms: C_8  and  C_12
REMARK    8  A    between atoms: C_12  and  C_13
REMARK    9  A    between atoms: C_13  and  C_15
REMARK   10  A    between atoms: C_20  and  O_24
REMARK   11  A    between atoms: C_26  and  C_27
REMARK   12  A    between atoms: C_27  and  C_30
REMARK   13  A    between atoms: C_29  and  C_33
REMARK   14  A    between atoms: C_31  and  C_33
REMARK   15  A    between atoms: C_31  and  C_44
REMARK   16  A    between atoms: C_35  and  O_45
REMARK   17  A    between atoms: C_37  and  O_47
REMARK   18  A    between atoms: C_39  and  C_43
REMARK   19  A    between atoms: O_47  and  C_49
REMARK                            x       y       z     vdW  Elec       q    Type
REMARK                         _______ _______ _______ _____ _____    ______ ____
ROOT
ATOM      1  C   UNL     1      54.181 244.776 324.091  0.00  0.00    +0.000 C 
ATOM      2  C   UNL     1      53.491 244.247 324.919  0.00  0.00    +0.000 C 
ENDROOT
BRANCH   2   3
ATOM      3  C   UNL     1      52.614 243.575 325.982  0.00  0.00    +0.000 C 
BRANCH   3   4
ATOM      4  C   UNL     1      51.876 243.006 326.882  0.00  0.00    +0.000 C 
ATOM      5  C   UNL     1      52.342 242.950 328.305  0.00  0.00    +0.000 C 
BRANCH   4   7
ATOM      6  C   UNL     1      49.535 242.038 326.227  0.00  0.00    +0.000 C 
ATOM      7  C   UNL     1      50.609 242.483 326.529  0.00  0.00    +0.000 C 
BRANCH   6   8
ATOM      8  C   UNL     1      48.166 241.466 325.841  0.00  0.00    +0.000 C 
BRANCH   8   9
ATOM      9  C   UNL     1      47.013 240.979 325.506  0.00  0.00    +0.000 C 
ATOM     10  C   UNL     1      45.764 241.776 325.726  0.00  0.00    +0.000 C 
BRANCH   9  12
ATOM     11  C   UNL     1      46.849 238.510 324.642  0.00  0.00    +0.000 C 
ATOM     12  C   UNL     1      46.921 239.644 325.037  0.00  0.00    +0.000 C 
BRANCH  11  18
ATOM     13  C   UNL     1      47.837 236.655 323.279  0.00  0.00    +0.000 C 
ATOM     14  C   UNL     1      45.587 236.384 324.557  0.00  0.00    +0.000 C 
ATOM     15  C   UNL     1      47.684 235.196 323.186  0.00  0.00    +0.000 C 
ATOM     16  C   UNL     1      46.801 234.186 323.612  0.00  0.00    +0.000 C 
ATOM     17  C   UNL     1      45.839 234.975 324.276  0.00  0.00    +0.000 C 
ATOM     18  C   UNL     1      46.773 237.268 324.207  0.00  0.00    +0.000 C 
ATOM     19  C   UNL     1      47.693 237.294 321.872  0.00  0.00    +0.000 C 
ATOM     20  C   UNL     1      49.253 236.957 323.856  0.00  0.00    +0.000 C 
ATOM     21  C   UNL     1      44.315 236.873 323.857  0.00  0.00    +0.000 C 
BRANCH  14  22
ATOM     22  O   UNL     1      45.312 236.503 325.935  0.00  0.00    +0.000 OA
ATOM     23  H   UNL     1      44.522 235.939 326.024  0.00  0.00    +0.000 HD
ENDBRANCH  14  22
BRANCH  16  24
ATOM     24  O   UNL     1      46.406 233.207 322.710  0.00  0.00    +0.000 OA
BRANCH  24  26
ATOM     25  O   UNL     1      47.615 231.494 323.763  0.00  0.00    +0.000 OA
ATOM     26  C   UNL     1      47.228 232.133 322.802  0.00  0.00    +0.000 C 
ATOM     27  C   UNL     1      47.761 231.661 321.495  0.00  0.00    +0.000 C 
ENDBRANCH  24  26
ENDBRANCH  16  24
ENDBRANCH  11  18
ENDBRANCH   9  12
ENDBRANCH   8   9
ENDBRANCH   6   8
ENDBRANCH   4   7
ENDBRANCH   3   4
ENDBRANCH   2   3
BRANCH   1  28
ATOM     28  C   UNL     1      55.066 245.457 323.041  0.00  0.00    +0.000 C 
BRANCH  28  29
ATOM     29  C   UNL     1      55.806 246.031 322.146  0.00  0.00    +0.000 C 
ATOM     30  C   UNL     1      56.048 245.358 320.829  0.00  0.00    +0.000 C 
BRANCH  29  32
ATOM     31  C   UNL     1      56.939 248.333 322.660  0.00  0.00    +0.000 C 
ATOM     32  C   UNL     1      56.415 247.276 322.431  0.00  0.00    +0.000 C 
BRANCH  31  33
ATOM     33  C   UNL     1      57.615 249.681 322.937  0.00  0.00    +0.000 C 
BRANCH  33  34
ATOM     34  C   UNL     1      58.193 250.823 323.165  0.00  0.00    +0.000 C 
ATOM     35  C   UNL     1      57.622 252.031 322.451  0.00  0.00    +0.000 C 
BRANCH  34  37
ATOM     36  O   UNL     1      60.531 251.016 323.619  0.00  0.00    +0.000 OA
ATOM     37  C   UNL     1      59.391 250.900 324.057  0.00  0.00    +0.000 C 
BRANCH  37  38
ATOM     38  C   UNL     1      59.252 250.843 325.493  0.00  0.00    +0.000 C 
BRANCH  38  40
ATOM     39  O   UNL     1      58.081 251.772 327.340  0.00  0.00    +0.000 OA
ATOM     40  C   UNL     1      59.080 250.796 326.932  0.00  0.00    +0.000 C 
ATOM     41  C   UNL     1      57.704 250.408 327.515  0.00  0.00    +0.000 C 
ATOM     42  C   UNL     1      60.341 250.655 327.858  0.00  0.00    +0.000 C 
ATOM     43  C   UNL     1      57.660 250.033 328.891  0.00  0.00    +0.000 C 
ATOM     44  C   UNL     1      59.851 250.338 329.202  0.00  0.00    +0.000 C 
ATOM     45  C   UNL     1      58.664 249.984 329.874  0.00  0.00    +0.000 C 
ATOM     46  C   UNL     1      56.518 249.989 326.641  0.00  0.00    +0.000 C 
ATOM     47  C   UNL     1      61.156 249.479 327.269  0.00  0.00    +0.000 C 
ATOM     48  C   UNL     1      61.091 252.002 327.762  0.00  0.00    +0.000 C 
BRANCH  45  49
ATOM     49  O   UNL     1      58.665 249.069 330.882  0.00  0.00    +0.000 OA
ATOM     50  H   UNL     1      59.310 249.284 331.579  0.00  0.00    +0.000 HD
ENDBRANCH  45  49
ENDBRANCH  38  40
ENDBRANCH  37  38
ENDBRANCH  34  37
ENDBRANCH  33  34
ENDBRANCH  31  33
ENDBRANCH  29  32
ENDBRANCH  28  29
ENDBRANCH   1  28
TORSDOF 19
ENDMDL
MODEL 3
REMARK VINA RESULT:      -5.3      3.402     14.296
REMARK  Name = 5281239_Fucoxanthin.pdbqt.pdb
REMARK  19 active torsions:
REMARK  status: ('A' for Active; 'I' for Inactive)
REMARK    1  A    between atoms: C_1  and  C_5
REMARK    2  A    between atoms: C_2  and  C_26
REMARK    3  A    between atoms: C_3  and  C_5
REMARK    4  A    between atoms: C_3  and  C_7
REMARK    5  A    between atoms: C_6  and  C_10
REMARK    6  A    between atoms: C_8  and  C_10
REMARK    7  A    between atoms: C_8  and  C_12
REMARK    8  A    between atoms: C_12  and  C_13
REMARK    9  A    between atoms: C_13  and  C_15
REMARK   10  A    between atoms: C_20  and  O_24
REMARK   11  A    between atoms: C_26  and  C_27
REMARK   12  A    between atoms: C_27  and  C_30
REMARK   13  A    between atoms: C_29  and  C_33
REMARK   14  A    between atoms: C_31  and  C_33
REMARK   15  A    between atoms: C_31  and  C_44
REMARK   16  A    between atoms: C_35  and  O_45
REMARK   17  A    between atoms: C_37  and  O_47
REMARK   18  A    between atoms: C_39  and  C_43
REMARK   19  A    between atoms: O_47  and  C_49
REMARK                            x       y       z     vdW  Elec       q    Type
REMARK                         _______ _______ _______ _____ _____    ______ ____
ROOT
ATOM      1  C   UNL     1      58.977 250.729 326.063  0.00  0.00    +0.000 C 
ATOM      2  C   UNL     1      59.945 250.908 326.748  0.00  0.00    +0.000 C 
ENDROOT
BRANCH   2   3
ATOM      3  C   UNL     1      61.182 251.144 327.624  0.00  0.00    +0.000 C 
BRANCH   3   4
ATOM      4  C   UNL     1      62.229 251.342 328.361  0.00  0.00    +0.000 C 
ATOM      5  C   UNL     1      63.213 252.410 327.992  0.00  0.00    +0.000 C 
BRANCH   4   7
ATOM      6  C   UNL     1      62.569 249.941 330.545  0.00  0.00    +0.000 C 
ATOM      7  C   UNL     1      62.414 250.583 329.542  0.00  0.00    +0.000 C 
BRANCH   6   8
ATOM      8  C   UNL     1      62.762 249.122 331.826  0.00  0.00    +0.000 C 
BRANCH   8   9
ATOM      9  C   UNL     1      62.935 248.431 332.910  0.00  0.00    +0.000 C 
ATOM     10  C   UNL     1      62.308 248.875 334.195  0.00  0.00    +0.000 C 
BRANCH   9  12
ATOM     11  C   UNL     1      64.556 246.373 332.901  0.00  0.00    +0.000 C 
ATOM     12  C   UNL     1      63.814 247.319 332.903  0.00  0.00    +0.000 C 
BRANCH  11  18
ATOM     13  C   UNL     1      66.578 245.239 333.853  0.00  0.00    +0.000 C 
ATOM     14  C   UNL     1      65.191 244.193 331.917  0.00  0.00    +0.000 C 
ATOM     15  C   UNL     1      67.136 243.880 333.868  0.00  0.00    +0.000 C 
ATOM     16  C   UNL     1      66.965 242.649 333.206  0.00  0.00    +0.000 C 
ATOM     17  C   UNL     1      65.958 243.010 332.287  0.00  0.00    +0.000 C 
ATOM     18  C   UNL     1      65.370 245.336 332.903  0.00  0.00    +0.000 C 
ATOM     19  C   UNL     1      67.658 246.251 333.384  0.00  0.00    +0.000 C 
ATOM     20  C   UNL     1      66.117 245.589 335.301  0.00  0.00    +0.000 C 
ATOM     21  C   UNL     1      65.518 244.646 330.491  0.00  0.00    +0.000 C 
BRANCH  14  22
ATOM     22  O   UNL     1      63.830 243.826 331.878  0.00  0.00    +0.000 OA
ATOM     23  H   UNL     1      63.414 244.654 331.574  0.00  0.00    +0.000 HD
ENDBRANCH  14  22
BRANCH  16  24
ATOM     24  O   UNL     1      68.086 241.948 332.781  0.00  0.00    +0.000 OA
BRANCH  24  26
ATOM     25  O   UNL     1      67.833 239.678 332.244  0.00  0.00    +0.000 OA
ATOM     26  C   UNL     1      67.917 240.622 333.008  0.00  0.00    +0.000 C 
ATOM     27  C   UNL     1      67.802 240.261 334.447  0.00  0.00    +0.000 C 
ENDBRANCH  24  26
ENDBRANCH  16  24
ENDBRANCH  11  18
ENDBRANCH   9  12
ENDBRANCH   8   9
ENDBRANCH   6   8
ENDBRANCH   4   7
ENDBRANCH   3   4
ENDBRANCH   2   3
BRANCH   1  28
ATOM     28  C   UNL     1      57.737 250.510 325.188  0.00  0.00    +0.000 C 
BRANCH  28  29
ATOM     29  C   UNL     1      56.693 250.334 324.442  0.00  0.00    +0.000 C 
ATOM     30  C   UNL     1      55.648 251.404 324.351  0.00  0.00    +0.000 C 
BRANCH  29  32
ATOM     31  C   UNL     1      56.369 248.084 323.146  0.00  0.00    +0.000 C 
ATOM     32  C   UNL     1      56.523 249.113 323.745  0.00  0.00    +0.000 C 
BRANCH  31  33
ATOM     33  C   UNL     1      56.159 246.776 322.373  0.00  0.00    +0.000 C 
BRANCH  33  34
ATOM     34  C   UNL     1      55.985 245.663 321.725  0.00  0.00    +0.000 C 
ATOM     35  C   UNL     1      56.894 245.414 320.539  0.00  0.00    +0.000 C 
BRANCH  34  37
ATOM     36  O   UNL     1      54.657 243.689 321.499  0.00  0.00    +0.000 OA
ATOM     37  C   UNL     1      54.900 244.715 322.126  0.00  0.00    +0.000 C 
BRANCH  37  38
ATOM     38  C   UNL     1      54.083 244.971 323.288  0.00  0.00    +0.000 C 
BRANCH  38  40
ATOM     39  O   UNL     1      53.713 246.421 325.134  0.00  0.00    +0.000 OA
ATOM     40  C   UNL     1      53.236 245.238 324.435  0.00  0.00    +0.000 C 
ATOM     41  C   UNL     1      52.445 246.562 324.497  0.00  0.00    +0.000 C 
ATOM     42  C   UNL     1      52.747 244.043 325.331  0.00  0.00    +0.000 C 
ATOM     43  C   UNL     1      51.374 246.640 325.438  0.00  0.00    +0.000 C 
ATOM     44  C   UNL     1      51.694 244.567 326.204  0.00  0.00    +0.000 C 
ATOM     45  C   UNL     1      50.904 245.718 326.388  0.00  0.00    +0.000 C 
ATOM     46  C   UNL     1      52.448 247.588 323.359  0.00  0.00    +0.000 C 
ATOM     47  C   UNL     1      52.184 242.991 324.345  0.00  0.00    +0.000 C 
ATOM     48  C   UNL     1      53.998 243.538 326.083  0.00  0.00    +0.000 C 
BRANCH  45  49
ATOM     49  O   UNL     1      49.592 245.630 326.743  0.00  0.00    +0.000 OA
ATOM     50  H   UNL     1      49.267 246.443 327.170  0.00  0.00    +0.000 HD
ENDBRANCH  45  49
ENDBRANCH  38  40
ENDBRANCH  37  38
ENDBRANCH  34  37
ENDBRANCH  33  34
ENDBRANCH  31  33
ENDBRANCH  29  32
ENDBRANCH  28  29
ENDBRANCH   1  28
TORSDOF 19
ENDMDL
MODEL 4
REMARK VINA RESULT:      -5.2     29.155     34.550
REMARK  Name = 5281239_Fucoxanthin.pdbqt.pdb
REMARK  19 active torsions:
REMARK  status: ('A' for Active; 'I' for Inactive)
REMARK    1  A    between atoms: C_1  and  C_5
REMARK    2  A    between atoms: C_2  and  C_26
REMARK    3  A    between atoms: C_3  and  C_5
REMARK    4  A    between atoms: C_3  and  C_7
REMARK    5  A    between atoms: C_6  and  C_10
REMARK    6  A    between atoms: C_8  and  C_10
REMARK    7  A    between atoms: C_8  and  C_12
REMARK    8  A    between atoms: C_12  and  C_13
REMARK    9  A    between atoms: C_13  and  C_15
REMARK   10  A    between atoms: C_20  and  O_24
REMARK   11  A    between atoms: C_26  and  C_27
REMARK   12  A    between atoms: C_27  and  C_30
REMARK   13  A    between atoms: C_29  and  C_33
REMARK   14  A    between atoms: C_31  and  C_33
REMARK   15  A    between atoms: C_31  and  C_44
REMARK   16  A    between atoms: C_35  and  O_45
REMARK   17  A    between atoms: C_37  and  O_47
REMARK   18  A    between atoms: C_39  and  C_43
REMARK   19  A    between atoms: O_47  and  C_49
REMARK                            x       y       z     vdW  Elec       q    Type
REMARK                         _______ _______ _______ _____ _____    ______ ____
ROOT
ATOM      1  C   UNL     1      57.812 220.583 354.259  0.00  0.00    +0.000 C 
ATOM      2  C   UNL     1      57.922 219.492 353.771  0.00  0.00    +0.000 C 
ENDROOT
BRANCH   2   3
ATOM      3  C   UNL     1      58.062 218.096 353.153  0.00  0.00    +0.000 C 
BRANCH   3   4
ATOM      4  C   UNL     1      58.184 216.917 352.629  0.00  0.00    +0.000 C 
ATOM      5  C   UNL     1      56.966 216.083 352.372  0.00  0.00    +0.000 C 
BRANCH   4   7
ATOM      6  C   UNL     1      60.547 216.037 351.930  0.00  0.00    +0.000 C 
ATOM      7  C   UNL     1      59.463 216.440 352.253  0.00  0.00    +0.000 C 
BRANCH   6   8
ATOM      8  C   UNL     1      61.932 215.527 351.517  0.00  0.00    +0.000 C 
BRANCH   8   9
ATOM      9  C   UNL     1      63.103 215.100 351.158  0.00  0.00    +0.000 C 
ATOM     10  C   UNL     1      64.121 214.732 352.193  0.00  0.00    +0.000 C 
BRANCH   9  12
ATOM     11  C   UNL     1      63.755 215.083 348.621  0.00  0.00    +0.000 C 
ATOM     12  C   UNL     1      63.459 215.090 349.786  0.00  0.00    +0.000 C 
BRANCH  11  18
ATOM     13  C   UNL     1      63.312 214.227 346.307  0.00  0.00    +0.000 C 
ATOM     14  C   UNL     1      65.274 215.856 346.827  0.00  0.00    +0.000 C 
ATOM     15  C   UNL     1      63.669 214.615 344.936  0.00  0.00    +0.000 C 
ATOM     16  C   UNL     1      64.571 215.465 344.267  0.00  0.00    +0.000 C 
ATOM     17  C   UNL     1      65.268 215.990 345.375  0.00  0.00    +0.000 C 
ATOM     18  C   UNL     1      64.078 215.071 347.342  0.00  0.00    +0.000 C 
ATOM     19  C   UNL     1      63.652 212.731 346.541  0.00  0.00    +0.000 C 
ATOM     20  C   UNL     1      61.782 214.458 346.494  0.00  0.00    +0.000 C 
ATOM     21  C   UNL     1      66.586 215.242 347.325  0.00  0.00    +0.000 C 
BRANCH  14  22
ATOM     22  O   UNL     1      65.247 217.154 347.377  0.00  0.00    +0.000 OA
ATOM     23  H   UNL     1      65.385 216.965 348.324  0.00  0.00    +0.000 HD
ENDBRANCH  14  22
BRANCH  16  24
ATOM     24  O   UNL     1      65.264 214.982 343.165  0.00  0.00    +0.000 OA
BRANCH  24  26
ATOM     25  O   UNL     1      63.754 215.664 341.504  0.00  0.00    +0.000 OA
ATOM     26  C   UNL     1      64.845 215.615 342.041  0.00  0.00    +0.000 C 
ATOM     27  C   UNL     1      65.914 216.373 341.335  0.00  0.00    +0.000 C 
ENDBRANCH  24  26
ENDBRANCH  16  24
ENDBRANCH  11  18
ENDBRANCH   9  12
ENDBRANCH   8   9
ENDBRANCH   6   8
ENDBRANCH   4   7
ENDBRANCH   3   4
ENDBRANCH   2   3
BRANCH   1  28
ATOM     28  C   UNL     1      57.672 221.972 354.893  0.00  0.00    +0.000 C 
BRANCH  28  29
ATOM     29  C   UNL     1      57.543 223.142 355.433  0.00  0.00    +0.000 C 
ATOM     30  C   UNL     1      56.649 223.325 356.621  0.00  0.00    +0.000 C 
BRANCH  29  32
ATOM     31  C   UNL     1      58.785 225.193 354.385  0.00  0.00    +0.000 C 
ATOM     32  C   UNL     1      58.218 224.253 354.873  0.00  0.00    +0.000 C 
BRANCH  31  33
ATOM     33  C   UNL     1      59.504 226.387 353.747  0.00  0.00    +0.000 C 
BRANCH  33  34
ATOM     34  C   UNL     1      60.108 227.406 353.211  0.00  0.00    +0.000 C 
ATOM     35  C   UNL     1      59.249 228.369 352.417  0.00  0.00    +0.000 C 
BRANCH  34  37
ATOM     36  O   UNL     1      62.226 227.040 354.255  0.00  0.00    +0.000 OA
ATOM     37  C   UNL     1      61.588 227.567 353.349  0.00  0.00    +0.000 C 
BRANCH  37  38
ATOM     38  C   UNL     1      62.340 228.359 352.405  0.00  0.00    +0.000 C 
BRANCH  38  40
ATOM     39  O   UNL     1      64.490 229.216 351.869  0.00  0.00    +0.000 OA
ATOM     40  C   UNL     1      63.104 229.126 351.439  0.00  0.00    +0.000 C 
ATOM     41  C   UNL     1      64.269 228.447 350.688  0.00  0.00    +0.000 C 
ATOM     42  C   UNL     1      62.478 230.424 350.814  0.00  0.00    +0.000 C 
ATOM     43  C   UNL     1      64.761 229.101 349.519  0.00  0.00    +0.000 C 
ATOM     44  C   UNL     1      63.328 230.806 349.683  0.00  0.00    +0.000 C 
ATOM     45  C   UNL     1      64.401 230.317 348.913  0.00  0.00    +0.000 C 
ATOM     46  C   UNL     1      64.616 226.965 350.855  0.00  0.00    +0.000 C 
ATOM     47  C   UNL     1      61.065 230.013 350.336  0.00  0.00    +0.000 C 
ATOM     48  C   UNL     1      62.437 231.467 351.952  0.00  0.00    +0.000 C 
BRANCH  45  49
ATOM     49  O   UNL     1      64.458 230.515 347.567  0.00  0.00    +0.000 OA
ATOM     50  H   UNL     1      63.643 230.231 347.115  0.00  0.00    +0.000 HD
ENDBRANCH  45  49
ENDBRANCH  38  40
ENDBRANCH  37  38
ENDBRANCH  34  37
ENDBRANCH  33  34
ENDBRANCH  31  33
ENDBRANCH  29  32
ENDBRANCH  28  29
ENDBRANCH   1  28
TORSDOF 19
ENDMDL
MODEL 5
REMARK VINA RESULT:      -5.2     21.134     24.493
REMARK  Name = 5281239_Fucoxanthin.pdbqt.pdb
REMARK  19 active torsions:
REMARK  status: ('A' for Active; 'I' for Inactive)
REMARK    1  A    between atoms: C_1  and  C_5
REMARK    2  A    between atoms: C_2  and  C_26
REMARK    3  A    between atoms: C_3  and  C_5
REMARK    4  A    between atoms: C_3  and  C_7
REMARK    5  A    between atoms: C_6  and  C_10
REMARK    6  A    between atoms: C_8  and  C_10
REMARK    7  A    between atoms: C_8  and  C_12
REMARK    8  A    between atoms: C_12  and  C_13
REMARK    9  A    between atoms: C_13  and  C_15
REMARK   10  A    between atoms: C_20  and  O_24
REMARK   11  A    between atoms: C_26  and  C_27
REMARK   12  A    between atoms: C_27  and  C_30
REMARK   13  A    between atoms: C_29  and  C_33
REMARK   14  A    between atoms: C_31  and  C_33
REMARK   15  A    between atoms: C_31  and  C_44
REMARK   16  A    between atoms: C_35  and  O_45
REMARK   17  A    between atoms: C_37  and  O_47
REMARK   18  A    between atoms: C_39  and  C_43
REMARK   19  A    between atoms: O_47  and  C_49
REMARK                            x       y       z     vdW  Elec       q    Type
REMARK                         _______ _______ _______ _____ _____    ______ ____
ROOT
ATOM      1  C   UNL     1      41.854 236.973 338.788  0.00  0.00    +0.000 C 
ATOM      2  C   UNL     1      41.897 237.028 337.590  0.00  0.00    +0.000 C 
ENDROOT
BRANCH   2   3
ATOM      3  C   UNL     1      41.946 237.102 336.059  0.00  0.00    +0.000 C 
BRANCH   3   4
ATOM      4  C   UNL     1      41.988 237.161 334.765  0.00  0.00    +0.000 C 
ATOM      5  C   UNL     1      42.189 238.480 334.083  0.00  0.00    +0.000 C 
BRANCH   4   7
ATOM      6  C   UNL     1      41.814 234.964 333.355  0.00  0.00    +0.000 C 
ATOM      7  C   UNL     1      41.895 235.973 334.001  0.00  0.00    +0.000 C 
BRANCH   6   8
ATOM      8  C   UNL     1      41.707 233.675 332.532  0.00  0.00    +0.000 C 
BRANCH   8   9
ATOM      9  C   UNL     1      41.609 232.581 331.843  0.00  0.00    +0.000 C 
ATOM     10  C   UNL     1      41.186 232.631 330.406  0.00  0.00    +0.000 C 
BRANCH   9  12
ATOM     11  C   UNL     1      41.937 230.262 333.017  0.00  0.00    +0.000 C 
ATOM     12  C   UNL     1      41.789 231.328 332.480  0.00  0.00    +0.000 C 
BRANCH  11  18
ATOM     13  C   UNL     1      40.915 228.149 333.893  0.00  0.00    +0.000 C 
ATOM     14  C   UNL     1      43.462 228.640 334.096  0.00  0.00    +0.000 C 
ATOM     15  C   UNL     1      41.386 226.810 334.276  0.00  0.00    +0.000 C 
ATOM     16  C   UNL     1      42.594 226.143 334.555  0.00  0.00    +0.000 C 
ATOM     17  C   UNL     1      43.498 227.215 334.407  0.00  0.00    +0.000 C 
ATOM     18  C   UNL     1      42.095 229.095 333.608  0.00  0.00    +0.000 C 
ATOM     19  C   UNL     1      40.059 228.757 335.036  0.00  0.00    +0.000 C 
ATOM     20  C   UNL     1      40.052 228.008 332.602  0.00  0.00    +0.000 C 
ATOM     21  C   UNL     1      43.924 229.483 335.289  0.00  0.00    +0.000 C 
BRANCH  14  22
ATOM     22  O   UNL     1      44.417 228.882 333.088  0.00  0.00    +0.000 OA
ATOM     23  H   UNL     1      45.133 229.305 333.597  0.00  0.00    +0.000 HD
ENDBRANCH  14  22
BRANCH  16  24
ATOM     24  O   UNL     1      42.666 225.311 335.665  0.00  0.00    +0.000 OA
BRANCH  24  26
ATOM     25  O   UNL     1      44.538 223.904 335.813  0.00  0.00    +0.000 OA
ATOM     26  C   UNL     1      43.447 224.237 335.389  0.00  0.00    +0.000 C 
ATOM     27  C   UNL     1      42.870 223.309 334.378  0.00  0.00    +0.000 C 
ENDBRANCH  24  26
ENDBRANCH  16  24
ENDBRANCH  11  18
ENDBRANCH   9  12
ENDBRANCH   8   9
ENDBRANCH   6   8
ENDBRANCH   4   7
ENDBRANCH   3   4
ENDBRANCH   2   3
BRANCH   1  28
ATOM     28  C   UNL     1      41.792 236.909 340.318  0.00  0.00    +0.000 C 
BRANCH  28  29
ATOM     29  C   UNL     1      41.738 236.844 341.611  0.00  0.00    +0.000 C 
ATOM     30  C   UNL     1      40.947 235.759 342.275  0.00  0.00    +0.000 C 
BRANCH  29  32
ATOM     31  C   UNL     1      42.944 238.657 343.061  0.00  0.00    +0.000 C 
ATOM     32  C   UNL     1      42.398 237.823 342.392  0.00  0.00    +0.000 C 
BRANCH  31  33
ATOM     33  C   UNL     1      43.628 239.728 343.920  0.00  0.00    +0.000 C 
BRANCH  33  34
ATOM     34  C   UNL     1      44.199 240.637 344.653  0.00  0.00    +0.000 C 
ATOM     35  C   UNL     1      44.069 242.072 344.186  0.00  0.00    +0.000 C 
BRANCH  34  37
ATOM     36  O   UNL     1      45.403 241.075 346.671  0.00  0.00    +0.000 OA
ATOM     37  C   UNL     1      44.980 240.248 345.868  0.00  0.00    +0.000 C 
BRANCH  37  38
ATOM     38  C   UNL     1      45.271 238.863 346.153  0.00  0.00    +0.000 C 
BRANCH  38  40
ATOM     39  O   UNL     1      44.935 237.098 347.707  0.00  0.00    +0.000 OA
ATOM     40  C   UNL     1      45.585 237.482 346.464  0.00  0.00    +0.000 C 
ATOM     41  C   UNL     1      44.442 236.447 346.537  0.00  0.00    +0.000 C 
ATOM     42  C   UNL     1      47.048 236.953 346.245  0.00  0.00    +0.000 C 
ATOM     43  C   UNL     1      44.807 235.067 346.494  0.00  0.00    +0.000 C 
ATOM     44  C   UNL     1      46.994 235.493 346.351  0.00  0.00    +0.000 C 
ATOM     45  C   UNL     1      46.063 234.440 346.434  0.00  0.00    +0.000 C 
ATOM     46  C   UNL     1      42.985 236.792 346.219  0.00  0.00    +0.000 C 
ATOM     47  C   UNL     1      47.437 237.395 344.814  0.00  0.00    +0.000 C 
ATOM     48  C   UNL     1      47.912 237.633 347.330  0.00  0.00    +0.000 C 
BRANCH  45  49
ATOM     49  O   UNL     1      46.266 233.259 345.787  0.00  0.00    +0.000 OA
ATOM     50  H   UNL     1      45.640 233.124 345.054  0.00  0.00    +0.000 HD
ENDBRANCH  45  49
ENDBRANCH  38  40
ENDBRANCH  37  38
ENDBRANCH  34  37
ENDBRANCH  33  34
ENDBRANCH  31  33
ENDBRANCH  29  32
ENDBRANCH  28  29
ENDBRANCH   1  28
TORSDOF 19
ENDMDL
MODEL 6
REMARK VINA RESULT:      -5.2     20.251     26.333
REMARK  Name = 5281239_Fucoxanthin.pdbqt.pdb
REMARK  19 active torsions:
REMARK  status: ('A' for Active; 'I' for Inactive)
REMARK    1  A    between atoms: C_1  and  C_5
REMARK    2  A    between atoms: C_2  and  C_26
REMARK    3  A    between atoms: C_3  and  C_5
REMARK    4  A    between atoms: C_3  and  C_7
REMARK    5  A    between atoms: C_6  and  C_10
REMARK    6  A    between atoms: C_8  and  C_10
REMARK    7  A    between atoms: C_8  and  C_12
REMARK    8  A    between atoms: C_12  and  C_13
REMARK    9  A    between atoms: C_13  and  C_15
REMARK   10  A    between atoms: C_20  and  O_24
REMARK   11  A    between atoms: C_26  and  C_27
REMARK   12  A    between atoms: C_27  and  C_30
REMARK   13  A    between atoms: C_29  and  C_33
REMARK   14  A    between atoms: C_31  and  C_33
REMARK   15  A    between atoms: C_31  and  C_44
REMARK   16  A    between atoms: C_35  and  O_45
REMARK   17  A    between atoms: C_37  and  O_47
REMARK   18  A    between atoms: C_39  and  C_43
REMARK   19  A    between atoms: O_47  and  C_49
REMARK                            x       y       z     vdW  Elec       q    Type
REMARK                         _______ _______ _______ _____ _____    ______ ____
ROOT
ATOM      1  C   UNL     1      43.598 232.057 344.425  0.00  0.00    +0.000 C 
ATOM      2  C   UNL     1      42.996 232.540 343.507  0.00  0.00    +0.000 C 
ENDROOT
BRANCH   2   3
ATOM      3  C   UNL     1      42.232 233.159 342.330  0.00  0.00    +0.000 C 
BRANCH   3   4
ATOM      4  C   UNL     1      41.586 233.679 341.334  0.00  0.00    +0.000 C 
ATOM      5  C   UNL     1      40.573 232.862 340.592  0.00  0.00    +0.000 C 
BRANCH   4   7
ATOM      6  C   UNL     1      41.985 236.182 340.681  0.00  0.00    +0.000 C 
ATOM      7  C   UNL     1      41.802 235.033 340.983  0.00  0.00    +0.000 C 
BRANCH   6   8
ATOM      8  C   UNL     1      42.213 237.647 340.295  0.00  0.00    +0.000 C 
BRANCH   8   9
ATOM      9  C   UNL     1      42.416 238.885 339.967  0.00  0.00    +0.000 C 
ATOM     10  C   UNL     1      41.895 239.416 338.666  0.00  0.00    +0.000 C 
BRANCH   9  12
ATOM     11  C   UNL     1      43.926 240.399 341.482  0.00  0.00    +0.000 C 
ATOM     12  C   UNL     1      43.230 239.706 340.786  0.00  0.00    +0.000 C 
BRANCH  11  18
ATOM     13  C   UNL     1      45.999 240.642 342.868  0.00  0.00    +0.000 C 
ATOM     14  C   UNL     1      44.274 242.573 342.610  0.00  0.00    +0.000 C 
ATOM     15  C   UNL     1      46.795 241.747 343.419  0.00  0.00    +0.000 C 
ATOM     16  C   UNL     1      46.687 243.133 343.640  0.00  0.00    +0.000 C 
ATOM     17  C   UNL     1      45.376 243.348 343.169  0.00  0.00    +0.000 C 
ATOM     18  C   UNL     1      44.687 241.154 342.248  0.00  0.00    +0.000 C 
ATOM     19  C   UNL     1      45.651 239.628 343.991  0.00  0.00    +0.000 C 
ATOM     20  C   UNL     1      46.844 239.939 341.763  0.00  0.00    +0.000 C 
ATOM     21  C   UNL     1      43.064 242.566 343.549  0.00  0.00    +0.000 C 
BRANCH  14  22
ATOM     22  O   UNL     1      43.830 243.236 341.448  0.00  0.00    +0.000 OA
ATOM     23  H   UNL     1      44.660 243.320 340.944  0.00  0.00    +0.000 HD
ENDBRANCH  14  22
BRANCH  16  24
ATOM     24  O   UNL     1      47.090 243.657 344.861  0.00  0.00    +0.000 OA
BRANCH  24  26
ATOM     25  O   UNL     1      47.443 245.972 345.013  0.00  0.00    +0.000 OA
ATOM     26  C   UNL     1      47.728 244.839 344.671  0.00  0.00    +0.000 C 
ATOM     27  C   UNL     1      48.994 244.729 343.897  0.00  0.00    +0.000 C 
ENDBRANCH  24  26
ENDBRANCH  16  24
ENDBRANCH  11  18
ENDBRANCH   9  12
ENDBRANCH   8   9
ENDBRANCH   6   8
ENDBRANCH   4   7
ENDBRANCH   3   4
ENDBRANCH   2   3
BRANCH   1  28
ATOM     28  C   UNL     1      44.377 231.444 345.595  0.00  0.00    +0.000 C 
BRANCH  28  29
ATOM     29  C   UNL     1      45.031 230.935 346.590  0.00  0.00    +0.000 C 
ATOM     30  C   UNL     1      45.765 231.830 347.542  0.00  0.00    +0.000 C 
BRANCH  29  32
ATOM     31  C   UNL     1      45.137 228.339 346.900  0.00  0.00    +0.000 C 
ATOM     32  C   UNL     1      45.082 229.530 346.753  0.00  0.00    +0.000 C 
BRANCH  31  33
ATOM     33  C   UNL     1      45.221 226.820 347.096  0.00  0.00    +0.000 C 
BRANCH  33  34
ATOM     34  C   UNL     1      45.283 225.532 347.259  0.00  0.00    +0.000 C 
ATOM     35  C   UNL     1      45.748 225.038 348.614  0.00  0.00    +0.000 C 
BRANCH  34  37
ATOM     36  O   UNL     1      44.165 223.673 346.256  0.00  0.00    +0.000 OA
ATOM     37  C   UNL     1      44.949 224.609 346.131  0.00  0.00    +0.000 C 
BRANCH  37  38
ATOM     38  C   UNL     1      45.543 224.786 344.827  0.00  0.00    +0.000 C 
BRANCH  38  40
ATOM     39  O   UNL     1      47.176 223.990 343.296  0.00  0.00    +0.000 OA
ATOM     40  C   UNL     1      46.150 224.995 343.527  0.00  0.00    +0.000 C 
ATOM     41  C   UNL     1      46.030 223.893 342.452  0.00  0.00    +0.000 C 
ATOM     42  C   UNL     1      46.480 226.456 343.053  0.00  0.00    +0.000 C 
ATOM     43  C   UNL     1      46.321 224.261 341.104  0.00  0.00    +0.000 C 
ATOM     44  C   UNL     1      46.794 226.381 341.624  0.00  0.00    +0.000 C 
ATOM     45  C   UNL     1      46.751 225.476 340.545  0.00  0.00    +0.000 C 
ATOM     46  C   UNL     1      45.227 222.606 342.665  0.00  0.00    +0.000 C 
ATOM     47  C   UNL     1      45.187 227.272 343.298  0.00  0.00    +0.000 C 
ATOM     48  C   UNL     1      47.656 226.932 343.933  0.00  0.00    +0.000 C 
BRANCH  45  49
ATOM     49  O   UNL     1      46.394 225.879 339.294  0.00  0.00    +0.000 OA
ATOM     50  H   UNL     1      45.897 226.716 339.301  0.00  0.00    +0.000 HD
ENDBRANCH  45  49
ENDBRANCH  38  40
ENDBRANCH  37  38
ENDBRANCH  34  37
ENDBRANCH  33  34
ENDBRANCH  31  33
ENDBRANCH  29  32
ENDBRANCH  28  29
ENDBRANCH   1  28
TORSDOF 19
ENDMDL
MODEL 7
REMARK VINA RESULT:      -5.2     21.331     25.261
REMARK  Name = 5281239_Fucoxanthin.pdbqt.pdb
REMARK  19 active torsions:
REMARK  status: ('A' for Active; 'I' for Inactive)
REMARK    1  A    between atoms: C_1  and  C_5
REMARK    2  A    between atoms: C_2  and  C_26
REMARK    3  A    between atoms: C_3  and  C_5
REMARK    4  A    between atoms: C_3  and  C_7
REMARK    5  A    between atoms: C_6  and  C_10
REMARK    6  A    between atoms: C_8  and  C_10
REMARK    7  A    between atoms: C_8  and  C_12
REMARK    8  A    between atoms: C_12  and  C_13
REMARK    9  A    between atoms: C_13  and  C_15
REMARK   10  A    between atoms: C_20  and  O_24
REMARK   11  A    between atoms: C_26  and  C_27
REMARK   12  A    between atoms: C_27  and  C_30
REMARK   13  A    between atoms: C_29  and  C_33
REMARK   14  A    between atoms: C_31  and  C_33
REMARK   15  A    between atoms: C_31  and  C_44
REMARK   16  A    between atoms: C_35  and  O_45
REMARK   17  A    between atoms: C_37  and  O_47
REMARK   18  A    between atoms: C_39  and  C_43
REMARK   19  A    between atoms: O_47  and  C_49
REMARK                            x       y       z     vdW  Elec       q    Type
REMARK                         _______ _______ _______ _____ _____    ______ ____
ROOT
ATOM      1  C   UNL     1      41.968 237.187 338.507  0.00  0.00    +0.000 C 
ATOM      2  C   UNL     1      41.946 237.192 337.307  0.00  0.00    +0.000 C 
ENDROOT
BRANCH   2   3
ATOM      3  C   UNL     1      41.910 237.201 335.774  0.00  0.00    +0.000 C 
BRANCH   3   4
ATOM      4  C   UNL     1      41.881 237.204 334.478  0.00  0.00    +0.000 C 
ATOM      5  C   UNL     1      41.972 238.501 333.732  0.00  0.00    +0.000 C 
BRANCH   4   7
ATOM      6  C   UNL     1      41.758 234.940 333.172  0.00  0.00    +0.000 C 
ATOM      7  C   UNL     1      41.815 235.981 333.771  0.00  0.00    +0.000 C 
BRANCH   6   8
ATOM      8  C   UNL     1      41.681 233.612 332.411  0.00  0.00    +0.000 C 
BRANCH   8   9
ATOM      9  C   UNL     1      41.606 232.487 331.772  0.00  0.00    +0.000 C 
ATOM     10  C   UNL     1      41.214 232.465 330.327  0.00  0.00    +0.000 C 
BRANCH   9  12
ATOM     11  C   UNL     1      41.929 230.228 333.061  0.00  0.00    +0.000 C 
ATOM     12  C   UNL     1      41.783 231.267 332.471  0.00  0.00    +0.000 C 
BRANCH  11  18
ATOM     13  C   UNL     1      40.902 228.164 334.042  0.00  0.00    +0.000 C 
ATOM     14  C   UNL     1      43.451 228.656 334.216  0.00  0.00    +0.000 C 
ATOM     15  C   UNL     1      41.370 226.844 334.489  0.00  0.00    +0.000 C 
ATOM     16  C   UNL     1      42.576 226.188 334.799  0.00  0.00    +0.000 C 
ATOM     17  C   UNL     1      43.483 227.248 334.596  0.00  0.00    +0.000 C 
ATOM     18  C   UNL     1      42.085 229.091 333.708  0.00  0.00    +0.000 C 
ATOM     19  C   UNL     1      40.051 228.830 335.155  0.00  0.00    +0.000 C 
ATOM     20  C   UNL     1      40.036 227.962 332.761  0.00  0.00    +0.000 C 
ATOM     21  C   UNL     1      43.918 229.555 335.364  0.00  0.00    +0.000 C 
BRANCH  14  22
ATOM     22  O   UNL     1      44.405 228.845 333.195  0.00  0.00    +0.000 OA
ATOM     23  H   UNL     1      45.123 229.290 333.681  0.00  0.00    +0.000 HD
ENDBRANCH  14  22
BRANCH  16  24
ATOM     24  O   UNL     1      42.648 225.411 335.948  0.00  0.00    +0.000 OA
BRANCH  24  26
ATOM     25  O   UNL     1      44.421 224.055 335.227  0.00  0.00    +0.000 OA
ATOM     26  C   UNL     1      43.851 224.790 336.013  0.00  0.00    +0.000 C 
ATOM     27  C   UNL     1      44.600 225.043 337.273  0.00  0.00    +0.000 C 
ENDBRANCH  24  26
ENDBRANCH  16  24
ENDBRANCH  11  18
ENDBRANCH   9  12
ENDBRANCH   8   9
ENDBRANCH   6   8
ENDBRANCH   4   7
ENDBRANCH   3   4
ENDBRANCH   2   3
BRANCH   1  28
ATOM     28  C   UNL     1      41.987 237.183 340.040  0.00  0.00    +0.000 C 
BRANCH  28  29
ATOM     29  C   UNL     1      42.009 237.190 341.335  0.00  0.00    +0.000 C 
ATOM     30  C   UNL     1      42.071 238.490 342.077  0.00  0.00    +0.000 C 
BRANCH  29  32
ATOM     31  C   UNL     1      42.029 234.930 342.653  0.00  0.00    +0.000 C 
ATOM     32  C   UNL     1      42.013 235.965 342.045  0.00  0.00    +0.000 C 
BRANCH  31  33
ATOM     33  C   UNL     1      42.063 233.612 343.437  0.00  0.00    +0.000 C 
BRANCH  33  34
ATOM     34  C   UNL     1      42.101 232.496 344.102  0.00  0.00    +0.000 C 
ATOM     35  C   UNL     1      41.524 231.274 343.417  0.00  0.00    +0.000 C 
BRANCH  34  37
ATOM     36  O   UNL     1      42.282 231.640 346.326  0.00  0.00    +0.000 OA
ATOM     37  C   UNL     1      42.651 232.461 345.492  0.00  0.00    +0.000 C 
BRANCH  37  38
ATOM     38  C   UNL     1      43.658 233.405 345.916  0.00  0.00    +0.000 C 
BRANCH  38  40
ATOM     39  O   UNL     1      45.084 235.169 345.211  0.00  0.00    +0.000 OA
ATOM     40  C   UNL     1      44.694 234.331 346.333  0.00  0.00    +0.000 C 
ATOM     41  C   UNL     1      44.418 235.848 346.274  0.00  0.00    +0.000 C 
ATOM     42  C   UNL     1      45.851 233.827 347.268  0.00  0.00    +0.000 C 
ATOM     43  C   UNL     1      45.298 236.701 347.004  0.00  0.00    +0.000 C 
ATOM     44  C   UNL     1      46.556 235.015 347.754  0.00  0.00    +0.000 C 
ATOM     45  C   UNL     1      46.442 236.419 347.771  0.00  0.00    +0.000 C 
ATOM     46  C   UNL     1      43.062 236.433 345.865  0.00  0.00    +0.000 C 
ATOM     47  C   UNL     1      45.149 233.080 348.429  0.00  0.00    +0.000 C 
ATOM     48  C   UNL     1      46.719 232.888 346.401  0.00  0.00    +0.000 C 
BRANCH  45  49
ATOM     49  O   UNL     1      46.793 237.147 348.867  0.00  0.00    +0.000 OA
ATOM     50  H   UNL     1      47.144 238.024 348.633  0.00  0.00    +0.000 HD
ENDBRANCH  45  49
ENDBRANCH  38  40
ENDBRANCH  37  38
ENDBRANCH  34  37
ENDBRANCH  33  34
ENDBRANCH  31  33
ENDBRANCH  29  32
ENDBRANCH  28  29
ENDBRANCH   1  28
TORSDOF 19
ENDMDL
MODEL 8
REMARK VINA RESULT:      -5.2      9.491     14.514
REMARK  Name = 5281239_Fucoxanthin.pdbqt.pdb
REMARK  19 active torsions:
REMARK  status: ('A' for Active; 'I' for Inactive)
REMARK    1  A    between atoms: C_1  and  C_5
REMARK    2  A    between atoms: C_2  and  C_26
REMARK    3  A    between atoms: C_3  and  C_5
REMARK    4  A    between atoms: C_3  and  C_7
REMARK    5  A    between atoms: C_6  and  C_10
REMARK    6  A    between atoms: C_8  and  C_10
REMARK    7  A    between atoms: C_8  and  C_12
REMARK    8  A    between atoms: C_12  and  C_13
REMARK    9  A    between atoms: C_13  and  C_15
REMARK   10  A    between atoms: C_20  and  O_24
REMARK   11  A    between atoms: C_26  and  C_27
REMARK   12  A    between atoms: C_27  and  C_30
REMARK   13  A    between atoms: C_29  and  C_33
REMARK   14  A    between atoms: C_31  and  C_33
REMARK   15  A    between atoms: C_31  and  C_44
REMARK   16  A    between atoms: C_35  and  O_45
REMARK   17  A    between atoms: C_37  and  O_47
REMARK   18  A    between atoms: C_39  and  C_43
REMARK   19  A    between atoms: O_47  and  C_49
REMARK                            x       y       z     vdW  Elec       q    Type
REMARK                         _______ _______ _______ _____ _____    ______ ____
ROOT
ATOM      1  C   UNL     1      53.421 243.200 321.601  0.00  0.00    +0.000 C 
ATOM      2  C   UNL     1      52.773 242.269 321.210  0.00  0.00    +0.000 C 
ENDROOT
BRANCH   2   3
ATOM      3  C   UNL     1      51.943 241.083 320.705  0.00  0.00    +0.000 C 
BRANCH   3   4
ATOM      4  C   UNL     1      51.237 240.082 320.280  0.00  0.00    +0.000 C 
ATOM      5  C   UNL     1      51.146 239.802 318.811  0.00  0.00    +0.000 C 
BRANCH   4   7
ATOM      6  C   UNL     1      50.052 238.502 321.996  0.00  0.00    +0.000 C 
ATOM      7  C   UNL     1      50.596 239.226 321.207  0.00  0.00    +0.000 C 
BRANCH   6   8
ATOM      8  C   UNL     1      49.353 237.582 323.003  0.00  0.00    +0.000 C 
BRANCH   8   9
ATOM      9  C   UNL     1      48.766 236.795 323.849  0.00  0.00    +0.000 C 
ATOM     10  C   UNL     1      48.924 237.018 325.322  0.00  0.00    +0.000 C 
BRANCH   9  12
ATOM     11  C   UNL     1      47.471 234.686 322.987  0.00  0.00    +0.000 C 
ATOM     12  C   UNL     1      48.068 235.653 323.382  0.00  0.00    +0.000 C 
BRANCH  11  18
ATOM     13  C   UNL     1      46.287 233.510 321.117  0.00  0.00    +0.000 C 
ATOM     14  C   UNL     1      46.494 232.470 323.493  0.00  0.00    +0.000 C 
ATOM     15  C   UNL     1      45.868 232.136 320.813  0.00  0.00    +0.000 C 
ATOM     16  C   UNL     1      45.712 230.898 321.465  0.00  0.00    +0.000 C 
ATOM     17  C   UNL     1      46.076 231.271 322.775  0.00  0.00    +0.000 C 
ATOM     18  C   UNL     1      46.816 233.626 322.558  0.00  0.00    +0.000 C 
ATOM     19  C   UNL     1      45.086 234.480 320.953  0.00  0.00    +0.000 C 
ATOM     20  C   UNL     1      47.424 233.901 320.125  0.00  0.00    +0.000 C 
ATOM     21  C   UNL     1      45.454 232.886 324.538  0.00  0.00    +0.000 C 
BRANCH  14  22
ATOM     22  O   UNL     1      47.646 232.143 324.238  0.00  0.00    +0.000 OA
ATOM     23  H   UNL     1      47.615 231.169 324.225  0.00  0.00    +0.000 HD
ENDBRANCH  14  22
BRANCH  16  24
ATOM     24  O   UNL     1      44.560 230.155 321.241  0.00  0.00    +0.000 OA
BRANCH  24  26
ATOM     25  O   UNL     1      45.355 228.055 321.920  0.00  0.00    +0.000 OA
ATOM     26  C   UNL     1      44.599 229.008 321.963  0.00  0.00    +0.000 C 
ATOM     27  C   UNL     1      43.519 228.892 322.980  0.00  0.00    +0.000 C 
ENDBRANCH  24  26
ENDBRANCH  16  24
ENDBRANCH  11  18
ENDBRANCH   9  12
ENDBRANCH   8   9
ENDBRANCH   6   8
ENDBRANCH   4   7
ENDBRANCH   3   4
ENDBRANCH   2   3
BRANCH   1  28
ATOM     28  C   UNL     1      54.246 244.395 322.093  0.00  0.00    +0.000 C 
BRANCH  28  29
ATOM     29  C   UNL     1      54.938 245.404 322.518  0.00  0.00    +0.000 C 
ATOM     30  C   UNL     1      56.165 245.838 321.777  0.00  0.00    +0.000 C 
BRANCH  29  32
ATOM     31  C   UNL     1      54.213 246.641 324.707  0.00  0.00    +0.000 C 
ATOM     32  C   UNL     1      54.552 246.071 323.706  0.00  0.00    +0.000 C 
BRANCH  31  33
ATOM     33  C   UNL     1      53.767 247.375 325.977  0.00  0.00    +0.000 C 
BRANCH  33  34
ATOM     34  C   UNL     1      53.380 247.997 327.052  0.00  0.00    +0.000 C 
ATOM     35  C   UNL     1      53.570 249.500 327.077  0.00  0.00    +0.000 C 
BRANCH  34  37
ATOM     36  O   UNL     1      52.944 247.612 329.369  0.00  0.00    +0.000 OA
ATOM     37  C   UNL     1      52.822 247.232 328.209  0.00  0.00    +0.000 C 
BRANCH  37  38
ATOM     38  C   UNL     1      52.102 245.997 328.005  0.00  0.00    +0.000 C 
BRANCH  38  40
ATOM     39  O   UNL     1      51.553 243.863 328.893  0.00  0.00    +0.000 OA
ATOM     40  C   UNL     1      51.373 244.766 327.767  0.00  0.00    +0.000 C 
ATOM     41  C   UNL     1      50.230 244.369 328.726  0.00  0.00    +0.000 C 
ATOM     42  C   UNL     1      51.397 244.117 326.337  0.00  0.00    +0.000 C 
ATOM     43  C   UNL     1      49.322 243.364 328.278  0.00  0.00    +0.000 C 
ATOM     44  C   UNL     1      50.359 243.084 326.320  0.00  0.00    +0.000 C 
ATOM     45  C   UNL     1      49.286 242.604 327.096  0.00  0.00    +0.000 C 
ATOM     46  C   UNL     1      49.769 245.258 329.885  0.00  0.00    +0.000 C 
ATOM     47  C   UNL     1      51.057 245.266 325.356  0.00  0.00    +0.000 C 
ATOM     48  C   UNL     1      52.830 243.575 326.140  0.00  0.00    +0.000 C 
BRANCH  45  49
ATOM     49  O   UNL     1      48.123 242.190 326.521  0.00  0.00    +0.000 OA
ATOM     50  H   UNL     1      47.799 241.353 326.900  0.00  0.00    +0.000 HD
ENDBRANCH  45  49
ENDBRANCH  38  40
ENDBRANCH  37  38
ENDBRANCH  34  37
ENDBRANCH  33  34
ENDBRANCH  31  33
ENDBRANCH  29  32
ENDBRANCH  28  29
ENDBRANCH   1  28
TORSDOF 19
ENDMDL
MODEL 9
REMARK VINA RESULT:      -5.1     24.013     30.803
REMARK  Name = 5281239_Fucoxanthin.pdbqt.pdb
REMARK  19 active torsions:
REMARK  status: ('A' for Active; 'I' for Inactive)
REMARK    1  A    between atoms: C_1  and  C_5
REMARK    2  A    between atoms: C_2  and  C_26
REMARK    3  A    between atoms: C_3  and  C_5
REMARK    4  A    between atoms: C_3  and  C_7
REMARK    5  A    between atoms: C_6  and  C_10
REMARK    6  A    between atoms: C_8  and  C_10
REMARK    7  A    between atoms: C_8  and  C_12
REMARK    8  A    between atoms: C_12  and  C_13
REMARK    9  A    between atoms: C_13  and  C_15
REMARK   10  A    between atoms: C_20  and  O_24
REMARK   11  A    between atoms: C_26  and  C_27
REMARK   12  A    between atoms: C_27  and  C_30
REMARK   13  A    between atoms: C_29  and  C_33
REMARK   14  A    between atoms: C_31  and  C_33
REMARK   15  A    between atoms: C_31  and  C_44
REMARK   16  A    between atoms: C_35  and  O_45
REMARK   17  A    between atoms: C_37  and  O_47
REMARK   18  A    between atoms: C_39  and  C_43
REMARK   19  A    between atoms: O_47  and  C_49
REMARK                            x       y       z     vdW  Elec       q    Type
REMARK                         _______ _______ _______ _____ _____    ______ ____
ROOT
ATOM      1  C   UNL     1      47.782 219.506 334.578  0.00  0.00    +0.000 C 
ATOM      2  C   UNL     1      48.527 219.279 333.665  0.00  0.00    +0.000 C 
ENDROOT
BRANCH   2   3
ATOM      3  C   UNL     1      49.473 218.988 332.495  0.00  0.00    +0.000 C 
BRANCH   3   4
ATOM      4  C   UNL     1      50.276 218.743 331.507  0.00  0.00    +0.000 C 
ATOM      5  C   UNL     1      49.758 218.753 330.102  0.00  0.00    +0.000 C 
BRANCH   4   7
ATOM      6  C   UNL     1      52.817 218.320 331.966  0.00  0.00    +0.000 C 
ATOM      7  C   UNL     1      51.651 218.516 331.756  0.00  0.00    +0.000 C 
BRANCH   6   8
ATOM      8  C   UNL     1      54.306 218.066 332.232  0.00  0.00    +0.000 C 
BRANCH   8   9
ATOM      9  C   UNL     1      55.564 217.844 332.449  0.00  0.00    +0.000 C 
ATOM     10  C   UNL     1      56.490 217.568 331.305  0.00  0.00    +0.000 C 
BRANCH   9  12
ATOM     11  C   UNL     1      56.454 217.664 334.907  0.00  0.00    +0.000 C 
ATOM     12  C   UNL     1      56.042 217.747 333.780  0.00  0.00    +0.000 C 
BRANCH  11  18
ATOM     13  C   UNL     1      57.945 218.547 336.717  0.00  0.00    +0.000 C 
ATOM     14  C   UNL     1      56.460 216.438 337.057  0.00  0.00    +0.000 C 
ATOM     15  C   UNL     1      58.054 218.412 338.176  0.00  0.00    +0.000 C 
ATOM     16  C   UNL     1      57.564 217.593 339.211  0.00  0.00    +0.000 C 
ATOM     17  C   UNL     1      56.793 216.687 338.454  0.00  0.00    +0.000 C 
ATOM     18  C   UNL     1      56.906 217.569 336.142  0.00  0.00    +0.000 C 
ATOM     19  C   UNL     1      59.318 218.255 336.054  0.00  0.00    +0.000 C 
ATOM     20  C   UNL     1      57.502 220.007 336.397  0.00  0.00    +0.000 C 
ATOM     21  C   UNL     1      57.023 215.096 336.579  0.00  0.00    +0.000 C 
BRANCH  14  22
ATOM     22  O   UNL     1      55.060 216.297 336.969  0.00  0.00    +0.000 OA
ATOM     23  H   UNL     1      54.928 215.420 337.373  0.00  0.00    +0.000 HD
ENDBRANCH  14  22
BRANCH  16  24
ATOM     24  O   UNL     1      58.444 217.129 340.181  0.00  0.00    +0.000 OA
BRANCH  24  26
ATOM     25  O   UNL     1      58.175 219.042 341.513  0.00  0.00    +0.000 OA
ATOM     26  C   UNL     1      58.295 217.846 341.323  0.00  0.00    +0.000 C 
ATOM     27  C   UNL     1      58.288 217.022 342.562  0.00  0.00    +0.000 C 
ENDBRANCH  24  26
ENDBRANCH  16  24
ENDBRANCH  11  18
ENDBRANCH   9  12
ENDBRANCH   8   9
ENDBRANCH   6   8
ENDBRANCH   4   7
ENDBRANCH   3   4
ENDBRANCH   2   3
BRANCH   1  28
ATOM     28  C   UNL     1      46.821 219.792 335.738  0.00  0.00    +0.000 C 
BRANCH  28  29
ATOM     29  C   UNL     1      46.002 220.037 336.711  0.00  0.00    +0.000 C 
ATOM     30  C   UNL     1      45.808 219.027 337.800  0.00  0.00    +0.000 C 
BRANCH  29  32
ATOM     31  C   UNL     1      44.639 222.270 336.744  0.00  0.00    +0.000 C 
ATOM     32  C   UNL     1      45.263 221.244 336.722  0.00  0.00    +0.000 C 
BRANCH  31  33
ATOM     33  C   UNL     1      43.846 223.582 336.789  0.00  0.00    +0.000 C 
BRANCH  33  34
ATOM     34  C   UNL     1      43.171 224.693 336.818  0.00  0.00    +0.000 C 
ATOM     35  C   UNL     1      41.761 224.621 337.367  0.00  0.00    +0.000 C 
BRANCH  34  37
ATOM     36  O   UNL     1      44.729 226.505 336.816  0.00  0.00    +0.000 OA
ATOM     37  C   UNL     1      43.769 225.956 336.284  0.00  0.00    +0.000 C 
BRANCH  37  38
ATOM     38  C   UNL     1      43.235 226.588 335.102  0.00  0.00    +0.000 C 
BRANCH  38  40
ATOM     39  O   UNL     1      43.589 226.993 332.788  0.00  0.00    +0.000 OA
ATOM     40  C   UNL     1      42.716 227.253 333.922  0.00  0.00    +0.000 C 
ATOM     41  C   UNL     1      42.292 226.405 332.704  0.00  0.00    +0.000 C 
ATOM     42  C   UNL     1      42.139 228.709 334.044  0.00  0.00    +0.000 C 
ATOM     43  C   UNL     1      41.476 227.038 331.719  0.00  0.00    +0.000 C 
ATOM     44  C   UNL     1      41.433 228.995 332.794  0.00  0.00    +0.000 C 
ATOM     45  C   UNL     1      40.992 228.354 331.620  0.00  0.00    +0.000 C 
ATOM     46  C   UNL     1      42.320 224.874 332.705  0.00  0.00    +0.000 C 
ATOM     47  C   UNL     1      41.160 228.666 335.242  0.00  0.00    +0.000 C 
ATOM     48  C   UNL     1      43.354 229.626 334.307  0.00  0.00    +0.000 C 
BRANCH  45  49
ATOM     49  O   UNL     1      39.792 228.657 331.052  0.00  0.00    +0.000 OA
ATOM     50  H   UNL     1      39.560 229.597 331.154  0.00  0.00    +0.000 HD
ENDBRANCH  45  49
ENDBRANCH  38  40
ENDBRANCH  37  38
ENDBRANCH  34  37
ENDBRANCH  33  34
ENDBRANCH  31  33
ENDBRANCH  29  32
ENDBRANCH  28  29
ENDBRANCH   1  28
TORSDOF 19
ENDMDL
