REMARK  Name = 5281224_Astaxanthin.pdbqt.pdb
REMARK  16 active torsions:
REMARK  status: ('A' for Active; 'I' for Inactive)
REMARK    1  A    between atoms: C_1  and  C_5
REMARK    2  A    between atoms: C_2  and  C_27
REMARK    3  A    between atoms: C_3  and  C_5
REMARK    4  A    between atoms: C_3  and  C_7
REMARK    5  A    between atoms: C_6  and  C_10
REMARK    6  A    between atoms: C_8  and  C_10
REMARK    7  A    between atoms: C_8  and  C_12
REMARK    8  A    between atoms: C_11  and  C_16
REMARK    9  A    between atoms: C_17  and  O_23
REMARK   10  A    between atoms: C_25  and  C_27
REMARK   11  A    between atoms: C_25  and  C_29
REMARK   12  A    between atoms: C_28  and  C_32
REMARK   13  A    between atoms: C_30  and  C_32
REMARK   14  A    between atoms: C_30  and  C_34
REMARK   15  A    between atoms: C_33  and  C_38
REMARK   16  A    between atoms: C_39  and  O_45
REMARK                            x       y       z     vdW  Elec       q    Type
REMARK                         _______ _______ _______ _____ _____    ______ ____
ROOT
ATOM      1  C   UNL     1      -0.448  -0.651  -1.026  0.00  0.00    +0.000 C 
ATOM      2  C   UNL     1       0.335   0.258  -1.045  0.00  0.00    +0.000 C 
ENDROOT
BRANCH   2   3
ATOM      3  C   UNL     1       1.336   1.420  -1.078  0.00  0.00    +0.000 C 
BRANCH   3   4
ATOM      4  C   UNL     1       2.183   2.400  -1.112  0.00  0.00    +0.000 C 
ATOM      5  C   UNL     1       1.961   3.548  -2.050  0.00  0.00    +0.000 C 
BRANCH   4   7
ATOM      6  C   UNL     1       4.355   2.305   0.343  0.00  0.00    +0.000 C 
ATOM      7  C   UNL     1       3.357   2.348  -0.323  0.00  0.00    +0.000 C 
BRANCH   6   8
ATOM      8  C   UNL     1       5.631   2.252   1.191  0.00  0.00    +0.000 C 
BRANCH   8   9
ATOM      9  C   UNL     1       6.713   2.200   1.905  0.00  0.00    +0.000 C 
ATOM     10  C   UNL     1       6.699   2.693   3.320  0.00  0.00    +0.000 C 
BRANCH   9  12
ATOM     11  C   UNL     1       8.820   0.961   0.963  0.00  0.00    +0.000 C 
ATOM     12  C   UNL     1       7.859   1.540   1.397  0.00  0.00    +0.000 C 
BRANCH  11  16
ATOM     13  O   UNL     1      10.773  -2.945  -1.262  0.00  0.00    +0.000 OA
ATOM     14  C   UNL     1      11.356   0.930   0.566  0.00  0.00    +0.000 C 
ATOM     15  C   UNL     1      12.296  -0.001  -0.034  0.00  0.00    +0.000 C 
ATOM     16  C   UNL     1       9.969   0.248   0.440  0.00  0.00    +0.000 C 
ATOM     17  C   UNL     1      12.266  -1.251  -0.644  0.00  0.00    +0.000 C 
ATOM     18  C   UNL     1      11.340   2.258  -0.227  0.00  0.00    +0.000 C 
ATOM     19  C   UNL     1      11.692   1.140   2.059  0.00  0.00    +0.000 C 
ATOM     20  C   UNL     1       9.798  -0.976  -0.141  0.00  0.00    +0.000 C 
ATOM     21  C   UNL     1      10.915  -1.848  -0.738  0.00  0.00    +0.000 C 
ATOM     22  C   UNL     1       8.380  -1.557  -0.230  0.00  0.00    +0.000 C 
BRANCH  17  23
ATOM     23  O   UNL     1      13.386  -1.876  -1.123  0.00  0.00    +0.000 OA
ATOM     24  H   UNL     1      13.158  -2.743  -1.516  0.00  0.00    +0.000 HD
ENDBRANCH  17  23
ENDBRANCH  11  16
ENDBRANCH   9  12
ENDBRANCH   8   9
ENDBRANCH   6   8
ENDBRANCH   4   7
ENDBRANCH   3   4
ENDBRANCH   2   3
BRANCH   1  25
ATOM     25  C   UNL     1      -1.448  -1.813  -1.012  0.00  0.00    +0.000 C 
BRANCH  25  26
ATOM     26  C   UNL     1      -2.295  -2.794  -1.005  0.00  0.00    +0.000 C 
ATOM     27  C   UNL     1      -2.049  -3.999  -1.863  0.00  0.00    +0.000 C 
BRANCH  26  29
ATOM     28  C   UNL     1      -4.508  -2.605   0.376  0.00  0.00    +0.000 C 
ATOM     29  C   UNL     1      -3.491  -2.691  -0.257  0.00  0.00    +0.000 C 
BRANCH  28  30
ATOM     30  C   UNL     1      -5.809  -2.496   1.182  0.00  0.00    +0.000 C 
BRANCH  30  31
ATOM     31  C   UNL     1      -6.909  -2.396   1.859  0.00  0.00    +0.000 C 
ATOM     32  C   UNL     1      -6.991  -2.968   3.242  0.00  0.00    +0.000 C 
BRANCH  31  34
ATOM     33  C   UNL     1      -8.868  -0.928   0.925  0.00  0.00    +0.000 C 
ATOM     34  C   UNL     1      -7.976  -1.611   1.355  0.00  0.00    +0.000 C 
BRANCH  33  38
ATOM     35  O   UNL     1     -10.393   3.241  -1.152  0.00  0.00    +0.000 OA
ATOM     36  C   UNL     1     -11.377  -0.648   0.463  0.00  0.00    +0.000 C 
ATOM     37  C   UNL     1     -12.211   0.393  -0.114  0.00  0.00    +0.000 C 
ATOM     38  C   UNL     1      -9.932  -0.089   0.408  0.00  0.00    +0.000 C 
ATOM     39  C   UNL     1     -12.050   1.663  -0.660  0.00  0.00    +0.000 C 
ATOM     40  C   UNL     1     -11.456  -1.932  -0.396  0.00  0.00    +0.000 C 
ATOM     41  C   UNL     1     -11.777  -0.897   1.934  0.00  0.00    +0.000 C 
ATOM     42  C   UNL     1      -9.633   1.140  -0.106  0.00  0.00    +0.000 C 
ATOM     43  C   UNL     1     -10.649   2.137  -0.688  0.00  0.00    +0.000 C 
ATOM     44  C   UNL     1      -8.167   1.593  -0.128  0.00  0.00    +0.000 C 
BRANCH  39  45
ATOM     45  O   UNL     1     -13.094   2.409  -1.135  0.00  0.00    +0.000 OA
ATOM     46  H   UNL     1     -12.777   3.270  -1.478  0.00  0.00    +0.000 HD
ENDBRANCH  39  45
ENDBRANCH  33  38
ENDBRANCH  31  34
ENDBRANCH  30  31
ENDBRANCH  28  30
ENDBRANCH  26  29
ENDBRANCH  25  26
ENDBRANCH   1  25
TORSDOF 16
