MODEL 1
REMARK VINA RESULT:      -5.1      0.000      0.000
REMARK  Name = 5281698_sexangularetin.pdbqt.pdb
REMARK  6 active torsions:
REMARK  status: ('A' for Active; 'I' for Inactive)
REMARK    1  A    between atoms: C_5  and  C_12
REMARK    2  A    between atoms: C_6  and  O_20
REMARK    3  A    between atoms: C_8  and  O_22
REMARK    4  A    between atoms: C_9  and  O_24
REMARK    5  A    between atoms: C_10  and  O_26
REMARK    6  A    between atoms: C_17  and  O_18
REMARK                            x       y       z     vdW  Elec       q    Type
REMARK                         _______ _______ _______ _____ _____    ______ ____
ROOT
ATOM      1  O   UNL     1      56.749 242.154 348.865  0.00  0.00    +0.000 OA
ATOM      2  O   UNL     1      54.299 239.018 348.107  0.00  0.00    +0.000 OA
ATOM      3  C   UNL     1      54.852 241.260 347.652  0.00  0.00    +0.000 A 
ATOM      4  C   UNL     1      55.722 242.303 347.966  0.00  0.00    +0.000 A 
ATOM      5  C   UNL     1      56.906 240.948 349.539  0.00  0.00    +0.000 A 
ATOM      6  C   UNL     1      55.568 243.545 347.334  0.00  0.00    +0.000 A 
ATOM      7  C   UNL     1      55.028 239.979 348.339  0.00  0.00    +0.000 A 
ATOM      8  C   UNL     1      56.125 239.872 349.326  0.00  0.00    +0.000 A 
ATOM      9  C   UNL     1      53.846 241.441 346.697  0.00  0.00    +0.000 A 
ATOM     10  C   UNL     1      54.585 243.704 346.351  0.00  0.00    +0.000 A 
ATOM     11  C   UNL     1      53.718 242.660 346.040  0.00  0.00    +0.000 A 
ENDROOT
BRANCH   5  12
ATOM     12  C   UNL     1      58.032 240.968 350.495  0.00  0.00    +0.000 A 
ATOM     13  C   UNL     1      58.995 241.980 350.411  0.00  0.00    +0.000 A 
ATOM     14  C   UNL     1      58.136 240.041 351.537  0.00  0.00    +0.000 A 
ATOM     15  C   UNL     1      60.046 242.054 351.323  0.00  0.00    +0.000 A 
ATOM     16  C   UNL     1      59.183 240.102 352.455  0.00  0.00    +0.000 A 
ATOM     17  C   UNL     1      60.131 241.111 352.340  0.00  0.00    +0.000 A 
BRANCH  17  18
ATOM     18  O   UNL     1      61.147 241.155 353.249  0.00  0.00    +0.000 OA
ATOM     19  H   UNL     1      61.949 240.800 352.825  0.00  0.00    +0.000 HD
ENDBRANCH  17  18
ENDBRANCH   5  12
BRANCH   6  20
ATOM     20  O   UNL     1      56.424 244.588 347.593  0.00  0.00    +0.000 OA
ATOM     21  C   UNL     1      55.943 245.390 348.646  0.00  0.00    +0.000 C 
ENDBRANCH   6  20
BRANCH   8  22
ATOM     22  O   UNL     1      56.287 238.652 349.954  0.00  0.00    +0.000 OA
ATOM     23  H   UNL     1      55.991 238.788 350.879  0.00  0.00    +0.000 HD
ENDBRANCH   8  22
BRANCH   9  24
ATOM     24  O   UNL     1      52.963 240.458 346.342  0.00  0.00    +0.000 OA
ATOM     25  H   UNL     1      52.073 240.689 346.691  0.00  0.00    +0.000 HD
ENDBRANCH   9  24
BRANCH  10  26
ATOM     26  O   UNL     1      54.484 244.887 345.676  0.00  0.00    +0.000 OA
ATOM     27  H   UNL     1      53.833 245.452 346.132  0.00  0.00    +0.000 HD
ENDBRANCH  10  26
TORSDOF 6
ENDMDL
MODEL 2
REMARK VINA RESULT:      -5.1     20.211     22.132
REMARK  Name = 5281698_sexangularetin.pdbqt.pdb
REMARK  6 active torsions:
REMARK  status: ('A' for Active; 'I' for Inactive)
REMARK    1  A    between atoms: C_5  and  C_12
REMARK    2  A    between atoms: C_6  and  O_20
REMARK    3  A    between atoms: C_8  and  O_22
REMARK    4  A    between atoms: C_9  and  O_24
REMARK    5  A    between atoms: C_10  and  O_26
REMARK    6  A    between atoms: C_17  and  O_18
REMARK                            x       y       z     vdW  Elec       q    Type
REMARK                         _______ _______ _______ _____ _____    ______ ____
ROOT
ATOM      1  O   UNL     1      67.314 243.000 330.275  0.00  0.00    +0.000 OA
ATOM      2  O   UNL     1      64.419 243.103 333.108  0.00  0.00    +0.000 OA
ATOM      3  C   UNL     1      66.404 242.102 332.333  0.00  0.00    +0.000 A 
ATOM      4  C   UNL     1      67.362 242.111 331.320  0.00  0.00    +0.000 A 
ATOM      5  C   UNL     1      66.252 243.890 330.175  0.00  0.00    +0.000 A 
ATOM      6  C   UNL     1      68.426 241.200 331.369  0.00  0.00    +0.000 A 
ATOM      7  C   UNL     1      65.295 243.055 332.247  0.00  0.00    +0.000 A 
ATOM      8  C   UNL     1      65.264 243.972 331.087  0.00  0.00    +0.000 A 
ATOM      9  C   UNL     1      66.514 241.209 333.404  0.00  0.00    +0.000 A 
ATOM     10  C   UNL     1      68.550 240.338 332.464  0.00  0.00    +0.000 A 
ATOM     11  C   UNL     1      67.592 240.332 333.474  0.00  0.00    +0.000 A 
ENDROOT
BRANCH   5  12
ATOM     12  C   UNL     1      66.333 244.749 328.976  0.00  0.00    +0.000 A 
ATOM     13  C   UNL     1      66.285 244.167 327.703  0.00  0.00    +0.000 A 
ATOM     14  C   UNL     1      66.390 246.143 329.064  0.00  0.00    +0.000 A 
ATOM     15  C   UNL     1      66.316 244.950 326.551  0.00  0.00    +0.000 A 
ATOM     16  C   UNL     1      66.423 246.938 327.920  0.00  0.00    +0.000 A 
ATOM     17  C   UNL     1      66.386 246.333 326.670  0.00  0.00    +0.000 A 
BRANCH  17  18
ATOM     18  O   UNL     1      66.418 247.128 325.562  0.00  0.00    +0.000 OA
ATOM     19  H   UNL     1      65.519 247.165 325.190  0.00  0.00    +0.000 HD
ENDBRANCH  17  18
ENDBRANCH   5  12
BRANCH   6  20
ATOM     20  O   UNL     1      69.407 241.197 330.408  0.00  0.00    +0.000 OA
ATOM     21  C   UNL     1      69.080 240.325 329.351  0.00  0.00    +0.000 C 
ENDBRANCH   6  20
BRANCH   8  22
ATOM     22  O   UNL     1      64.219 244.875 331.029  0.00  0.00    +0.000 OA
ATOM     23  H   UNL     1      63.402 244.341 331.113  0.00  0.00    +0.000 HD
ENDBRANCH   8  22
BRANCH   9  24
ATOM     24  O   UNL     1      65.610 241.152 334.429  0.00  0.00    +0.000 OA
ATOM     25  H   UNL     1      65.807 241.874 335.068  0.00  0.00    +0.000 HD
ENDBRANCH   9  24
BRANCH  10  26
ATOM     26  O   UNL     1      69.629 239.505 332.556  0.00  0.00    +0.000 OA
ATOM     27  H   UNL     1      70.324 239.950 333.076  0.00  0.00    +0.000 HD
ENDBRANCH  10  26
TORSDOF 6
ENDMDL
MODEL 3
REMARK VINA RESULT:      -5.0      1.893      5.449
REMARK  Name = 5281698_sexangularetin.pdbqt.pdb
REMARK  6 active torsions:
REMARK  status: ('A' for Active; 'I' for Inactive)
REMARK    1  A    between atoms: C_5  and  C_12
REMARK    2  A    between atoms: C_6  and  O_20
REMARK    3  A    between atoms: C_8  and  O_22
REMARK    4  A    between atoms: C_9  and  O_24
REMARK    5  A    between atoms: C_10  and  O_26
REMARK    6  A    between atoms: C_17  and  O_18
REMARK                            x       y       z     vdW  Elec       q    Type
REMARK                         _______ _______ _______ _____ _____    ______ ____
ROOT
ATOM      1  O   UNL     1      56.672 242.952 348.413  0.00  0.00    +0.000 OA
ATOM      2  O   UNL     1      53.691 241.954 345.858  0.00  0.00    +0.000 OA
ATOM      3  C   UNL     1      55.106 241.285 347.616  0.00  0.00    +0.000 A 
ATOM      4  C   UNL     1      56.140 241.688 348.459  0.00  0.00    +0.000 A 
ATOM      5  C   UNL     1      56.216 243.858 347.461  0.00  0.00    +0.000 A 
ATOM      6  C   UNL     1      56.651 240.788 349.405  0.00  0.00    +0.000 A 
ATOM      7  C   UNL     1      54.603 242.242 346.629  0.00  0.00    +0.000 A 
ATOM      8  C   UNL     1      55.228 243.583 346.589  0.00  0.00    +0.000 A 
ATOM      9  C   UNL     1      54.562 240.001 347.727  0.00  0.00    +0.000 A 
ATOM     10  C   UNL     1      56.074 239.519 349.535  0.00  0.00    +0.000 A 
ATOM     11  C   UNL     1      55.040 239.120 348.692  0.00  0.00    +0.000 A 
ENDROOT
BRANCH   5  12
ATOM     12  C   UNL     1      56.917 245.157 347.523  0.00  0.00    +0.000 A 
ATOM     13  C   UNL     1      58.093 245.345 346.785  0.00  0.00    +0.000 A 
ATOM     14  C   UNL     1      56.409 246.241 348.245  0.00  0.00    +0.000 A 
ATOM     15  C   UNL     1      58.755 246.571 346.786  0.00  0.00    +0.000 A 
ATOM     16  C   UNL     1      57.063 247.471 348.256  0.00  0.00    +0.000 A 
ATOM     17  C   UNL     1      58.234 247.626 347.524  0.00  0.00    +0.000 A 
BRANCH  17  18
ATOM     18  O   UNL     1      58.858 248.838 347.546  0.00  0.00    +0.000 OA
ATOM     19  H   UNL     1      58.182 249.526 347.679  0.00  0.00    +0.000 HD
ENDBRANCH  17  18
ENDBRANCH   5  12
BRANCH   6  20
ATOM     20  O   UNL     1      57.649 241.155 350.274  0.00  0.00    +0.000 OA
ATOM     21  C   UNL     1      57.116 241.745 351.438  0.00  0.00    +0.000 C 
ENDBRANCH   6  20
BRANCH   8  22
ATOM     22  O   UNL     1      54.732 244.479 345.662  0.00  0.00    +0.000 OA
ATOM     23  H   UNL     1      54.065 245.015 346.141  0.00  0.00    +0.000 HD
ENDBRANCH   8  22
BRANCH   9  24
ATOM     24  O   UNL     1      53.545 239.546 346.933  0.00  0.00    +0.000 OA
ATOM     25  H   UNL     1      53.151 238.745 347.347  0.00  0.00    +0.000 HD
ENDBRANCH   9  24
BRANCH  10  26
ATOM     26  O   UNL     1      56.514 238.668 350.509  0.00  0.00    +0.000 OA
ATOM     27  H   UNL     1      55.784 238.507 351.136  0.00  0.00    +0.000 HD
ENDBRANCH  10  26
TORSDOF 6
ENDMDL
MODEL 4
REMARK VINA RESULT:      -5.0     18.817     19.715
REMARK  Name = 5281698_sexangularetin.pdbqt.pdb
REMARK  6 active torsions:
REMARK  status: ('A' for Active; 'I' for Inactive)
REMARK    1  A    between atoms: C_5  and  C_12
REMARK    2  A    between atoms: C_6  and  O_20
REMARK    3  A    between atoms: C_8  and  O_22
REMARK    4  A    between atoms: C_9  and  O_24
REMARK    5  A    between atoms: C_10  and  O_26
REMARK    6  A    between atoms: C_17  and  O_18
REMARK                            x       y       z     vdW  Elec       q    Type
REMARK                         _______ _______ _______ _____ _____    ______ ____
ROOT
ATOM      1  O   UNL     1      67.696 242.126 332.511  0.00  0.00    +0.000 OA
ATOM      2  O   UNL     1      63.722 242.895 332.341  0.00  0.00    +0.000 OA
ATOM      3  C   UNL     1      65.875 243.379 331.522  0.00  0.00    +0.000 A 
ATOM      4  C   UNL     1      67.231 243.076 331.638  0.00  0.00    +0.000 A 
ATOM      5  C   UNL     1      66.808 241.474 333.359  0.00  0.00    +0.000 A 
ATOM      6  C   UNL     1      68.159 243.742 330.826  0.00  0.00    +0.000 A 
ATOM      7  C   UNL     1      64.931 242.678 332.393  0.00  0.00    +0.000 A 
ATOM      8  C   UNL     1      65.478 241.686 333.345  0.00  0.00    +0.000 A 
ATOM      9  C   UNL     1      65.439 244.324 330.586  0.00  0.00    +0.000 A 
ATOM     10  C   UNL     1      67.710 244.656 329.866  0.00  0.00    +0.000 A 
ATOM     11  C   UNL     1      66.355 244.957 329.752  0.00  0.00    +0.000 A 
ENDROOT
BRANCH   5  12
ATOM     12  C   UNL     1      67.474 240.511 334.259  0.00  0.00    +0.000 A 
ATOM     13  C   UNL     1      67.582 240.800 335.625  0.00  0.00    +0.000 A 
ATOM     14  C   UNL     1      67.948 239.276 333.806  0.00  0.00    +0.000 A 
ATOM     15  C   UNL     1      68.166 239.896 336.510  0.00  0.00    +0.000 A 
ATOM     16  C   UNL     1      68.536 238.363 334.679  0.00  0.00    +0.000 A 
ATOM     17  C   UNL     1      68.640 238.682 336.027  0.00  0.00    +0.000 A 
BRANCH  17  18
ATOM     18  O   UNL     1      69.217 237.775 336.867  0.00  0.00    +0.000 OA
ATOM     19  H   UNL     1      68.523 237.415 337.447  0.00  0.00    +0.000 HD
ENDBRANCH  17  18
ENDBRANCH   5  12
BRANCH   6  20
ATOM     20  O   UNL     1      69.500 243.450 330.888  0.00  0.00    +0.000 OA
ATOM     21  C   UNL     1      69.825 242.375 330.037  0.00  0.00    +0.000 C 
ENDBRANCH   6  20
BRANCH   8  22
ATOM     22  O   UNL     1      64.572 241.022 334.149  0.00  0.00    +0.000 OA
ATOM     23  H   UNL     1      64.989 240.162 334.367  0.00  0.00    +0.000 HD
ENDBRANCH   8  22
BRANCH   9  24
ATOM     24  O   UNL     1      64.124 244.664 330.422  0.00  0.00    +0.000 OA
ATOM     25  H   UNL     1      63.636 243.887 330.067  0.00  0.00    +0.000 HD
ENDBRANCH   9  24
BRANCH  10  26
ATOM     26  O   UNL     1      68.603 245.248 329.018  0.00  0.00    +0.000 OA
ATOM     27  H   UNL     1      68.455 244.902 328.118  0.00  0.00    +0.000 HD
ENDBRANCH  10  26
TORSDOF 6
ENDMDL
MODEL 5
REMARK VINA RESULT:      -5.0     25.680     26.631
REMARK  Name = 5281698_sexangularetin.pdbqt.pdb
REMARK  6 active torsions:
REMARK  status: ('A' for Active; 'I' for Inactive)
REMARK    1  A    between atoms: C_5  and  C_12
REMARK    2  A    between atoms: C_6  and  O_20
REMARK    3  A    between atoms: C_8  and  O_22
REMARK    4  A    between atoms: C_9  and  O_24
REMARK    5  A    between atoms: C_10  and  O_26
REMARK    6  A    between atoms: C_17  and  O_18
REMARK                            x       y       z     vdW  Elec       q    Type
REMARK                         _______ _______ _______ _____ _____    ______ ____
ROOT
ATOM      1  O   UNL     1      73.322 223.362 340.857  0.00  0.00    +0.000 OA
ATOM      2  O   UNL     1      75.384 224.722 337.646  0.00  0.00    +0.000 OA
ATOM      3  C   UNL     1      73.399 223.761 338.469  0.00  0.00    +0.000 A 
ATOM      4  C   UNL     1      72.748 223.300 339.612  0.00  0.00    +0.000 A 
ATOM      5  C   UNL     1      74.618 223.845 340.996  0.00  0.00    +0.000 A 
ATOM      6  C   UNL     1      71.454 222.770 339.503  0.00  0.00    +0.000 A 
ATOM      7  C   UNL     1      74.755 224.295 338.611  0.00  0.00    +0.000 A 
ATOM      8  C   UNL     1      75.349 224.312 339.966  0.00  0.00    +0.000 A 
ATOM      9  C   UNL     1      72.760 223.721 337.225  0.00  0.00    +0.000 A 
ATOM     10  C   UNL     1      70.808 222.770 338.262  0.00  0.00    +0.000 A 
ATOM     11  C   UNL     1      71.461 223.232 337.122  0.00  0.00    +0.000 A 
ENDROOT
BRANCH   5  12
ATOM     12  C   UNL     1      75.098 223.809 342.392  0.00  0.00    +0.000 A 
ATOM     13  C   UNL     1      75.195 225.000 343.122  0.00  0.00    +0.000 A 
ATOM     14  C   UNL     1      75.398 222.608 343.043  0.00  0.00    +0.000 A 
ATOM     15  C   UNL     1      75.602 224.998 344.454  0.00  0.00    +0.000 A 
ATOM     16  C   UNL     1      75.809 222.592 344.375  0.00  0.00    +0.000 A 
ATOM     17  C   UNL     1      75.907 223.791 345.070  0.00  0.00    +0.000 A 
BRANCH  17  18
ATOM     18  O   UNL     1      76.309 223.754 346.374  0.00  0.00    +0.000 OA
ATOM     19  H   UNL     1      75.686 223.192 346.868  0.00  0.00    +0.000 HD
ENDBRANCH  17  18
ENDBRANCH   5  12
BRANCH   6  20
ATOM     20  O   UNL     1      70.767 222.333 340.609  0.00  0.00    +0.000 OA
ATOM     21  C   UNL     1      70.979 220.958 340.828  0.00  0.00    +0.000 C 
ENDBRANCH   6  20
BRANCH   8  22
ATOM     22  O   UNL     1      76.624 224.833 340.085  0.00  0.00    +0.000 OA
ATOM     23  H   UNL     1      76.614 225.675 339.583  0.00  0.00    +0.000 HD
ENDBRANCH   8  22
BRANCH   9  24
ATOM     24  O   UNL     1      73.342 224.160 336.068  0.00  0.00    +0.000 OA
ATOM     25  H   UNL     1      74.132 223.604 335.877  0.00  0.00    +0.000 HD
ENDBRANCH   9  24
BRANCH  10  26
ATOM     26  O   UNL     1      69.518 222.330 338.165  0.00  0.00    +0.000 OA
ATOM     27  H   UNL     1      69.468 221.665 337.453  0.00  0.00    +0.000 HD
ENDBRANCH  10  26
TORSDOF 6
ENDMDL
MODEL 6
REMARK VINA RESULT:      -4.9      1.914      2.262
REMARK  Name = 5281698_sexangularetin.pdbqt.pdb
REMARK  6 active torsions:
REMARK  status: ('A' for Active; 'I' for Inactive)
REMARK    1  A    between atoms: C_5  and  C_12
REMARK    2  A    between atoms: C_6  and  O_20
REMARK    3  A    between atoms: C_8  and  O_22
REMARK    4  A    between atoms: C_9  and  O_24
REMARK    5  A    between atoms: C_10  and  O_26
REMARK    6  A    between atoms: C_17  and  O_18
REMARK                            x       y       z     vdW  Elec       q    Type
REMARK                         _______ _______ _______ _____ _____    ______ ____
ROOT
ATOM      1  O   UNL     1      56.696 243.335 348.321  0.00  0.00    +0.000 OA
ATOM      2  O   UNL     1      55.764 239.414 348.739  0.00  0.00    +0.000 OA
ATOM      3  C   UNL     1      55.249 241.482 347.738  0.00  0.00    +0.000 A 
ATOM      4  C   UNL     1      55.616 242.824 347.647  0.00  0.00    +0.000 A 
ATOM      5  C   UNL     1      57.427 242.516 349.174  0.00  0.00    +0.000 A 
ATOM      6  C   UNL     1      54.876 243.687 346.827  0.00  0.00    +0.000 A 
ATOM      7  C   UNL     1      56.031 240.607 348.615  0.00  0.00    +0.000 A 
ATOM      8  C   UNL     1      57.166 241.207 349.350  0.00  0.00    +0.000 A 
ATOM      9  C   UNL     1      54.167 240.992 346.999  0.00  0.00    +0.000 A 
ATOM     10  C   UNL     1      53.821 243.179 346.060  0.00  0.00    +0.000 A 
ATOM     11  C   UNL     1      53.457 241.839 346.154  0.00  0.00    +0.000 A 
ENDROOT
BRANCH   5  12
ATOM     12  C   UNL     1      58.531 243.229 349.849  0.00  0.00    +0.000 A 
ATOM     13  C   UNL     1      59.778 243.330 349.219  0.00  0.00    +0.000 A 
ATOM     14  C   UNL     1      58.356 243.875 351.077  0.00  0.00    +0.000 A 
ATOM     15  C   UNL     1      60.828 244.032 349.808  0.00  0.00    +0.000 A 
ATOM     16  C   UNL     1      59.398 244.578 351.677  0.00  0.00    +0.000 A 
ATOM     17  C   UNL     1      60.628 244.651 351.035  0.00  0.00    +0.000 A 
BRANCH  17  18
ATOM     18  O   UNL     1      61.635 245.347 351.638  0.00  0.00    +0.000 OA
ATOM     19  H   UNL     1      61.374 246.284 351.680  0.00  0.00    +0.000 HD
ENDBRANCH  17  18
ENDBRANCH   5  12
BRANCH   6  20
ATOM     20  O   UNL     1      55.223 245.009 346.685  0.00  0.00    +0.000 OA
ATOM     21  C   UNL     1      54.563 245.811 347.636  0.00  0.00    +0.000 C 
ENDBRANCH   6  20
BRANCH   8  22
ATOM     22  O   UNL     1      57.903 240.365 350.161  0.00  0.00    +0.000 OA
ATOM     23  H   UNL     1      58.734 240.846 350.358  0.00  0.00    +0.000 HD
ENDBRANCH   8  22
BRANCH   9  24
ATOM     24  O   UNL     1      53.759 239.687 347.042  0.00  0.00    +0.000 OA
ATOM     25  H   UNL     1      53.863 239.291 346.147  0.00  0.00    +0.000 HD
ENDBRANCH   9  24
BRANCH  10  26
ATOM     26  O   UNL     1      53.149 244.000 345.199  0.00  0.00    +0.000 OA
ATOM     27  H   UNL     1      53.800 244.515 344.687  0.00  0.00    +0.000 HD
ENDBRANCH  10  26
TORSDOF 6
ENDMDL
MODEL 7
REMARK VINA RESULT:      -4.9     26.546     28.436
REMARK  Name = 5281698_sexangularetin.pdbqt.pdb
REMARK  6 active torsions:
REMARK  status: ('A' for Active; 'I' for Inactive)
REMARK    1  A    between atoms: C_5  and  C_12
REMARK    2  A    between atoms: C_6  and  O_20
REMARK    3  A    between atoms: C_8  and  O_22
REMARK    4  A    between atoms: C_9  and  O_24
REMARK    5  A    between atoms: C_10  and  O_26
REMARK    6  A    between atoms: C_17  and  O_18
REMARK                            x       y       z     vdW  Elec       q    Type
REMARK                         _______ _______ _______ _____ _____    ______ ____
ROOT
ATOM      1  O   UNL     1      44.798 233.013 325.077  0.00  0.00    +0.000 OA
ATOM      2  O   UNL     1      46.286 236.622 323.989  0.00  0.00    +0.000 OA
ATOM      3  C   UNL     1      46.434 234.279 323.815  0.00  0.00    +0.000 A 
ATOM      4  C   UNL     1      45.882 233.070 324.236  0.00  0.00    +0.000 A 
ATOM      5  C   UNL     1      44.255 234.189 325.582  0.00  0.00    +0.000 A 
ATOM      6  C   UNL     1      46.429 231.864 323.777  0.00  0.00    +0.000 A 
ATOM      7  C   UNL     1      45.850 235.522 324.323  0.00  0.00    +0.000 A 
ATOM      8  C   UNL     1      44.705 235.415 325.254  0.00  0.00    +0.000 A 
ATOM      9  C   UNL     1      47.511 234.292 322.922  0.00  0.00    +0.000 A 
ATOM     10  C   UNL     1      47.480 231.888 322.853  0.00  0.00    +0.000 A 
ATOM     11  C   UNL     1      48.029 233.097 322.434  0.00  0.00    +0.000 A 
ENDROOT
BRANCH   5  12
ATOM     12  C   UNL     1      43.121 233.951 326.498  0.00  0.00    +0.000 A 
ATOM     13  C   UNL     1      41.819 233.891 325.988  0.00  0.00    +0.000 A 
ATOM     14  C   UNL     1      43.309 233.712 327.863  0.00  0.00    +0.000 A 
ATOM     15  C   UNL     1      40.731 233.625 326.817  0.00  0.00    +0.000 A 
ATOM     16  C   UNL     1      42.229 233.447 328.704  0.00  0.00    +0.000 A 
ATOM     17  C   UNL     1      40.947 233.405 328.172  0.00  0.00    +0.000 A 
BRANCH  17  18
ATOM     18  O   UNL     1      39.904 233.142 329.011  0.00  0.00    +0.000 OA
ATOM     19  H   UNL     1      39.215 233.813 328.858  0.00  0.00    +0.000 HD
ENDBRANCH  17  18
ENDBRANCH   5  12
BRANCH   6  20
ATOM     20  O   UNL     1      45.895 230.653 324.144  0.00  0.00    +0.000 OA
ATOM     21  C   UNL     1      44.864 230.266 323.266  0.00  0.00    +0.000 C 
ENDBRANCH   6  20
BRANCH   8  22
ATOM     22  O   UNL     1      44.157 236.598 325.712  0.00  0.00    +0.000 OA
ATOM     23  H   UNL     1      43.880 236.422 326.636  0.00  0.00    +0.000 HD
ENDBRANCH   8  22
BRANCH   9  24
ATOM     24  O   UNL     1      48.095 235.443 322.469  0.00  0.00    +0.000 OA
ATOM     25  H   UNL     1      48.739 235.216 321.760  0.00  0.00    +0.000 HD
ENDBRANCH   9  24
BRANCH  10  26
ATOM     26  O   UNL     1      47.963 230.717 322.341  0.00  0.00    +0.000 OA
ATOM     27  H   UNL     1      47.214 230.190 322.007  0.00  0.00    +0.000 HD
ENDBRANCH  10  26
TORSDOF 6
ENDMDL
MODEL 8
REMARK VINA RESULT:      -4.9      2.319      4.601
REMARK  Name = 5281698_sexangularetin.pdbqt.pdb
REMARK  6 active torsions:
REMARK  status: ('A' for Active; 'I' for Inactive)
REMARK    1  A    between atoms: C_5  and  C_12
REMARK    2  A    between atoms: C_6  and  O_20
REMARK    3  A    between atoms: C_8  and  O_22
REMARK    4  A    between atoms: C_9  and  O_24
REMARK    5  A    between atoms: C_10  and  O_26
REMARK    6  A    between atoms: C_17  and  O_18
REMARK                            x       y       z     vdW  Elec       q    Type
REMARK                         _______ _______ _______ _____ _____    ______ ____
ROOT
ATOM      1  O   UNL     1      55.921 241.998 349.178  0.00  0.00    +0.000 OA
ATOM      2  O   UNL     1      54.066 241.985 345.577  0.00  0.00    +0.000 OA
ATOM      3  C   UNL     1      54.320 240.964 347.682  0.00  0.00    +0.000 A 
ATOM      4  C   UNL     1      55.002 241.018 348.897  0.00  0.00    +0.000 A 
ATOM      5  C   UNL     1      56.239 242.943 348.210  0.00  0.00    +0.000 A 
ATOM      6  C   UNL     1      54.734 240.057 349.882  0.00  0.00    +0.000 A 
ATOM      7  C   UNL     1      54.632 241.972 346.667  0.00  0.00    +0.000 A 
ATOM      8  C   UNL     1      55.654 242.990 346.998  0.00  0.00    +0.000 A 
ATOM      9  C   UNL     1      53.358 239.975 347.454  0.00  0.00    +0.000 A 
ATOM     10  C   UNL     1      53.742 239.096 349.660  0.00  0.00    +0.000 A 
ATOM     11  C   UNL     1      53.063 239.045 348.446  0.00  0.00    +0.000 A 
ENDROOT
BRANCH   5  12
ATOM     12  C   UNL     1      57.270 243.901 348.659  0.00  0.00    +0.000 A 
ATOM     13  C   UNL     1      56.889 245.175 349.096  0.00  0.00    +0.000 A 
ATOM     14  C   UNL     1      58.623 243.554 348.730  0.00  0.00    +0.000 A 
ATOM     15  C   UNL     1      57.831 246.087 349.566  0.00  0.00    +0.000 A 
ATOM     16  C   UNL     1      59.576 244.458 349.196  0.00  0.00    +0.000 A 
ATOM     17  C   UNL     1      59.170 245.720 349.612  0.00  0.00    +0.000 A 
BRANCH  17  18
ATOM     18  O   UNL     1      60.118 246.590 350.068  0.00  0.00    +0.000 OA
ATOM     19  H   UNL     1      59.862 247.488 349.792  0.00  0.00    +0.000 HD
ENDBRANCH  17  18
ENDBRANCH   5  12
BRANCH   6  20
ATOM     20  O   UNL     1      55.361 240.094 351.104  0.00  0.00    +0.000 OA
ATOM     21  C   UNL     1      56.560 239.355 351.081  0.00  0.00    +0.000 C 
ENDBRANCH   6  20
BRANCH   8  22
ATOM     22  O   UNL     1      55.925 243.943 346.035  0.00  0.00    +0.000 OA
ATOM     23  H   UNL     1      56.683 244.460 346.379  0.00  0.00    +0.000 HD
ENDBRANCH   8  22
BRANCH   9  24
ATOM     24  O   UNL     1      52.653 239.869 346.286  0.00  0.00    +0.000 OA
ATOM     25  H   UNL     1      52.742 240.710 345.783  0.00  0.00    +0.000 HD
ENDBRANCH   9  24
BRANCH  10  26
ATOM     26  O   UNL     1      53.421 238.208 350.648  0.00  0.00    +0.000 OA
ATOM     27  H   UNL     1      52.520 237.872 350.485  0.00  0.00    +0.000 HD
ENDBRANCH  10  26
TORSDOF 6
ENDMDL
MODEL 9
REMARK VINA RESULT:      -4.8     26.819     27.549
REMARK  Name = 5281698_sexangularetin.pdbqt.pdb
REMARK  6 active torsions:
REMARK  status: ('A' for Active; 'I' for Inactive)
REMARK    1  A    between atoms: C_5  and  C_12
REMARK    2  A    between atoms: C_6  and  O_20
REMARK    3  A    between atoms: C_8  and  O_22
REMARK    4  A    between atoms: C_9  and  O_24
REMARK    5  A    between atoms: C_10  and  O_26
REMARK    6  A    between atoms: C_17  and  O_18
REMARK                            x       y       z     vdW  Elec       q    Type
REMARK                         _______ _______ _______ _____ _____    ______ ____
ROOT
ATOM      1  O   UNL     1      69.547 221.270 336.458  0.00  0.00    +0.000 OA
ATOM      2  O   UNL     1      69.407 219.980 340.296  0.00  0.00    +0.000 OA
ATOM      3  C   UNL     1      68.316 220.150 338.217  0.00  0.00    +0.000 A 
ATOM      4  C   UNL     1      68.423 220.629 336.912  0.00  0.00    +0.000 A 
ATOM      5  C   UNL     1      70.603 221.512 337.329  0.00  0.00    +0.000 A 
ATOM      6  C   UNL     1      67.361 220.437 336.018  0.00  0.00    +0.000 A 
ATOM      7  C   UNL     1      69.434 220.378 339.133  0.00  0.00    +0.000 A 
ATOM      8  C   UNL     1      70.614 221.104 338.613  0.00  0.00    +0.000 A 
ATOM      9  C   UNL     1      67.168 219.462 338.627  0.00  0.00    +0.000 A 
ATOM     10  C   UNL     1      66.234 219.713 336.424  0.00  0.00    +0.000 A 
ATOM     11  C   UNL     1      66.131 219.236 337.728  0.00  0.00    +0.000 A 
ENDROOT
BRANCH   5  12
ATOM     12  C   UNL     1      71.718 222.243 336.692  0.00  0.00    +0.000 A 
ATOM     13  C   UNL     1      72.240 223.385 337.311  0.00  0.00    +0.000 A 
ATOM     14  C   UNL     1      72.323 221.794 335.515  0.00  0.00    +0.000 A 
ATOM     15  C   UNL     1      73.319 224.074 336.761  0.00  0.00    +0.000 A 
ATOM     16  C   UNL     1      73.401 222.474 334.952  0.00  0.00    +0.000 A 
ATOM     17  C   UNL     1      73.891 223.611 335.582  0.00  0.00    +0.000 A 
BRANCH  17  18
ATOM     18  O   UNL     1      74.948 224.263 335.016  0.00  0.00    +0.000 OA
ATOM     19  H   UNL     1      74.624 225.103 334.647  0.00  0.00    +0.000 HD
ENDBRANCH  17  18
ENDBRANCH   5  12
BRANCH   6  20
ATOM     20  O   UNL     1      67.439 220.866 334.715  0.00  0.00    +0.000 OA
ATOM     21  C   UNL     1      68.001 219.874 333.887  0.00  0.00    +0.000 C 
ENDBRANCH   6  20
BRANCH   8  22
ATOM     22  O   UNL     1      71.667 221.298 339.486  0.00  0.00    +0.000 OA
ATOM     23  H   UNL     1      71.952 220.401 339.762  0.00  0.00    +0.000 HD
ENDBRANCH   8  22
BRANCH   9  24
ATOM     24  O   UNL     1      67.003 218.966 339.891  0.00  0.00    +0.000 OA
ATOM     25  H   UNL     1      67.887 218.760 340.271  0.00  0.00    +0.000 HD
ENDBRANCH   9  24
BRANCH  10  26
ATOM     26  O   UNL     1      65.232 219.454 335.532  0.00  0.00    +0.000 OA
ATOM     27  H   UNL     1      64.894 220.302 335.189  0.00  0.00    +0.000 HD
ENDBRANCH  10  26
TORSDOF 6
ENDMDL
