MODEL 1
REMARK VINA RESULT:      -4.9      0.000      0.000
REMARK  Name = 5281416_Esculetin.pdbqt.pdb
REMARK  2 active torsions:
REMARK  status: ('A' for Active; 'I' for Inactive)
REMARK    1  A    between atoms: C_7  and  O_12
REMARK    2  A    between atoms: C_8  and  O_14
REMARK                            x       y       z     vdW  Elec       q    Type
REMARK                         _______ _______ _______ _____ _____    ______ ____
ROOT
ATOM      1  O   UNL     1      52.405 243.404 322.972  0.00  0.00    +0.000 OA
ATOM      2  O   UNL     1      53.367 244.518 321.144  0.00  0.00    +0.000 OA
ATOM      3  C   UNL     1      53.478 243.788 325.190  0.00  0.00    +0.000 A 
ATOM      4  C   UNL     1      52.472 243.168 324.398  0.00  0.00    +0.000 A 
ATOM      5  C   UNL     1      53.548 243.567 326.555  0.00  0.00    +0.000 A 
ATOM      6  C   UNL     1      51.527 242.322 324.960  0.00  0.00    +0.000 A 
ATOM      7  C   UNL     1      52.598 242.717 327.117  0.00  0.00    +0.000 A 
ATOM      8  C   UNL     1      51.607 242.107 326.332  0.00  0.00    +0.000 A 
ATOM      9  C   UNL     1      54.360 244.619 324.456  0.00  0.00    +0.000 A 
ATOM     10  C   UNL     1      54.287 244.800 323.279  0.00  0.00    +0.000 A 
ATOM     11  C   UNL     1      53.346 244.261 322.337  0.00  0.00    +0.000 A 
ENDROOT
BRANCH   7  12
ATOM     12  O   UNL     1      52.601 242.448 328.460  0.00  0.00    +0.000 OA
ATOM     13  H   UNL     1      52.704 243.294 328.934  0.00  0.00    +0.000 HD
ENDBRANCH   7  12
BRANCH   8  14
ATOM     14  O   UNL     1      50.694 241.280 326.926  0.00  0.00    +0.000 OA
ATOM     15  H   UNL     1      50.411 240.661 326.222  0.00  0.00    +0.000 HD
ENDBRANCH   8  14
TORSDOF 2
ENDMDL
MODEL 2
REMARK VINA RESULT:      -4.7     20.326     21.393
REMARK  Name = 5281416_Esculetin.pdbqt.pdb
REMARK  2 active torsions:
REMARK  status: ('A' for Active; 'I' for Inactive)
REMARK    1  A    between atoms: C_7  and  O_12
REMARK    2  A    between atoms: C_8  and  O_14
REMARK                            x       y       z     vdW  Elec       q    Type
REMARK                         _______ _______ _______ _____ _____    ______ ____
ROOT
ATOM      1  O   UNL     1      57.937 222.453 324.391  0.00  0.00    +0.000 OA
ATOM      2  O   UNL     1      56.454 220.754 323.743  0.00  0.00    +0.000 OA
ATOM      3  C   UNL     1      58.387 222.654 326.835  0.00  0.00    +0.000 A 
ATOM      4  C   UNL     1      58.602 223.100 325.502  0.00  0.00    +0.000 A 
ATOM      5  C   UNL     1      59.020 223.268 327.904  0.00  0.00    +0.000 A 
ATOM      6  C   UNL     1      59.449 224.162 325.221  0.00  0.00    +0.000 A 
ATOM      7  C   UNL     1      59.870 224.334 327.618  0.00  0.00    +0.000 A 
ATOM      8  C   UNL     1      60.079 224.771 326.301  0.00  0.00    +0.000 A 
ATOM      9  C   UNL     1      57.493 221.560 326.943  0.00  0.00    +0.000 A 
ATOM     10  C   UNL     1      56.955 221.041 326.012  0.00  0.00    +0.000 A 
ATOM     11  C   UNL     1      57.057 221.359 324.615  0.00  0.00    +0.000 A 
ENDROOT
BRANCH   7  12
ATOM     12  O   UNL     1      60.533 224.994 328.620  0.00  0.00    +0.000 OA
ATOM     13  H   UNL     1      61.282 225.472 328.218  0.00  0.00    +0.000 HD
ENDBRANCH   7  12
BRANCH   8  14
ATOM     14  O   UNL     1      60.923 225.822 326.067  0.00  0.00    +0.000 OA
ATOM     15  H   UNL     1      60.894 226.362 326.882  0.00  0.00    +0.000 HD
ENDBRANCH   8  14
TORSDOF 2
ENDMDL
MODEL 3
REMARK VINA RESULT:      -4.5     23.101     24.354
REMARK  Name = 5281416_Esculetin.pdbqt.pdb
REMARK  2 active torsions:
REMARK  status: ('A' for Active; 'I' for Inactive)
REMARK    1  A    between atoms: C_7  and  O_12
REMARK    2  A    between atoms: C_8  and  O_14
REMARK                            x       y       z     vdW  Elec       q    Type
REMARK                         _______ _______ _______ _____ _____    ______ ____
ROOT
ATOM      1  O   UNL     1      53.390 238.529 349.204  0.00  0.00    +0.000 OA
ATOM      2  O   UNL     1      51.291 237.782 348.468  0.00  0.00    +0.000 OA
ATOM      3  C   UNL     1      54.354 240.484 347.992  0.00  0.00    +0.000 A 
ATOM      4  C   UNL     1      54.450 239.495 349.010  0.00  0.00    +0.000 A 
ATOM      5  C   UNL     1      55.365 241.412 347.801  0.00  0.00    +0.000 A 
ATOM      6  C   UNL     1      55.555 239.421 349.845  0.00  0.00    +0.000 A 
ATOM      7  C   UNL     1      56.473 241.335 348.642  0.00  0.00    +0.000 A 
ATOM      8  C   UNL     1      56.564 240.357 349.644  0.00  0.00    +0.000 A 
ATOM      9  C   UNL     1      53.161 240.416 347.231  0.00  0.00    +0.000 A 
ATOM     10  C   UNL     1      52.298 239.611 347.408  0.00  0.00    +0.000 A 
ATOM     11  C   UNL     1      52.232 238.553 348.379  0.00  0.00    +0.000 A 
ENDROOT
BRANCH   7  12
ATOM     12  O   UNL     1      57.515 242.216 348.516  0.00  0.00    +0.000 OA
ATOM     13  H   UNL     1      57.732 242.288 347.568  0.00  0.00    +0.000 HD
ENDBRANCH   7  12
BRANCH   8  14
ATOM     14  O   UNL     1      57.671 240.319 350.447  0.00  0.00    +0.000 OA
ATOM     15  H   UNL     1      57.766 241.227 350.799  0.00  0.00    +0.000 HD
ENDBRANCH   8  14
TORSDOF 2
ENDMDL
MODEL 4
REMARK VINA RESULT:      -4.3     18.139     19.519
REMARK  Name = 5281416_Esculetin.pdbqt.pdb
REMARK  2 active torsions:
REMARK  status: ('A' for Active; 'I' for Inactive)
REMARK    1  A    between atoms: C_7  and  O_12
REMARK    2  A    between atoms: C_8  and  O_14
REMARK                            x       y       z     vdW  Elec       q    Type
REMARK                         _______ _______ _______ _____ _____    ______ ____
ROOT
ATOM      1  O   UNL     1      63.603 241.189 338.807  0.00  0.00    +0.000 OA
ATOM      2  O   UNL     1      62.435 242.878 339.943  0.00  0.00    +0.000 OA
ATOM      3  C   UNL     1      65.638 240.300 339.941  0.00  0.00    +0.000 A 
ATOM      4  C   UNL     1      64.740 240.295 338.838  0.00  0.00    +0.000 A 
ATOM      5  C   UNL     1      66.729 239.446 339.977  0.00  0.00    +0.000 A 
ATOM      6  C   UNL     1      64.921 239.439 337.761  0.00  0.00    +0.000 A 
ATOM      7  C   UNL     1      66.908 238.588 338.894  0.00  0.00    +0.000 A 
ATOM      8  C   UNL     1      66.019 238.586 337.808  0.00  0.00    +0.000 A 
ATOM      9  C   UNL     1      65.306 241.234 340.952  0.00  0.00    +0.000 A 
ATOM     10  C   UNL     1      64.362 241.964 340.908  0.00  0.00    +0.000 A 
ATOM     11  C   UNL     1      63.364 242.090 339.882  0.00  0.00    +0.000 A 
ENDROOT
BRANCH   7  12
ATOM     12  O   UNL     1      67.962 237.714 338.855  0.00  0.00    +0.000 OA
ATOM     13  H   UNL     1      68.019 237.276 339.724  0.00  0.00    +0.000 HD
ENDBRANCH   7  12
BRANCH   8  14
ATOM     14  O   UNL     1      66.233 237.727 336.765  0.00  0.00    +0.000 OA
ATOM     15  H   UNL     1      67.205 237.677 336.668  0.00  0.00    +0.000 HD
ENDBRANCH   8  14
TORSDOF 2
ENDMDL
MODEL 5
REMARK VINA RESULT:      -4.1     36.437     36.922
REMARK  Name = 5281416_Esculetin.pdbqt.pdb
REMARK  2 active torsions:
REMARK  status: ('A' for Active; 'I' for Inactive)
REMARK    1  A    between atoms: C_7  and  O_12
REMARK    2  A    between atoms: C_8  and  O_14
REMARK                            x       y       z     vdW  Elec       q    Type
REMARK                         _______ _______ _______ _____ _____    ______ ____
ROOT
ATOM      1  O   UNL     1      74.036 222.673 347.817  0.00  0.00    +0.000 OA
ATOM      2  O   UNL     1      76.104 223.492 347.070  0.00  0.00    +0.000 OA
ATOM      3  C   UNL     1      72.643 224.248 349.157  0.00  0.00    +0.000 A 
ATOM      4  C   UNL     1      72.830 222.972 348.559  0.00  0.00    +0.000 A 
ATOM      5  C   UNL     1      71.491 224.541 349.868  0.00  0.00    +0.000 A 
ATOM      6  C   UNL     1      71.870 221.975 348.663  0.00  0.00    +0.000 A 
ATOM      7  C   UNL     1      70.529 223.539 349.972  0.00  0.00    +0.000 A 
ATOM      8  C   UNL     1      70.717 222.280 349.379  0.00  0.00    +0.000 A 
ATOM      9  C   UNL     1      73.720 225.146 348.953  0.00  0.00    +0.000 A 
ATOM     10  C   UNL     1      74.707 224.879 348.338  0.00  0.00    +0.000 A 
ATOM     11  C   UNL     1      75.057 223.653 347.675  0.00  0.00    +0.000 A 
ENDROOT
BRANCH   7  12
ATOM     12  O   UNL     1      69.362 223.750 350.658  0.00  0.00    +0.000 OA
ATOM     13  H   UNL     1      69.431 223.288 351.514  0.00  0.00    +0.000 HD
ENDBRANCH   7  12
BRANCH   8  14
ATOM     14  O   UNL     1      69.746 221.325 349.506  0.00  0.00    +0.000 OA
ATOM     15  H   UNL     1      69.776 220.815 348.671  0.00  0.00    +0.000 HD
ENDBRANCH   8  14
TORSDOF 2
ENDMDL
MODEL 6
REMARK VINA RESULT:      -4.0     25.113     26.677
REMARK  Name = 5281416_Esculetin.pdbqt.pdb
REMARK  2 active torsions:
REMARK  status: ('A' for Active; 'I' for Inactive)
REMARK    1  A    between atoms: C_7  and  O_12
REMARK    2  A    between atoms: C_8  and  O_14
REMARK                            x       y       z     vdW  Elec       q    Type
REMARK                         _______ _______ _______ _____ _____    ______ ____
ROOT
ATOM      1  O   UNL     1      55.349 218.066 330.307  0.00  0.00    +0.000 OA
ATOM      2  O   UNL     1      53.577 219.072 329.143  0.00  0.00    +0.000 OA
ATOM      3  C   UNL     1      55.384 218.407 332.777  0.00  0.00    +0.000 A 
ATOM      4  C   UNL     1      55.959 217.851 331.601  0.00  0.00    +0.000 A 
ATOM      5  C   UNL     1      55.963 218.205 334.019  0.00  0.00    +0.000 A 
ATOM      6  C   UNL     1      57.117 217.088 331.653  0.00  0.00    +0.000 A 
ATOM      7  C   UNL     1      57.125 217.439 334.068  0.00  0.00    +0.000 A 
ATOM      8  C   UNL     1      57.690 216.892 332.905  0.00  0.00    +0.000 A 
ATOM      9  C   UNL     1      54.205 219.157 332.544  0.00  0.00    +0.000 A 
ATOM     10  C   UNL     1      53.717 219.323 331.467  0.00  0.00    +0.000 A 
ATOM     11  C   UNL     1      54.161 218.839 330.189  0.00  0.00    +0.000 A 
ENDROOT
BRANCH   7  12
ATOM     12  O   UNL     1      57.758 217.194 335.258  0.00  0.00    +0.000 OA
ATOM     13  H   UNL     1      58.266 217.992 335.496  0.00  0.00    +0.000 HD
ENDBRANCH   7  12
BRANCH   8  14
ATOM     14  O   UNL     1      58.832 216.146 333.000  0.00  0.00    +0.000 OA
ATOM     15  H   UNL     1      59.383 216.601 333.668  0.00  0.00    +0.000 HD
ENDBRANCH   8  14
TORSDOF 2
ENDMDL
MODEL 7
REMARK VINA RESULT:      -3.9     18.491     20.080
REMARK  Name = 5281416_Esculetin.pdbqt.pdb
REMARK  2 active torsions:
REMARK  status: ('A' for Active; 'I' for Inactive)
REMARK    1  A    between atoms: C_7  and  O_12
REMARK    2  A    between atoms: C_8  and  O_14
REMARK                            x       y       z     vdW  Elec       q    Type
REMARK                         _______ _______ _______ _____ _____    ______ ____
ROOT
ATOM      1  O   UNL     1      65.587 240.562 341.301  0.00  0.00    +0.000 OA
ATOM      2  O   UNL     1      64.597 242.434 342.312  0.00  0.00    +0.000 OA
ATOM      3  C   UNL     1      64.967 240.134 338.924  0.00  0.00    +0.000 A 
ATOM      4  C   UNL     1      65.695 239.775 340.092  0.00  0.00    +0.000 A 
ATOM      5  C   UNL     1      65.066 239.385 337.762  0.00  0.00    +0.000 A 
ATOM      6  C   UNL     1      66.527 238.665 340.113  0.00  0.00    +0.000 A 
ATOM      7  C   UNL     1      65.902 238.271 337.787  0.00  0.00    +0.000 A 
ATOM      8  C   UNL     1      66.618 237.920 338.942  0.00  0.00    +0.000 A 
ATOM      9  C   UNL     1      64.167 241.293 339.075  0.00  0.00    +0.000 A 
ATOM     10  C   UNL     1      64.092 241.930 340.083  0.00  0.00    +0.000 A 
ATOM     11  C   UNL     1      64.750 241.711 341.341  0.00  0.00    +0.000 A 
ENDROOT
BRANCH   7  12
ATOM     12  O   UNL     1      66.053 237.479 336.679  0.00  0.00    +0.000 OA
ATOM     13  H   UNL     1      66.842 237.788 336.197  0.00  0.00    +0.000 HD
ENDBRANCH   7  12
BRANCH   8  14
ATOM     14  O   UNL     1      67.428 236.818 338.921  0.00  0.00    +0.000 OA
ATOM     15  H   UNL     1      68.041 236.934 339.675  0.00  0.00    +0.000 HD
ENDBRANCH   8  14
TORSDOF 2
ENDMDL
MODEL 8
REMARK VINA RESULT:      -3.9     21.636     23.926
REMARK  Name = 5281416_Esculetin.pdbqt.pdb
REMARK  2 active torsions:
REMARK  status: ('A' for Active; 'I' for Inactive)
REMARK    1  A    between atoms: C_7  and  O_12
REMARK    2  A    between atoms: C_8  and  O_14
REMARK                            x       y       z     vdW  Elec       q    Type
REMARK                         _______ _______ _______ _____ _____    ______ ____
ROOT
ATOM      1  O   UNL     1      52.821 240.725 350.032  0.00  0.00    +0.000 OA
ATOM      2  O   UNL     1      51.208 239.183 350.759  0.00  0.00    +0.000 OA
ATOM      3  C   UNL     1      53.303 240.750 347.586  0.00  0.00    +0.000 A 
ATOM      4  C   UNL     1      53.541 241.254 348.894  0.00  0.00    +0.000 A 
ATOM      5  C   UNL     1      53.988 241.252 346.492  0.00  0.00    +0.000 A 
ATOM      6  C   UNL     1      54.465 242.264 349.124  0.00  0.00    +0.000 A 
ATOM      7  C   UNL     1      54.915 242.265 346.726  0.00  0.00    +0.000 A 
ATOM      8  C   UNL     1      55.147 242.760 348.018  0.00  0.00    +0.000 A 
ATOM      9  C   UNL     1      52.329 239.723 347.531  0.00  0.00    +0.000 A 
ATOM     10  C   UNL     1      51.746 239.300 348.483  0.00  0.00    +0.000 A 
ATOM     11  C   UNL     1      51.861 239.690 349.861  0.00  0.00    +0.000 A 
ENDROOT
BRANCH   7  12
ATOM     12  O   UNL     1      55.633 242.814 345.696  0.00  0.00    +0.000 OA
ATOM     13  H   UNL     1      55.719 242.138 344.998  0.00  0.00    +0.000 HD
ENDBRANCH   7  12
BRANCH   8  14
ATOM     14  O   UNL     1      56.066 243.756 348.202  0.00  0.00    +0.000 OA
ATOM     15  H   UNL     1      56.521 243.536 349.040  0.00  0.00    +0.000 HD
ENDBRANCH   8  14
TORSDOF 2
ENDMDL
MODEL 9
REMARK VINA RESULT:      -3.9     21.003     23.901
REMARK  Name = 5281416_Esculetin.pdbqt.pdb
REMARK  2 active torsions:
REMARK  status: ('A' for Active; 'I' for Inactive)
REMARK    1  A    between atoms: C_7  and  O_12
REMARK    2  A    between atoms: C_8  and  O_14
REMARK                            x       y       z     vdW  Elec       q    Type
REMARK                         _______ _______ _______ _____ _____    ______ ____
ROOT
ATOM      1  O   UNL     1      55.358 240.577 349.846  0.00  0.00    +0.000 OA
ATOM      2  O   UNL     1      54.951 239.246 351.735  0.00  0.00    +0.000 OA
ATOM      3  C   UNL     1      53.630 240.502 348.049  0.00  0.00    +0.000 A 
ATOM      4  C   UNL     1      54.864 240.999 348.553  0.00  0.00    +0.000 A 
ATOM      5  C   UNL     1      53.152 240.902 346.812  0.00  0.00    +0.000 A 
ATOM      6  C   UNL     1      55.632 241.899 347.828  0.00  0.00    +0.000 A 
ATOM      7  C   UNL     1      53.925 241.805 346.086  0.00  0.00    +0.000 A 
ATOM      8  C   UNL     1      55.142 242.293 346.587  0.00  0.00    +0.000 A 
ATOM      9  C   UNL     1      52.976 239.594 348.917  0.00  0.00    +0.000 A 
ATOM     10  C   UNL     1      53.400 239.259 349.981  0.00  0.00    +0.000 A 
ATOM     11  C   UNL     1      54.615 239.657 350.636  0.00  0.00    +0.000 A 
ENDROOT
BRANCH   7  12
ATOM     12  O   UNL     1      53.520 242.248 344.855  0.00  0.00    +0.000 OA
ATOM     13  H   UNL     1      53.052 243.094 344.981  0.00  0.00    +0.000 HD
ENDBRANCH   7  12
BRANCH   8  14
ATOM     14  O   UNL     1      55.869 243.178 345.840  0.00  0.00    +0.000 OA
ATOM     15  H   UNL     1      56.559 243.520 346.445  0.00  0.00    +0.000 HD
ENDBRANCH   8  14
TORSDOF 2
ENDMDL
