MODEL 1
REMARK VINA RESULT:      -6.0      0.000      0.000
REMARK  Name = 5281224_Astaxanthin.pdbqt.pdb
REMARK  16 active torsions:
REMARK  status: ('A' for Active; 'I' for Inactive)
REMARK    1  A    between atoms: C_1  and  C_5
REMARK    2  A    between atoms: C_2  and  C_27
REMARK    3  A    between atoms: C_3  and  C_5
REMARK    4  A    between atoms: C_3  and  C_7
REMARK    5  A    between atoms: C_6  and  C_10
REMARK    6  A    between atoms: C_8  and  C_10
REMARK    7  A    between atoms: C_8  and  C_12
REMARK    8  A    between atoms: C_11  and  C_16
REMARK    9  A    between atoms: C_17  and  O_23
REMARK   10  A    between atoms: C_25  and  C_27
REMARK   11  A    between atoms: C_25  and  C_29
REMARK   12  A    between atoms: C_28  and  C_32
REMARK   13  A    between atoms: C_30  and  C_32
REMARK   14  A    between atoms: C_30  and  C_34
REMARK   15  A    between atoms: C_33  and  C_38
REMARK   16  A    between atoms: C_39  and  O_45
REMARK                            x       y       z     vdW  Elec       q    Type
REMARK                         _______ _______ _______ _____ _____    ______ ____
ROOT
ATOM      1  C   UNL     1      51.327 218.598 331.861  0.00  0.00    +0.000 C 
ATOM      2  C   UNL     1      52.365 218.230 331.384  0.00  0.00    +0.000 C 
ENDROOT
BRANCH   2   3
ATOM      3  C   UNL     1      53.687 217.754 330.768  0.00  0.00    +0.000 C 
BRANCH   3   4
ATOM      4  C   UNL     1      54.807 217.357 330.251  0.00  0.00    +0.000 C 
ATOM      5  C   UNL     1      55.509 216.160 330.817  0.00  0.00    +0.000 C 
BRANCH   4   7
ATOM      6  C   UNL     1      55.915 218.728 328.318  0.00  0.00    +0.000 C 
ATOM      7  C   UNL     1      55.407 218.101 329.207  0.00  0.00    +0.000 C 
BRANCH   6   8
ATOM      8  C   UNL     1      56.563 219.527 327.181  0.00  0.00    +0.000 C 
BRANCH   8   9
ATOM      9  C   UNL     1      57.119 220.202 326.223  0.00  0.00    +0.000 C 
ATOM     10  C   UNL     1      56.533 220.163 324.844  0.00  0.00    +0.000 C 
BRANCH   9  12
ATOM     11  C   UNL     1      59.089 221.849 326.741  0.00  0.00    +0.000 C 
ATOM     12  C   UNL     1      58.183 221.091 326.515  0.00  0.00    +0.000 C 
BRANCH  11  16
ATOM     13  O   UNL     1      63.534 222.781 328.584  0.00  0.00    +0.000 OA
ATOM     14  C   UNL     1      60.035 224.222 326.492  0.00  0.00    +0.000 C 
ATOM     15  C   UNL     1      61.264 224.890 326.883  0.00  0.00    +0.000 C 
ATOM     16  C   UNL     1      60.185 222.763 326.996  0.00  0.00    +0.000 C 
ATOM     17  C   UNL     1      62.447 224.574 327.543  0.00  0.00    +0.000 C 
ATOM     18  C   UNL     1      59.898 224.213 324.951  0.00  0.00    +0.000 C 
ATOM     19  C   UNL     1      58.824 224.884 327.186  0.00  0.00    +0.000 C 
ATOM     20  C   UNL     1      61.296 222.320 327.654  0.00  0.00    +0.000 C 
ATOM     21  C   UNL     1      62.532 223.168 327.996  0.00  0.00    +0.000 C 
ATOM     22  C   UNL     1      61.352 220.852 328.098  0.00  0.00    +0.000 C 
BRANCH  17  23
ATOM     23  O   UNL     1      63.451 225.481 327.753  0.00  0.00    +0.000 OA
ATOM     24  H   UNL     1      63.229 226.345 327.348  0.00  0.00    +0.000 HD
ENDBRANCH  17  23
ENDBRANCH  11  16
ENDBRANCH   9  12
ENDBRANCH   8   9
ENDBRANCH   6   8
ENDBRANCH   4   7
ENDBRANCH   3   4
ENDBRANCH   2   3
BRANCH   1  25
ATOM     25  C   UNL     1      49.996 219.062 332.464  0.00  0.00    +0.000 C 
BRANCH  25  26
ATOM     26  C   UNL     1      48.872 219.450 332.978  0.00  0.00    +0.000 C 
ATOM     27  C   UNL     1      48.170 218.584 333.981  0.00  0.00    +0.000 C 
BRANCH  26  29
ATOM     28  C   UNL     1      47.751 221.664 332.150  0.00  0.00    +0.000 C 
ATOM     29  C   UNL     1      48.264 220.646 332.529  0.00  0.00    +0.000 C 
BRANCH  28  30
ATOM     30  C   UNL     1      47.096 222.965 331.668  0.00  0.00    +0.000 C 
BRANCH  30  31
ATOM     31  C   UNL     1      46.547 224.062 331.252  0.00  0.00    +0.000 C 
ATOM     32  C   UNL     1      46.860 224.584 329.883  0.00  0.00    +0.000 C 
BRANCH  31  34
ATOM     33  C   UNL     1      44.678 225.188 332.703  0.00  0.00    +0.000 C 
ATOM     34  C   UNL     1      45.533 224.678 332.028  0.00  0.00    +0.000 C 
BRANCH  33  38
ATOM     35  O   UNL     1      42.782 229.066 335.023  0.00  0.00    +0.000 OA
ATOM     36  C   UNL     1      42.482 224.876 333.996  0.00  0.00    +0.000 C 
ATOM     37  C   UNL     1      41.621 225.736 334.790  0.00  0.00    +0.000 C 
ATOM     38  C   UNL     1      43.647 225.787 333.529  0.00  0.00    +0.000 C 
ATOM     39  C   UNL     1      41.583 227.065 335.203  0.00  0.00    +0.000 C 
ATOM     40  C   UNL     1      41.718 224.356 332.755  0.00  0.00    +0.000 C 
ATOM     41  C   UNL     1      43.042 223.731 334.867  0.00  0.00    +0.000 C 
ATOM     42  C   UNL     1      43.730 227.109 333.858  0.00  0.00    +0.000 C 
ATOM     43  C   UNL     1      42.718 227.881 334.721  0.00  0.00    +0.000 C 
ATOM     44  C   UNL     1      44.917 227.927 333.331  0.00  0.00    +0.000 C 
BRANCH  39  45
ATOM     45  O   UNL     1      40.581 227.575 335.982  0.00  0.00    +0.000 OA
ATOM     46  H   UNL     1      40.950 228.017 336.775  0.00  0.00    +0.000 HD
ENDBRANCH  39  45
ENDBRANCH  33  38
ENDBRANCH  31  34
ENDBRANCH  30  31
ENDBRANCH  28  30
ENDBRANCH  26  29
ENDBRANCH  25  26
ENDBRANCH   1  25
TORSDOF 16
ENDMDL
MODEL 2
REMARK VINA RESULT:      -5.9     13.177     17.546
REMARK  Name = 5281224_Astaxanthin.pdbqt.pdb
REMARK  16 active torsions:
REMARK  status: ('A' for Active; 'I' for Inactive)
REMARK    1  A    between atoms: C_1  and  C_5
REMARK    2  A    between atoms: C_2  and  C_27
REMARK    3  A    between atoms: C_3  and  C_5
REMARK    4  A    between atoms: C_3  and  C_7
REMARK    5  A    between atoms: C_6  and  C_10
REMARK    6  A    between atoms: C_8  and  C_10
REMARK    7  A    between atoms: C_8  and  C_12
REMARK    8  A    between atoms: C_11  and  C_16
REMARK    9  A    between atoms: C_17  and  O_23
REMARK   10  A    between atoms: C_25  and  C_27
REMARK   11  A    between atoms: C_25  and  C_29
REMARK   12  A    between atoms: C_28  and  C_32
REMARK   13  A    between atoms: C_30  and  C_32
REMARK   14  A    between atoms: C_30  and  C_34
REMARK   15  A    between atoms: C_33  and  C_38
REMARK   16  A    between atoms: C_39  and  O_45
REMARK                            x       y       z     vdW  Elec       q    Type
REMARK                         _______ _______ _______ _____ _____    ______ ____
ROOT
ATOM      1  C   UNL     1      64.755 215.570 342.675  0.00  0.00    +0.000 C 
ATOM      2  C   UNL     1      65.711 215.838 342.002  0.00  0.00    +0.000 C 
ENDROOT
BRANCH   2   3
ATOM      3  C   UNL     1      66.937 216.173 341.142  0.00  0.00    +0.000 C 
BRANCH   3   4
ATOM      4  C   UNL     1      67.972 216.461 340.418  0.00  0.00    +0.000 C 
ATOM      5  C   UNL     1      68.347 215.581 339.264  0.00  0.00    +0.000 C 
BRANCH   4   7
ATOM      6  C   UNL     1      69.490 218.492 341.063  0.00  0.00    +0.000 C 
ATOM      7  C   UNL     1      68.794 217.561 340.765  0.00  0.00    +0.000 C 
BRANCH   6   8
ATOM      8  C   UNL     1      70.381 219.679 341.446  0.00  0.00    +0.000 C 
BRANCH   8   9
ATOM      9  C   UNL     1      71.142 220.679 341.770  0.00  0.00    +0.000 C 
ATOM     10  C   UNL     1      71.572 220.861 343.194  0.00  0.00    +0.000 C 
BRANCH   9  12
ATOM     11  C   UNL     1      72.141 222.225 339.906  0.00  0.00    +0.000 C 
ATOM     12  C   UNL     1      71.685 221.506 340.756  0.00  0.00    +0.000 C 
BRANCH  11  16
ATOM     13  O   UNL     1      75.093 225.904 338.576  0.00  0.00    +0.000 OA
ATOM     14  C   UNL     1      72.180 222.920 337.435  0.00  0.00    +0.000 C 
ATOM     15  C   UNL     1      72.885 223.922 336.655  0.00  0.00    +0.000 C 
ATOM     16  C   UNL     1      72.682 223.107 338.890  0.00  0.00    +0.000 C 
ATOM     17  C   UNL     1      73.822 224.928 336.870  0.00  0.00    +0.000 C 
ATOM     18  C   UNL     1      72.558 221.501 336.948  0.00  0.00    +0.000 C 
ATOM     19  C   UNL     1      70.657 223.174 337.380  0.00  0.00    +0.000 C 
ATOM     20  C   UNL     1      73.604 224.052 339.237  0.00  0.00    +0.000 C 
ATOM     21  C   UNL     1      74.265 225.054 338.276  0.00  0.00    +0.000 C 
ATOM     22  C   UNL     1      74.047 224.145 340.704  0.00  0.00    +0.000 C 
BRANCH  17  23
ATOM     23  O   UNL     1      74.301 225.729 335.868  0.00  0.00    +0.000 OA
ATOM     24  H   UNL     1      73.849 225.535 335.022  0.00  0.00    +0.000 HD
ENDBRANCH  17  23
ENDBRANCH  11  16
ENDBRANCH   9  12
ENDBRANCH   8   9
ENDBRANCH   6   8
ENDBRANCH   4   7
ENDBRANCH   3   4
ENDBRANCH   2   3
BRANCH   1  25
ATOM     25  C   UNL     1      63.538 215.219 343.539  0.00  0.00    +0.000 C 
BRANCH  25  26
ATOM     26  C   UNL     1      62.507 214.919 344.265  0.00  0.00    +0.000 C 
ATOM     27  C   UNL     1      62.692 214.544 345.705  0.00  0.00    +0.000 C 
BRANCH  26  29
ATOM     28  C   UNL     1      60.130 214.814 343.179  0.00  0.00    +0.000 C 
ATOM     29  C   UNL     1      61.221 214.861 343.679  0.00  0.00    +0.000 C 
BRANCH  28  30
ATOM     30  C   UNL     1      58.737 214.756 342.539  0.00  0.00    +0.000 C 
BRANCH  30  31
ATOM     31  C   UNL     1      57.564 214.709 341.991  0.00  0.00    +0.000 C 
ATOM     32  C   UNL     1      56.410 214.119 342.742  0.00  0.00    +0.000 C 
BRANCH  31  34
ATOM     33  C   UNL     1      57.142 215.922 339.707  0.00  0.00    +0.000 C 
ATOM     34  C   UNL     1      57.342 215.357 340.750  0.00  0.00    +0.000 C 
BRANCH  33  38
ATOM     35  O   UNL     1      57.225 220.004 336.995  0.00  0.00    +0.000 OA
ATOM     36  C   UNL     1      56.297 215.790 337.287  0.00  0.00    +0.000 C 
ATOM     37  C   UNL     1      56.155 216.732 336.190  0.00  0.00    +0.000 C 
ATOM     38  C   UNL     1      56.889 216.615 338.458  0.00  0.00    +0.000 C 
ATOM     39  C   UNL     1      56.399 218.081 335.947  0.00  0.00    +0.000 C 
ATOM     40  C   UNL     1      57.292 214.670 336.903  0.00  0.00    +0.000 C 
ATOM     41  C   UNL     1      54.914 215.236 337.696  0.00  0.00    +0.000 C 
ATOM     42  C   UNL     1      57.180 217.945 338.354  0.00  0.00    +0.000 C 
ATOM     43  C   UNL     1      56.968 218.811 337.101  0.00  0.00    +0.000 C 
ATOM     44  C   UNL     1      57.779 218.667 339.569  0.00  0.00    +0.000 C 
BRANCH  39  45
ATOM     45  O   UNL     1      56.141 218.681 334.744  0.00  0.00    +0.000 OA
ATOM     46  H   UNL     1      55.652 218.073 334.151  0.00  0.00    +0.000 HD
ENDBRANCH  39  45
ENDBRANCH  33  38
ENDBRANCH  31  34
ENDBRANCH  30  31
ENDBRANCH  28  30
ENDBRANCH  26  29
ENDBRANCH  25  26
ENDBRANCH   1  25
TORSDOF 16
ENDMDL
MODEL 3
REMARK VINA RESULT:      -5.8      8.204     12.071
REMARK  Name = 5281224_Astaxanthin.pdbqt.pdb
REMARK  16 active torsions:
REMARK  status: ('A' for Active; 'I' for Inactive)
REMARK    1  A    between atoms: C_1  and  C_5
REMARK    2  A    between atoms: C_2  and  C_27
REMARK    3  A    between atoms: C_3  and  C_5
REMARK    4  A    between atoms: C_3  and  C_7
REMARK    5  A    between atoms: C_6  and  C_10
REMARK    6  A    between atoms: C_8  and  C_10
REMARK    7  A    between atoms: C_8  and  C_12
REMARK    8  A    between atoms: C_11  and  C_16
REMARK    9  A    between atoms: C_17  and  O_23
REMARK   10  A    between atoms: C_25  and  C_27
REMARK   11  A    between atoms: C_25  and  C_29
REMARK   12  A    between atoms: C_28  and  C_32
REMARK   13  A    between atoms: C_30  and  C_32
REMARK   14  A    between atoms: C_30  and  C_34
REMARK   15  A    between atoms: C_33  and  C_38
REMARK   16  A    between atoms: C_39  and  O_45
REMARK                            x       y       z     vdW  Elec       q    Type
REMARK                         _______ _______ _______ _____ _____    ______ ____
ROOT
ATOM      1  C   UNL     1      64.405 217.859 334.901  0.00  0.00    +0.000 C 
ATOM      2  C   UNL     1      65.299 218.304 334.235  0.00  0.00    +0.000 C 
ENDROOT
BRANCH   2   3
ATOM      3  C   UNL     1      66.441 218.880 333.388  0.00  0.00    +0.000 C 
BRANCH   3   4
ATOM      4  C   UNL     1      67.408 219.361 332.672  0.00  0.00    +0.000 C 
ATOM      5  C   UNL     1      68.817 219.302 333.181  0.00  0.00    +0.000 C 
BRANCH   4   7
ATOM      6  C   UNL     1      66.886 220.567 330.410  0.00  0.00    +0.000 C 
ATOM      7  C   UNL     1      67.125 220.011 331.447  0.00  0.00    +0.000 C 
BRANCH   6   8
ATOM      8  C   UNL     1      66.583 221.279 329.087  0.00  0.00    +0.000 C 
BRANCH   8   9
ATOM      9  C   UNL     1      66.327 221.874 327.963  0.00  0.00    +0.000 C 
ATOM     10  C   UNL     1      67.323 221.820 326.844  0.00  0.00    +0.000 C 
BRANCH   9  12
ATOM     11  C   UNL     1      63.961 222.914 327.537  0.00  0.00    +0.000 C 
ATOM     12  C   UNL     1      65.048 222.442 327.743  0.00  0.00    +0.000 C 
BRANCH  11  16
ATOM     13  O   UNL     1      59.133 223.080 328.364  0.00  0.00    +0.000 OA
ATOM     14  C   UNL     1      62.560 224.618 326.224  0.00  0.00    +0.000 C 
ATOM     15  C   UNL     1      61.154 224.978 326.171  0.00  0.00    +0.000 C 
ATOM     16  C   UNL     1      62.652 223.478 327.271  0.00  0.00    +0.000 C 
ATOM     17  C   UNL     1      59.964 224.586 326.776  0.00  0.00    +0.000 C 
ATOM     18  C   UNL     1      63.401 225.822 326.712  0.00  0.00    +0.000 C 
ATOM     19  C   UNL     1      63.029 224.093 324.849  0.00  0.00    +0.000 C 
ATOM     20  C   UNL     1      61.562 223.002 327.941  0.00  0.00    +0.000 C 
ATOM     21  C   UNL     1      60.117 223.498 327.768  0.00  0.00    +0.000 C 
ATOM     22  C   UNL     1      61.762 221.881 328.970  0.00  0.00    +0.000 C 
BRANCH  17  23
ATOM     23  O   UNL     1      58.754 225.159 326.487  0.00  0.00    +0.000 OA
ATOM     24  H   UNL     1      58.543 225.866 327.129  0.00  0.00    +0.000 HD
ENDBRANCH  17  23
ENDBRANCH  11  16
ENDBRANCH   9  12
ENDBRANCH   8   9
ENDBRANCH   6   8
ENDBRANCH   4   7
ENDBRANCH   3   4
ENDBRANCH   2   3
BRANCH   1  25
ATOM     25  C   UNL     1      63.263 217.300 335.757  0.00  0.00    +0.000 C 
BRANCH  25  26
ATOM     26  C   UNL     1      62.296 216.824 336.476  0.00  0.00    +0.000 C 
ATOM     27  C   UNL     1      62.584 215.799 337.532  0.00  0.00    +0.000 C 
BRANCH  26  29
ATOM     28  C   UNL     1      59.828 217.533 335.979  0.00  0.00    +0.000 C 
ATOM     29  C   UNL     1      60.960 217.207 336.208  0.00  0.00    +0.000 C 
BRANCH  28  30
ATOM     30  C   UNL     1      58.382 217.953 335.684  0.00  0.00    +0.000 C 
BRANCH  30  31
ATOM     31  C   UNL     1      57.158 218.304 335.443  0.00  0.00    +0.000 C 
ATOM     32  C   UNL     1      56.390 219.089 336.463  0.00  0.00    +0.000 C 
BRANCH  31  34
ATOM     33  C   UNL     1      56.125 217.878 333.073  0.00  0.00    +0.000 C 
ATOM     34  C   UNL     1      56.604 218.084 334.157  0.00  0.00    +0.000 C 
BRANCH  33  38
ATOM     35  O   UNL     1      56.545 216.309 328.449  0.00  0.00    +0.000 OA
ATOM     36  C   UNL     1      54.037 217.921 331.582  0.00  0.00    +0.000 C 
ATOM     37  C   UNL     1      53.744 217.560 330.205  0.00  0.00    +0.000 C 
ATOM     38  C   UNL     1      55.544 217.611 331.771  0.00  0.00    +0.000 C 
ATOM     39  C   UNL     1      54.422 217.046 329.103  0.00  0.00    +0.000 C 
ATOM     40  C   UNL     1      53.213 217.041 332.551  0.00  0.00    +0.000 C 
ATOM     41  C   UNL     1      53.790 219.430 331.801  0.00  0.00    +0.000 C 
ATOM     42  C   UNL     1      56.326 217.100 330.775  0.00  0.00    +0.000 C 
ATOM     43  C   UNL     1      55.854 216.767 329.350  0.00  0.00    +0.000 C 
ATOM     44  C   UNL     1      57.804 216.814 331.072  0.00  0.00    +0.000 C 
BRANCH  39  45
ATOM     45  O   UNL     1      53.819 216.813 327.898  0.00  0.00    +0.000 OA
ATOM     46  H   UNL     1      54.208 216.027 327.462  0.00  0.00    +0.000 HD
ENDBRANCH  39  45
ENDBRANCH  33  38
ENDBRANCH  31  34
ENDBRANCH  30  31
ENDBRANCH  28  30
ENDBRANCH  26  29
ENDBRANCH  25  26
ENDBRANCH   1  25
TORSDOF 16
ENDMDL
MODEL 4
REMARK VINA RESULT:      -5.7      9.653     15.663
REMARK  Name = 5281224_Astaxanthin.pdbqt.pdb
REMARK  16 active torsions:
REMARK  status: ('A' for Active; 'I' for Inactive)
REMARK    1  A    between atoms: C_1  and  C_5
REMARK    2  A    between atoms: C_2  and  C_27
REMARK    3  A    between atoms: C_3  and  C_5
REMARK    4  A    between atoms: C_3  and  C_7
REMARK    5  A    between atoms: C_6  and  C_10
REMARK    6  A    between atoms: C_8  and  C_10
REMARK    7  A    between atoms: C_8  and  C_12
REMARK    8  A    between atoms: C_11  and  C_16
REMARK    9  A    between atoms: C_17  and  O_23
REMARK   10  A    between atoms: C_25  and  C_27
REMARK   11  A    between atoms: C_25  and  C_29
REMARK   12  A    between atoms: C_28  and  C_32
REMARK   13  A    between atoms: C_30  and  C_32
REMARK   14  A    between atoms: C_30  and  C_34
REMARK   15  A    between atoms: C_33  and  C_38
REMARK   16  A    between atoms: C_39  and  O_45
REMARK                            x       y       z     vdW  Elec       q    Type
REMARK                         _______ _______ _______ _____ _____    ______ ____
ROOT
ATOM      1  C   UNL     1      56.659 218.739 335.564  0.00  0.00    +0.000 C 
ATOM      2  C   UNL     1      55.952 218.657 334.598  0.00  0.00    +0.000 C 
ENDROOT
BRANCH   2   3
ATOM      3  C   UNL     1      55.056 218.554 333.357  0.00  0.00    +0.000 C 
BRANCH   3   4
ATOM      4  C   UNL     1      54.304 218.468 332.305  0.00  0.00    +0.000 C 
ATOM      5  C   UNL     1      52.820 218.324 332.457  0.00  0.00    +0.000 C 
BRANCH   4   7
ATOM      6  C   UNL     1      55.385 218.393 329.924  0.00  0.00    +0.000 C 
ATOM      7  C   UNL     1      54.891 218.429 331.018  0.00  0.00    +0.000 C 
BRANCH   6   8
ATOM      8  C   UNL     1      56.014 218.346 328.527  0.00  0.00    +0.000 C 
BRANCH   8   9
ATOM      9  C   UNL     1      56.548 218.314 327.345  0.00  0.00    +0.000 C 
ATOM     10  C   UNL     1      56.368 217.107 326.476  0.00  0.00    +0.000 C 
BRANCH   9  12
ATOM     11  C   UNL     1      57.685 220.458 326.358  0.00  0.00    +0.000 C 
ATOM     12  C   UNL     1      57.168 219.476 326.822  0.00  0.00    +0.000 C 
BRANCH  11  16
ATOM     13  O   UNL     1      58.454 223.453 322.556  0.00  0.00    +0.000 OA
ATOM     14  C   UNL     1      59.205 222.497 326.705  0.00  0.00    +0.000 C 
ATOM     15  C   UNL     1      59.675 223.589 325.870  0.00  0.00    +0.000 C 
ATOM     16  C   UNL     1      58.303 221.636 325.783  0.00  0.00    +0.000 C 
ATOM     17  C   UNL     1      59.530 224.021 324.556  0.00  0.00    +0.000 C 
ATOM     18  C   UNL     1      58.355 223.047 327.874  0.00  0.00    +0.000 C 
ATOM     19  C   UNL     1      60.399 221.647 327.194  0.00  0.00    +0.000 C 
ATOM     20  C   UNL     1      58.073 221.950 324.474  0.00  0.00    +0.000 C 
ATOM     21  C   UNL     1      58.655 223.161 323.727  0.00  0.00    +0.000 C 
ATOM     22  C   UNL     1      57.150 221.040 323.651  0.00  0.00    +0.000 C 
BRANCH  17  23
ATOM     23  O   UNL     1      60.137 225.147 324.068  0.00  0.00    +0.000 OA
ATOM     24  H   UNL     1      59.630 225.948 324.312  0.00  0.00    +0.000 HD
ENDBRANCH  17  23
ENDBRANCH  11  16
ENDBRANCH   9  12
ENDBRANCH   8   9
ENDBRANCH   6   8
ENDBRANCH   4   7
ENDBRANCH   3   4
ENDBRANCH   2   3
BRANCH   1  25
ATOM     25  C   UNL     1      57.569 218.847 336.793  0.00  0.00    +0.000 C 
BRANCH  25  26
ATOM     26  C   UNL     1      58.335 218.943 337.834  0.00  0.00    +0.000 C 
ATOM     27  C   UNL     1      58.349 220.210 338.637  0.00  0.00    +0.000 C 
BRANCH  26  29
ATOM     28  C   UNL     1      59.972 216.996 338.441  0.00  0.00    +0.000 C 
ATOM     29  C   UNL     1      59.219 217.889 338.161  0.00  0.00    +0.000 C 
BRANCH  28  30
ATOM     30  C   UNL     1      60.934 215.856 338.801  0.00  0.00    +0.000 C 
BRANCH  30  31
ATOM     31  C   UNL     1      61.740 214.890 339.109  0.00  0.00    +0.000 C 
ATOM     32  C   UNL     1      62.136 213.885 338.070  0.00  0.00    +0.000 C 
BRANCH  31  34
ATOM     33  C   UNL     1      62.884 214.875 341.467  0.00  0.00    +0.000 C 
ATOM     34  C   UNL     1      62.368 214.877 340.380  0.00  0.00    +0.000 C 
BRANCH  33  38
ATOM     35  O   UNL     1      62.488 214.924 346.351  0.00  0.00    +0.000 OA
ATOM     36  C   UNL     1      65.039 214.865 342.860  0.00  0.00    +0.000 C 
ATOM     37  C   UNL     1      65.351 214.878 344.279  0.00  0.00    +0.000 C 
ATOM     38  C   UNL     1      63.491 214.883 342.784  0.00  0.00    +0.000 C 
ATOM     39  C   UNL     1      64.664 214.899 345.489  0.00  0.00    +0.000 C 
ATOM     40  C   UNL     1      65.563 213.563 342.210  0.00  0.00    +0.000 C 
ATOM     41  C   UNL     1      65.602 216.132 342.180  0.00  0.00    +0.000 C 
ATOM     42  C   UNL     1      62.695 214.900 343.893  0.00  0.00    +0.000 C 
ATOM     43  C   UNL     1      63.191 214.910 345.349  0.00  0.00    +0.000 C 
ATOM     44  C   UNL     1      61.172 214.900 343.708  0.00  0.00    +0.000 C 
BRANCH  39  45
ATOM     45  O   UNL     1      65.292 214.903 346.705  0.00  0.00    +0.000 OA
ATOM     46  H   UNL     1      64.687 215.224 347.406  0.00  0.00    +0.000 HD
ENDBRANCH  39  45
ENDBRANCH  33  38
ENDBRANCH  31  34
ENDBRANCH  30  31
ENDBRANCH  28  30
ENDBRANCH  26  29
ENDBRANCH  25  26
ENDBRANCH   1  25
TORSDOF 16
ENDMDL
MODEL 5
REMARK VINA RESULT:      -5.6     17.875     20.568
REMARK  Name = 5281224_Astaxanthin.pdbqt.pdb
REMARK  16 active torsions:
REMARK  status: ('A' for Active; 'I' for Inactive)
REMARK    1  A    between atoms: C_1  and  C_5
REMARK    2  A    between atoms: C_2  and  C_27
REMARK    3  A    between atoms: C_3  and  C_5
REMARK    4  A    between atoms: C_3  and  C_7
REMARK    5  A    between atoms: C_6  and  C_10
REMARK    6  A    between atoms: C_8  and  C_10
REMARK    7  A    between atoms: C_8  and  C_12
REMARK    8  A    between atoms: C_11  and  C_16
REMARK    9  A    between atoms: C_17  and  O_23
REMARK   10  A    between atoms: C_25  and  C_27
REMARK   11  A    between atoms: C_25  and  C_29
REMARK   12  A    between atoms: C_28  and  C_32
REMARK   13  A    between atoms: C_30  and  C_32
REMARK   14  A    between atoms: C_30  and  C_34
REMARK   15  A    between atoms: C_33  and  C_38
REMARK   16  A    between atoms: C_39  and  O_45
REMARK                            x       y       z     vdW  Elec       q    Type
REMARK                         _______ _______ _______ _____ _____    ______ ____
ROOT
ATOM      1  C   UNL     1      63.560 215.166 348.054  0.00  0.00    +0.000 C 
ATOM      2  C   UNL     1      63.663 215.180 346.859  0.00  0.00    +0.000 C 
ENDROOT
BRANCH   2   3
ATOM      3  C   UNL     1      63.791 215.191 345.330  0.00  0.00    +0.000 C 
BRANCH   3   4
ATOM      4  C   UNL     1      63.898 215.207 344.039  0.00  0.00    +0.000 C 
ATOM      5  C   UNL     1      62.698 214.923 343.186  0.00  0.00    +0.000 C 
BRANCH   4   7
ATOM      6  C   UNL     1      66.235 215.585 342.928  0.00  0.00    +0.000 C 
ATOM      7  C   UNL     1      65.162 215.411 343.436  0.00  0.00    +0.000 C 
BRANCH   6   8
ATOM      8  C   UNL     1      67.608 215.807 342.282  0.00  0.00    +0.000 C 
BRANCH   8   9
ATOM      9  C   UNL     1      68.772 215.987 341.739  0.00  0.00    +0.000 C 
ATOM     10  C   UNL     1      69.575 214.806 341.284  0.00  0.00    +0.000 C 
BRANCH   9  12
ATOM     11  C   UNL     1      69.603 218.406 341.173  0.00  0.00    +0.000 C 
ATOM     12  C   UNL     1      69.213 217.300 341.439  0.00  0.00    +0.000 C 
BRANCH  11  16
ATOM     13  O   UNL     1      69.530 222.396 338.328  0.00  0.00    +0.000 OA
ATOM     14  C   UNL     1      71.182 220.344 341.757  0.00  0.00    +0.000 C 
ATOM     15  C   UNL     1      71.463 221.653 341.192  0.00  0.00    +0.000 C 
ATOM     16  C   UNL     1      70.088 219.732 340.843  0.00  0.00    +0.000 C 
ATOM     17  C   UNL     1      71.031 222.432 340.124  0.00  0.00    +0.000 C 
ATOM     18  C   UNL     1      70.619 220.490 343.190  0.00  0.00    +0.000 C 
ATOM     19  C   UNL     1      72.447 219.459 341.708  0.00  0.00    +0.000 C 
ATOM     20  C   UNL     1      69.573 220.391 339.764  0.00  0.00    +0.000 C 
ATOM     21  C   UNL     1      69.985 221.796 339.292  0.00  0.00    +0.000 C 
ATOM     22  C   UNL     1      68.482 219.703 338.933  0.00  0.00    +0.000 C 
BRANCH  17  23
ATOM     23  O   UNL     1      71.524 223.682 339.863  0.00  0.00    +0.000 OA
ATOM     24  H   UNL     1      70.797 224.309 339.672  0.00  0.00    +0.000 HD
ENDBRANCH  17  23
ENDBRANCH  11  16
ENDBRANCH   9  12
ENDBRANCH   8   9
ENDBRANCH   6   8
ENDBRANCH   4   7
ENDBRANCH   3   4
ENDBRANCH   2   3
BRANCH   1  25
ATOM     25  C   UNL     1      63.423 215.139 349.581  0.00  0.00    +0.000 C 
BRANCH  25  26
ATOM     26  C   UNL     1      63.305 215.111 350.871  0.00  0.00    +0.000 C 
ATOM     27  C   UNL     1      64.471 214.695 351.718  0.00  0.00    +0.000 C 
BRANCH  26  29
ATOM     28  C   UNL     1      60.997 215.623 351.989  0.00  0.00    +0.000 C 
ATOM     29  C   UNL     1      62.056 215.388 351.474  0.00  0.00    +0.000 C 
BRANCH  28  30
ATOM     30  C   UNL     1      59.645 215.924 352.650  0.00  0.00    +0.000 C 
BRANCH  30  31
ATOM     31  C   UNL     1      58.507 216.185 353.210  0.00  0.00    +0.000 C 
ATOM     32  C   UNL     1      58.439 216.437 354.686  0.00  0.00    +0.000 C 
BRANCH  31  34
ATOM     33  C   UNL     1      56.374 216.574 351.738  0.00  0.00    +0.000 C 
ATOM     34  C   UNL     1      57.357 216.388 352.405  0.00  0.00    +0.000 C 
BRANCH  33  38
ATOM     35  O   UNL     1      53.298 215.257 348.157  0.00  0.00    +0.000 OA
ATOM     36  C   UNL     1      54.334 218.062 351.280  0.00  0.00    +0.000 C 
ATOM     37  C   UNL     1      53.222 218.032 350.345  0.00  0.00    +0.000 C 
ATOM     38  C   UNL     1      55.180 216.806 350.948  0.00  0.00    +0.000 C 
ATOM     39  C   UNL     1      52.764 217.223 349.309  0.00  0.00    +0.000 C 
ATOM     40  C   UNL     1      53.812 217.952 352.732  0.00  0.00    +0.000 C 
ATOM     41  C   UNL     1      55.186 219.331 351.055  0.00  0.00    +0.000 C 
ATOM     42  C   UNL     1      54.842 215.926 349.961  0.00  0.00    +0.000 C 
ATOM     43  C   UNL     1      53.612 216.039 349.045  0.00  0.00    +0.000 C 
ATOM     44  C   UNL     1      55.740 214.705 349.723  0.00  0.00    +0.000 C 
BRANCH  39  45
ATOM     45  O   UNL     1      51.626 217.492 348.599  0.00  0.00    +0.000 OA
ATOM     46  H   UNL     1      50.875 217.669 349.202  0.00  0.00    +0.000 HD
ENDBRANCH  39  45
ENDBRANCH  33  38
ENDBRANCH  31  34
ENDBRANCH  30  31
ENDBRANCH  28  30
ENDBRANCH  26  29
ENDBRANCH  25  26
ENDBRANCH   1  25
TORSDOF 16
ENDMDL
MODEL 6
REMARK VINA RESULT:      -5.6     22.889     27.755
REMARK  Name = 5281224_Astaxanthin.pdbqt.pdb
REMARK  16 active torsions:
REMARK  status: ('A' for Active; 'I' for Inactive)
REMARK    1  A    between atoms: C_1  and  C_5
REMARK    2  A    between atoms: C_2  and  C_27
REMARK    3  A    between atoms: C_3  and  C_5
REMARK    4  A    between atoms: C_3  and  C_7
REMARK    5  A    between atoms: C_6  and  C_10
REMARK    6  A    between atoms: C_8  and  C_10
REMARK    7  A    between atoms: C_8  and  C_12
REMARK    8  A    between atoms: C_11  and  C_16
REMARK    9  A    between atoms: C_17  and  O_23
REMARK   10  A    between atoms: C_25  and  C_27
REMARK   11  A    between atoms: C_25  and  C_29
REMARK   12  A    between atoms: C_28  and  C_32
REMARK   13  A    between atoms: C_30  and  C_32
REMARK   14  A    between atoms: C_30  and  C_34
REMARK   15  A    between atoms: C_33  and  C_38
REMARK   16  A    between atoms: C_39  and  O_45
REMARK                            x       y       z     vdW  Elec       q    Type
REMARK                         _______ _______ _______ _____ _____    ______ ____
ROOT
ATOM      1  C   UNL     1      76.293 233.916 339.697  0.00  0.00    +0.000 C 
ATOM      2  C   UNL     1      77.137 233.116 339.995  0.00  0.00    +0.000 C 
ENDROOT
BRANCH   2   3
ATOM      3  C   UNL     1      78.218 232.099 340.381  0.00  0.00    +0.000 C 
BRANCH   3   4
ATOM      4  C   UNL     1      79.133 231.240 340.702  0.00  0.00    +0.000 C 
ATOM      5  C   UNL     1      80.541 231.699 340.933  0.00  0.00    +0.000 C 
BRANCH   4   7
ATOM      6  C   UNL     1      78.557 228.690 340.804  0.00  0.00    +0.000 C 
ATOM      7  C   UNL     1      78.821 229.860 340.755  0.00  0.00    +0.000 C 
BRANCH   6   8
ATOM      8  C   UNL     1      78.220 227.196 340.870  0.00  0.00    +0.000 C 
BRANCH   8   9
ATOM      9  C   UNL     1      77.943 225.930 340.927  0.00  0.00    +0.000 C 
ATOM     10  C   UNL     1      78.697 225.042 341.870  0.00  0.00    +0.000 C 
BRANCH   9  12
ATOM     11  C   UNL     1      75.879 225.010 339.601  0.00  0.00    +0.000 C 
ATOM     12  C   UNL     1      76.830 225.421 340.213  0.00  0.00    +0.000 C 
BRANCH  11  16
ATOM     13  O   UNL     1      71.795 222.313 339.334  0.00  0.00    +0.000 OA
ATOM     14  C   UNL     1      74.548 225.035 337.407  0.00  0.00    +0.000 C 
ATOM     15  C   UNL     1      73.332 224.400 336.929  0.00  0.00    +0.000 C 
ATOM     16  C   UNL     1      74.728 224.531 338.862  0.00  0.00    +0.000 C 
ATOM     17  C   UNL     1      72.365 223.523 337.412  0.00  0.00    +0.000 C 
ATOM     18  C   UNL     1      74.378 226.572 337.421  0.00  0.00    +0.000 C 
ATOM     19  C   UNL     1      75.755 224.584 336.554  0.00  0.00    +0.000 C 
ATOM     20  C   UNL     1      73.850 223.673 339.460  0.00  0.00    +0.000 C 
ATOM     21  C   UNL     1      72.589 223.082 338.807  0.00  0.00    +0.000 C 
ATOM     22  C   UNL     1      74.110 223.247 340.912  0.00  0.00    +0.000 C 
BRANCH  17  23
ATOM     23  O   UNL     1      71.295 223.107 336.667  0.00  0.00    +0.000 OA
ATOM     24  H   UNL     1      70.525 223.696 336.807  0.00  0.00    +0.000 HD
ENDBRANCH  17  23
ENDBRANCH  11  16
ENDBRANCH   9  12
ENDBRANCH   8   9
ENDBRANCH   6   8
ENDBRANCH   4   7
ENDBRANCH   3   4
ENDBRANCH   2   3
BRANCH   1  25
ATOM     25  C   UNL     1      75.219 234.945 339.324  0.00  0.00    +0.000 C 
BRANCH  25  26
ATOM     26  C   UNL     1      74.309 235.811 339.006  0.00  0.00    +0.000 C 
ATOM     27  C   UNL     1      73.893 236.856 339.998  0.00  0.00    +0.000 C 
BRANCH  26  29
ATOM     28  C   UNL     1      73.086 235.634 336.701  0.00  0.00    +0.000 C 
ATOM     29  C   UNL     1      73.648 235.717 337.759  0.00  0.00    +0.000 C 
BRANCH  28  30
ATOM     30  C   UNL     1      72.368 235.525 335.350  0.00  0.00    +0.000 C 
BRANCH  30  31
ATOM     31  C   UNL     1      71.766 235.439 334.205  0.00  0.00    +0.000 C 
ATOM     32  C   UNL     1      70.316 235.065 334.148  0.00  0.00    +0.000 C 
BRANCH  31  34
ATOM     33  C   UNL     1      73.013 236.182 332.023  0.00  0.00    +0.000 C 
ATOM     34  C   UNL     1      72.436 235.852 333.026  0.00  0.00    +0.000 C 
BRANCH  33  38
ATOM     35  O   UNL     1      76.744 238.436 329.784  0.00  0.00    +0.000 OA
ATOM     36  C   UNL     1      73.120 236.099 329.461  0.00  0.00    +0.000 C 
ATOM     37  C   UNL     1      74.023 236.619 328.447  0.00  0.00    +0.000 C 
ATOM     38  C   UNL     1      73.717 236.563 330.814  0.00  0.00    +0.000 C 
ATOM     39  C   UNL     1      75.195 237.368 328.393  0.00  0.00    +0.000 C 
ATOM     40  C   UNL     1      73.105 234.553 329.418  0.00  0.00    +0.000 C 
ATOM     41  C   UNL     1      71.712 236.708 329.282  0.00  0.00    +0.000 C 
ATOM     42  C   UNL     1      74.863 237.300 330.904  0.00  0.00    +0.000 C 
ATOM     43  C   UNL     1      75.715 237.776 329.716  0.00  0.00    +0.000 C 
ATOM     44  C   UNL     1      75.377 237.695 332.295  0.00  0.00    +0.000 C 
BRANCH  39  45
ATOM     45  O   UNL     1      75.817 237.696 327.219  0.00  0.00    +0.000 OA
ATOM     46  H   UNL     1      75.217 238.210 326.641  0.00  0.00    +0.000 HD
ENDBRANCH  39  45
ENDBRANCH  33  38
ENDBRANCH  31  34
ENDBRANCH  30  31
ENDBRANCH  28  30
ENDBRANCH  26  29
ENDBRANCH  25  26
ENDBRANCH   1  25
TORSDOF 16
ENDMDL
MODEL 7
REMARK VINA RESULT:      -5.5      9.231     12.814
REMARK  Name = 5281224_Astaxanthin.pdbqt.pdb
REMARK  16 active torsions:
REMARK  status: ('A' for Active; 'I' for Inactive)
REMARK    1  A    between atoms: C_1  and  C_5
REMARK    2  A    between atoms: C_2  and  C_27
REMARK    3  A    between atoms: C_3  and  C_5
REMARK    4  A    between atoms: C_3  and  C_7
REMARK    5  A    between atoms: C_6  and  C_10
REMARK    6  A    between atoms: C_8  and  C_10
REMARK    7  A    between atoms: C_8  and  C_12
REMARK    8  A    between atoms: C_11  and  C_16
REMARK    9  A    between atoms: C_17  and  O_23
REMARK   10  A    between atoms: C_25  and  C_27
REMARK   11  A    between atoms: C_25  and  C_29
REMARK   12  A    between atoms: C_28  and  C_32
REMARK   13  A    between atoms: C_30  and  C_32
REMARK   14  A    between atoms: C_30  and  C_34
REMARK   15  A    between atoms: C_33  and  C_38
REMARK   16  A    between atoms: C_39  and  O_45
REMARK                            x       y       z     vdW  Elec       q    Type
REMARK                         _______ _______ _______ _____ _____    ______ ____
ROOT
ATOM      1  C   UNL     1      58.861 220.548 326.293  0.00  0.00    +0.000 C 
ATOM      2  C   UNL     1      59.903 221.120 326.132  0.00  0.00    +0.000 C 
ENDROOT
BRANCH   2   3
ATOM      3  C   UNL     1      61.240 221.846 325.931  0.00  0.00    +0.000 C 
BRANCH   3   4
ATOM      4  C   UNL     1      62.371 222.456 325.767  0.00  0.00    +0.000 C 
ATOM      5  C   UNL     1      63.655 221.689 325.866  0.00  0.00    +0.000 C 
BRANCH   4   7
ATOM      6  C   UNL     1      62.423 225.047 325.409  0.00  0.00    +0.000 C 
ATOM      7  C   UNL     1      62.397 223.858 325.574  0.00  0.00    +0.000 C 
BRANCH   6   8
ATOM      8  C   UNL     1      62.458 226.565 325.196  0.00  0.00    +0.000 C 
BRANCH   8   9
ATOM      9  C   UNL     1      62.481 227.850 325.020  0.00  0.00    +0.000 C 
ATOM     10  C   UNL     1      62.750 228.758 326.181  0.00  0.00    +0.000 C 
BRANCH   9  12
ATOM     11  C   UNL     1      62.316 228.839 322.600  0.00  0.00    +0.000 C 
ATOM     12  C   UNL     1      62.403 228.381 323.709  0.00  0.00    +0.000 C 
BRANCH  11  16
ATOM     13  O   UNL     1      59.564 230.415 318.863  0.00  0.00    +0.000 OA
ATOM     14  C   UNL     1      63.504 229.716 320.500  0.00  0.00    +0.000 C 
ATOM     15  C   UNL     1      63.077 230.253 319.220  0.00  0.00    +0.000 C 
ATOM     16  C   UNL     1      62.195 229.397 321.267  0.00  0.00    +0.000 C 
ATOM     17  C   UNL     1      61.882 230.529 318.562  0.00  0.00    +0.000 C 
ATOM     18  C   UNL     1      64.303 230.783 321.286  0.00  0.00    +0.000 C 
ATOM     19  C   UNL     1      64.309 228.415 320.292  0.00  0.00    +0.000 C 
ATOM     20  C   UNL     1      60.956 229.623 320.739  0.00  0.00    +0.000 C 
ATOM     21  C   UNL     1      60.669 230.206 319.346  0.00  0.00    +0.000 C 
ATOM     22  C   UNL     1      59.722 229.286 321.587  0.00  0.00    +0.000 C 
BRANCH  17  23
ATOM     23  O   UNL     1      61.829 231.060 317.301  0.00  0.00    +0.000 OA
ATOM     24  H   UNL     1      60.908 231.077 316.971  0.00  0.00    +0.000 HD
ENDBRANCH  17  23
ENDBRANCH  11  16
ENDBRANCH   9  12
ENDBRANCH   8   9
ENDBRANCH   6   8
ENDBRANCH   4   7
ENDBRANCH   3   4
ENDBRANCH   2   3
BRANCH   1  25
ATOM     25  C   UNL     1      57.533 219.813 326.508  0.00  0.00    +0.000 C 
BRANCH  25  26
ATOM     26  C   UNL     1      56.412 219.188 326.694  0.00  0.00    +0.000 C 
ATOM     27  C   UNL     1      55.495 218.939 325.534  0.00  0.00    +0.000 C 
BRANCH  26  29
ATOM     28  C   UNL     1      55.679 218.506 329.110  0.00  0.00    +0.000 C 
ATOM     29  C   UNL     1      56.015 218.821 328.001  0.00  0.00    +0.000 C 
BRANCH  28  30
ATOM     30  C   UNL     1      55.249 218.101 330.526  0.00  0.00    +0.000 C 
BRANCH  30  31
ATOM     31  C   UNL     1      54.894 217.758 331.724  0.00  0.00    +0.000 C 
ATOM     32  C   UNL     1      53.540 217.161 331.962  0.00  0.00    +0.000 C 
BRANCH  31  34
ATOM     33  C   UNL     1      56.638 217.820 333.678  0.00  0.00    +0.000 C 
ATOM     34  C   UNL     1      55.841 217.802 332.777  0.00  0.00    +0.000 C 
BRANCH  33  38
ATOM     35  O   UNL     1      61.225 217.401 335.353  0.00  0.00    +0.000 OA
ATOM     36  C   UNL     1      57.041 218.088 336.199  0.00  0.00    +0.000 C 
ATOM     37  C   UNL     1      58.202 218.037 337.071  0.00  0.00    +0.000 C 
ATOM     38  C   UNL     1      57.590 217.827 334.773  0.00  0.00    +0.000 C 
ATOM     39  C   UNL     1      59.574 217.830 336.955  0.00  0.00    +0.000 C 
ATOM     40  C   UNL     1      56.400 219.495 336.245  0.00  0.00    +0.000 C 
ATOM     41  C   UNL     1      56.041 216.972 336.578  0.00  0.00    +0.000 C 
ATOM     42  C   UNL     1      58.914 217.613 334.517  0.00  0.00    +0.000 C 
ATOM     43  C   UNL     1      60.035 217.591 335.569  0.00  0.00    +0.000 C 
ATOM     44  C   UNL     1      59.356 217.380 333.067  0.00  0.00    +0.000 C 
BRANCH  39  45
ATOM     45  O   UNL     1      60.425 217.849 338.026  0.00  0.00    +0.000 OA
ATOM     46  H   UNL     1      61.358 217.840 337.727  0.00  0.00    +0.000 HD
ENDBRANCH  39  45
ENDBRANCH  33  38
ENDBRANCH  31  34
ENDBRANCH  30  31
ENDBRANCH  28  30
ENDBRANCH  26  29
ENDBRANCH  25  26
ENDBRANCH   1  25
TORSDOF 16
ENDMDL
MODEL 8
REMARK VINA RESULT:      -5.5     21.585     29.408
REMARK  Name = 5281224_Astaxanthin.pdbqt.pdb
REMARK  16 active torsions:
REMARK  status: ('A' for Active; 'I' for Inactive)
REMARK    1  A    between atoms: C_1  and  C_5
REMARK    2  A    between atoms: C_2  and  C_27
REMARK    3  A    between atoms: C_3  and  C_5
REMARK    4  A    between atoms: C_3  and  C_7
REMARK    5  A    between atoms: C_6  and  C_10
REMARK    6  A    between atoms: C_8  and  C_10
REMARK    7  A    between atoms: C_8  and  C_12
REMARK    8  A    between atoms: C_11  and  C_16
REMARK    9  A    between atoms: C_17  and  O_23
REMARK   10  A    between atoms: C_25  and  C_27
REMARK   11  A    between atoms: C_25  and  C_29
REMARK   12  A    between atoms: C_28  and  C_32
REMARK   13  A    between atoms: C_30  and  C_32
REMARK   14  A    between atoms: C_30  and  C_34
REMARK   15  A    between atoms: C_33  and  C_38
REMARK   16  A    between atoms: C_39  and  O_45
REMARK                            x       y       z     vdW  Elec       q    Type
REMARK                         _______ _______ _______ _____ _____    ______ ____
ROOT
ATOM      1  C   UNL     1      61.653 250.100 328.058  0.00  0.00    +0.000 C 
ATOM      2  C   UNL     1      60.846 250.317 327.197  0.00  0.00    +0.000 C 
ENDROOT
BRANCH   2   3
ATOM      3  C   UNL     1      59.819 250.601 326.094  0.00  0.00    +0.000 C 
BRANCH   3   4
ATOM      4  C   UNL     1      58.946 250.842 325.166  0.00  0.00    +0.000 C 
ATOM      5  C   UNL     1      59.351 251.602 323.939  0.00  0.00    +0.000 C 
BRANCH   4   7
ATOM      6  C   UNL     1      56.450 250.134 325.499  0.00  0.00    +0.000 C 
ATOM      7  C   UNL     1      57.596 250.459 325.348  0.00  0.00    +0.000 C 
BRANCH   6   8
ATOM      8  C   UNL     1      54.987 249.719 325.688  0.00  0.00    +0.000 C 
BRANCH   8   9
ATOM      9  C   UNL     1      53.746 249.373 325.843  0.00  0.00    +0.000 C 
ATOM     10  C   UNL     1      52.664 250.404 325.735  0.00  0.00    +0.000 C 
BRANCH   9  12
ATOM     11  C   UNL     1      53.102 246.844 326.071  0.00  0.00    +0.000 C 
ATOM     12  C   UNL     1      53.408 248.002 325.961  0.00  0.00    +0.000 C 
BRANCH  11  16
ATOM     13  O   UNL     1      51.454 243.127 328.808  0.00  0.00    +0.000 OA
ATOM     14  C   UNL     1      52.820 244.548 324.959  0.00  0.00    +0.000 C 
ATOM     15  C   UNL     1      52.378 243.235 325.397  0.00  0.00    +0.000 C 
ATOM     16  C   UNL     1      52.719 245.453 326.214  0.00  0.00    +0.000 C 
ATOM     17  C   UNL     1      51.924 242.635 326.568  0.00  0.00    +0.000 C 
ATOM     18  C   UNL     1      51.871 245.093 323.865  0.00  0.00    +0.000 C 
ATOM     19  C   UNL     1      54.289 244.486 324.486  0.00  0.00    +0.000 C 
ATOM     20  C   UNL     1      52.284 244.992 327.424  0.00  0.00    +0.000 C 
ATOM     21  C   UNL     1      51.846 243.550 327.728  0.00  0.00    +0.000 C 
ATOM     22  C   UNL     1      52.206 245.974 328.601  0.00  0.00    +0.000 C 
BRANCH  17  23
ATOM     23  O   UNL     1      51.573 241.314 326.642  0.00  0.00    +0.000 OA
ATOM     24  H   UNL     1      51.686 240.875 325.774  0.00  0.00    +0.000 HD
ENDBRANCH  17  23
ENDBRANCH  11  16
ENDBRANCH   9  12
ENDBRANCH   8   9
ENDBRANCH   6   8
ENDBRANCH   4   7
ENDBRANCH   3   4
ENDBRANCH   2   3
BRANCH   1  25
ATOM     25  C   UNL     1      62.688 249.832 329.157  0.00  0.00    +0.000 C 
BRANCH  25  26
ATOM     26  C   UNL     1      63.566 249.610 330.083  0.00  0.00    +0.000 C 
ATOM     27  C   UNL     1      64.212 250.762 330.793  0.00  0.00    +0.000 C 
BRANCH  26  29
ATOM     28  C   UNL     1      64.327 247.163 330.606  0.00  0.00    +0.000 C 
ATOM     29  C   UNL     1      63.978 248.286 330.365  0.00  0.00    +0.000 C 
BRANCH  28  30
ATOM     30  C   UNL     1      64.772 245.728 330.918  0.00  0.00    +0.000 C 
BRANCH  30  31
ATOM     31  C   UNL     1      65.147 244.514 331.173  0.00  0.00    +0.000 C 
ATOM     32  C   UNL     1      64.393 243.692 332.174  0.00  0.00    +0.000 C 
BRANCH  31  34
ATOM     33  C   UNL     1      67.038 243.394 329.747  0.00  0.00    +0.000 C 
ATOM     34  C   UNL     1      66.167 243.915 330.392  0.00  0.00    +0.000 C 
BRANCH  33  38
ATOM     35  O   UNL     1      69.204 242.383 325.468  0.00  0.00    +0.000 OA
ATOM     36  C   UNL     1      69.160 241.950 329.770  0.00  0.00    +0.000 C 
ATOM     37  C   UNL     1      70.072 241.437 328.761  0.00  0.00    +0.000 C 
ATOM     38  C   UNL     1      68.094 242.756 328.984  0.00  0.00    +0.000 C 
ATOM     39  C   UNL     1      70.216 241.485 327.378  0.00  0.00    +0.000 C 
ATOM     40  C   UNL     1      69.909 242.905 330.730  0.00  0.00    +0.000 C 
ATOM     41  C   UNL     1      68.477 240.782 330.515  0.00  0.00    +0.000 C 
ATOM     42  C   UNL     1      68.119 242.887 327.625  0.00  0.00    +0.000 C 
ATOM     43  C   UNL     1      69.171 242.272 326.687  0.00  0.00    +0.000 C 
ATOM     44  C   UNL     1      67.025 243.720 326.945  0.00  0.00    +0.000 C 
BRANCH  39  45
ATOM     45  O   UNL     1      71.237 240.864 326.712  0.00  0.00    +0.000 OA
ATOM     46  H   UNL     1      71.244 241.124 325.767  0.00  0.00    +0.000 HD
ENDBRANCH  39  45
ENDBRANCH  33  38
ENDBRANCH  31  34
ENDBRANCH  30  31
ENDBRANCH  28  30
ENDBRANCH  26  29
ENDBRANCH  25  26
ENDBRANCH   1  25
TORSDOF 16
ENDMDL
MODEL 9
REMARK VINA RESULT:      -5.4     21.687     25.682
REMARK  Name = 5281224_Astaxanthin.pdbqt.pdb
REMARK  16 active torsions:
REMARK  status: ('A' for Active; 'I' for Inactive)
REMARK    1  A    between atoms: C_1  and  C_5
REMARK    2  A    between atoms: C_2  and  C_27
REMARK    3  A    between atoms: C_3  and  C_5
REMARK    4  A    between atoms: C_3  and  C_7
REMARK    5  A    between atoms: C_6  and  C_10
REMARK    6  A    between atoms: C_8  and  C_10
REMARK    7  A    between atoms: C_8  and  C_12
REMARK    8  A    between atoms: C_11  and  C_16
REMARK    9  A    between atoms: C_17  and  O_23
REMARK   10  A    between atoms: C_25  and  C_27
REMARK   11  A    between atoms: C_25  and  C_29
REMARK   12  A    between atoms: C_28  and  C_32
REMARK   13  A    between atoms: C_30  and  C_32
REMARK   14  A    between atoms: C_30  and  C_34
REMARK   15  A    between atoms: C_33  and  C_38
REMARK   16  A    between atoms: C_39  and  O_45
REMARK                            x       y       z     vdW  Elec       q    Type
REMARK                         _______ _______ _______ _____ _____    ______ ____
ROOT
ATOM      1  C   UNL     1      59.370 250.149 327.625  0.00  0.00    +0.000 C 
ATOM      2  C   UNL     1      60.497 249.808 327.855  0.00  0.00    +0.000 C 
ENDROOT
BRANCH   2   3
ATOM      3  C   UNL     1      61.934 249.365 328.155  0.00  0.00    +0.000 C 
BRANCH   3   4
ATOM      4  C   UNL     1      63.150 248.990 328.403  0.00  0.00    +0.000 C 
ATOM      5  C   UNL     1      64.161 248.955 327.297  0.00  0.00    +0.000 C 
BRANCH   4   7
ATOM      6  C   UNL     1      63.799 248.156 330.796  0.00  0.00    +0.000 C 
ATOM      7  C   UNL     1      63.501 248.536 329.697  0.00  0.00    +0.000 C 
BRANCH   6   8
ATOM      8  C   UNL     1      64.179 247.673 332.200  0.00  0.00    +0.000 C 
BRANCH   8   9
ATOM      9  C   UNL     1      64.500 247.272 333.392  0.00  0.00    +0.000 C 
ATOM     10  C   UNL     1      64.208 248.141 334.577  0.00  0.00    +0.000 C 
BRANCH   9  12
ATOM     11  C   UNL     1      65.415 244.842 333.734  0.00  0.00    +0.000 C 
ATOM     12  C   UNL     1      64.985 245.955 333.583  0.00  0.00    +0.000 C 
BRANCH  11  16
ATOM     13  O   UNL     1      67.919 241.545 336.358  0.00  0.00    +0.000 OA
ATOM     14  C   UNL     1      65.671 242.471 332.782  0.00  0.00    +0.000 C 
ATOM     15  C   UNL     1      66.312 241.245 333.223  0.00  0.00    +0.000 C 
ATOM     16  C   UNL     1      65.948 243.504 333.905  0.00  0.00    +0.000 C 
ATOM     17  C   UNL     1      67.054 240.801 334.313  0.00  0.00    +0.000 C 
ATOM     18  C   UNL     1      64.143 242.259 332.656  0.00  0.00    +0.000 C 
ATOM     19  C   UNL     1      66.307 242.963 331.463  0.00  0.00    +0.000 C 
ATOM     20  C   UNL     1      66.658 243.198 335.031  0.00  0.00    +0.000 C 
ATOM     21  C   UNL     1      67.282 241.830 335.352  0.00  0.00    +0.000 C 
ATOM     22  C   UNL     1      66.863 244.289 336.091  0.00  0.00    +0.000 C 
BRANCH  17  23
ATOM     23  O   UNL     1      67.529 239.521 334.422  0.00  0.00    +0.000 OA
ATOM     24  H   UNL     1      68.125 239.437 335.195  0.00  0.00    +0.000 HD
ENDBRANCH  17  23
ENDBRANCH  11  16
ENDBRANCH   9  12
ENDBRANCH   8   9
ENDBRANCH   6   8
ENDBRANCH   4   7
ENDBRANCH   3   4
ENDBRANCH   2   3
BRANCH   1  25
ATOM     25  C   UNL     1      57.926 250.578 327.336  0.00  0.00    +0.000 C 
BRANCH  25  26
ATOM     26  C   UNL     1      56.704 250.936 327.093  0.00  0.00    +0.000 C 
ATOM     27  C   UNL     1      56.364 252.390 326.965  0.00  0.00    +0.000 C 
BRANCH  26  29
ATOM     28  C   UNL     1      54.810 249.136 326.985  0.00  0.00    +0.000 C 
ATOM     29  C   UNL     1      55.680 249.962 327.036  0.00  0.00    +0.000 C 
BRANCH  28  30
ATOM     30  C   UNL     1      53.698 248.081 326.916  0.00  0.00    +0.000 C 
BRANCH  30  31
ATOM     31  C   UNL     1      52.761 247.188 326.866  0.00  0.00    +0.000 C 
ATOM     32  C   UNL     1      52.553 246.391 325.614  0.00  0.00    +0.000 C 
BRANCH  31  34
ATOM     33  C   UNL     1      51.420 246.560 329.028  0.00  0.00    +0.000 C 
ATOM     34  C   UNL     1      52.042 246.856 328.042  0.00  0.00    +0.000 C 
BRANCH  33  38
ATOM     35  O   UNL     1      49.294 243.167 331.854  0.00  0.00    +0.000 OA
ATOM     36  C   UNL     1      50.221 247.333 331.162  0.00  0.00    +0.000 C 
ATOM     37  C   UNL     1      49.490 246.675 332.232  0.00  0.00    +0.000 C 
ATOM     38  C   UNL     1      50.659 246.193 330.207  0.00  0.00    +0.000 C 
ATOM     39  C   UNL     1      49.115 245.383 332.585  0.00  0.00    +0.000 C 
ATOM     40  C   UNL     1      51.481 248.031 331.727  0.00  0.00    +0.000 C 
ATOM     41  C   UNL     1      49.294 248.311 330.406  0.00  0.00    +0.000 C 
ATOM     42  C   UNL     1      50.362 244.881 330.436  0.00  0.00    +0.000 C 
ATOM     43  C   UNL     1      49.566 244.341 331.637  0.00  0.00    +0.000 C 
ATOM     44  C   UNL     1      50.856 243.827 329.436  0.00  0.00    +0.000 C 
BRANCH  39  45
ATOM     45  O   UNL     1      48.396 245.096 333.713  0.00  0.00    +0.000 OA
ATOM     46  H   UNL     1      48.820 244.373 334.220  0.00  0.00    +0.000 HD
ENDBRANCH  39  45
ENDBRANCH  33  38
ENDBRANCH  31  34
ENDBRANCH  30  31
ENDBRANCH  28  30
ENDBRANCH  26  29
ENDBRANCH  25  26
ENDBRANCH   1  25
TORSDOF 16
ENDMDL
