MODEL 1
REMARK VINA RESULT:      -6.7      0.000      0.000
REMARK  Name = 5289155_Peridinin.pdbqt.pdb
REMARK  13 active torsions:
REMARK  status: ('A' for Active; 'I' for Inactive)
REMARK    1  A    between atoms: C_1  and  C_3
REMARK    2  A    between atoms: C_3  and  C_25
REMARK    3  A    between atoms: C_6  and  C_12
REMARK    4  A    between atoms: C_11  and  C_14
REMARK    5  A    between atoms: C_19  and  O_23
REMARK    6  A    between atoms: C_26  and  C_28
REMARK    7  A    between atoms: C_27  and  C_31
REMARK    8  A    between atoms: C_29  and  C_31
REMARK    9  A    between atoms: C_29  and  C_42
REMARK   10  A    between atoms: C_33  and  O_43
REMARK   11  A    between atoms: C_35  and  O_45
REMARK   12  A    between atoms: C_37  and  C_41
REMARK   13  A    between atoms: O_45  and  C_47
REMARK                            x       y       z     vdW  Elec       q    Type
REMARK                         _______ _______ _______ _____ _____    ______ ____
ROOT
ATOM      1  C   UNL     1      51.024 243.250 326.860  0.00  0.00    +0.000 C 
ENDROOT
BRANCH   1   2
ATOM      2  C   UNL     1      50.891 242.387 325.902  0.00  0.00    +0.000 C 
ATOM      3  C   UNL     1      51.554 242.621 324.580  0.00  0.00    +0.000 C 
ATOM      4  O   UNL     1      48.440 240.106 327.237  0.00  0.00    +0.000 OA
ATOM      5  O   UNL     1      46.718 238.573 327.473  0.00  0.00    +0.000 OA
ATOM      6  C   UNL     1      48.342 238.366 325.697  0.00  0.00    +0.000 C 
ATOM      7  C   UNL     1      49.363 239.079 325.386  0.00  0.00    +0.000 C 
ATOM      8  C   UNL     1      47.710 238.974 326.891  0.00  0.00    +0.000 C 
ATOM      9  C   UNL     1      49.475 240.117 326.307  0.00  0.00    +0.000 C 
ATOM     10  C   UNL     1      50.150 241.203 326.115  0.00  0.00    +0.000 C 
BRANCH   6  12
ATOM     11  C   UNL     1      47.577 236.254 324.371  0.00  0.00    +0.000 C 
ATOM     12  C   UNL     1      47.926 237.226 324.985  0.00  0.00    +0.000 C 
BRANCH  11  14
ATOM     13  O   UNL     1      48.078 234.849 322.511  0.00  0.00    +0.000 OA
ATOM     14  C   UNL     1      47.159 235.082 323.617  0.00  0.00    +0.000 C 
ATOM     15  C   UNL     1      48.098 233.860 323.537  0.00  0.00    +0.000 C 
ATOM     16  C   UNL     1      45.635 234.861 323.319  0.00  0.00    +0.000 C 
ATOM     17  C   UNL     1      47.527 232.624 323.107  0.00  0.00    +0.000 C 
ATOM     18  C   UNL     1      45.488 233.484 322.836  0.00  0.00    +0.000 C 
ATOM     19  C   UNL     1      46.225 232.294 322.692  0.00  0.00    +0.000 C 
ATOM     20  C   UNL     1      49.435 233.772 324.279  0.00  0.00    +0.000 C 
ATOM     21  C   UNL     1      44.911 235.046 324.678  0.00  0.00    +0.000 C 
ATOM     22  C   UNL     1      45.231 235.926 322.277  0.00  0.00    +0.000 C 
BRANCH  19  23
ATOM     23  O   UNL     1      45.663 231.076 322.933  0.00  0.00    +0.000 OA
ATOM     24  H   UNL     1      44.878 230.915 322.380  0.00  0.00    +0.000 HD
ENDBRANCH  19  23
ENDBRANCH  11  14
ENDBRANCH   6  12
ENDBRANCH   1   2
BRANCH   1  25
ATOM     25  C   UNL     1      51.181 244.271 327.993  0.00  0.00    +0.000 C 
ATOM     26  C   UNL     1      51.300 245.067 328.883  0.00  0.00    +0.000 C 
BRANCH  26  28
ATOM     27  C   UNL     1      51.566 246.870 330.917  0.00  0.00    +0.000 C 
ATOM     28  C   UNL     1      51.446 246.079 330.024  0.00  0.00    +0.000 C 
BRANCH  27  29
ATOM     29  C   UNL     1      51.726 247.878 332.063  0.00  0.00    +0.000 C 
BRANCH  29  30
ATOM     30  C   UNL     1      51.868 248.734 333.024  0.00  0.00    +0.000 C 
ATOM     31  C   UNL     1      52.298 250.140 332.728  0.00  0.00    +0.000 C 
BRANCH  30  33
ATOM     32  C   UNL     1      51.500 247.982 335.506  0.00  0.00    +0.000 C 
ATOM     33  C   UNL     1      51.668 248.329 334.368  0.00  0.00    +0.000 C 
BRANCH  32  39
ATOM     34  C   UNL     1      50.022 247.887 337.528  0.00  0.00    +0.000 C 
ATOM     35  C   UNL     1      52.427 246.897 337.526  0.00  0.00    +0.000 C 
ATOM     36  C   UNL     1      49.956 247.102 338.769  0.00  0.00    +0.000 C 
ATOM     37  C   UNL     1      50.765 246.228 339.523  0.00  0.00    +0.000 C 
ATOM     38  C   UNL     1      51.937 246.253 338.740  0.00  0.00    +0.000 C 
ATOM     39  C   UNL     1      51.321 247.600 336.755  0.00  0.00    +0.000 C 
ATOM     40  C   UNL     1      48.802 247.488 336.642  0.00  0.00    +0.000 C 
ATOM     41  C   UNL     1      49.965 249.403 337.857  0.00  0.00    +0.000 C 
ATOM     42  C   UNL     1      53.579 247.859 337.832  0.00  0.00    +0.000 C 
BRANCH  35  43
ATOM     43  O   UNL     1      52.996 245.895 336.711  0.00  0.00    +0.000 OA
ATOM     44  H   UNL     1      53.378 246.429 335.989  0.00  0.00    +0.000 HD
ENDBRANCH  35  43
BRANCH  37  45
ATOM     45  O   UNL     1      50.836 246.394 340.901  0.00  0.00    +0.000 OA
BRANCH  45  47
ATOM     46  O   UNL     1      49.064 244.909 341.294  0.00  0.00    +0.000 OA
ATOM     47  C   UNL     1      50.154 245.401 341.521  0.00  0.00    +0.000 C 
ATOM     48  C   UNL     1      50.858 244.820 342.697  0.00  0.00    +0.000 C 
ENDBRANCH  45  47
ENDBRANCH  37  45
ENDBRANCH  32  39
ENDBRANCH  30  33
ENDBRANCH  29  30
ENDBRANCH  27  29
ENDBRANCH  26  28
ENDBRANCH   1  25
TORSDOF 13
ENDMDL
MODEL 2
REMARK VINA RESULT:      -6.1      6.648     16.082
REMARK  Name = 5289155_Peridinin.pdbqt.pdb
REMARK  13 active torsions:
REMARK  status: ('A' for Active; 'I' for Inactive)
REMARK    1  A    between atoms: C_1  and  C_3
REMARK    2  A    between atoms: C_3  and  C_25
REMARK    3  A    between atoms: C_6  and  C_12
REMARK    4  A    between atoms: C_11  and  C_14
REMARK    5  A    between atoms: C_19  and  O_23
REMARK    6  A    between atoms: C_26  and  C_28
REMARK    7  A    between atoms: C_27  and  C_31
REMARK    8  A    between atoms: C_29  and  C_31
REMARK    9  A    between atoms: C_29  and  C_42
REMARK   10  A    between atoms: C_33  and  O_43
REMARK   11  A    between atoms: C_35  and  O_45
REMARK   12  A    between atoms: C_37  and  C_41
REMARK   13  A    between atoms: O_45  and  C_47
REMARK                            x       y       z     vdW  Elec       q    Type
REMARK                         _______ _______ _______ _____ _____    ______ ____
ROOT
ATOM      1  C   UNL     1      48.764 245.666 341.240  0.00  0.00    +0.000 C 
ENDROOT
BRANCH   1   2
ATOM      2  C   UNL     1      48.466 245.110 342.372  0.00  0.00    +0.000 C 
ATOM      3  C   UNL     1      48.752 245.821 343.659  0.00  0.00    +0.000 C 
ATOM      4  O   UNL     1      47.466 241.793 341.377  0.00  0.00    +0.000 OA
ATOM      5  O   UNL     1      47.053 239.513 341.320  0.00  0.00    +0.000 OA
ATOM      6  C   UNL     1      46.650 240.808 343.319  0.00  0.00    +0.000 C 
ATOM      7  C   UNL     1      46.797 242.057 343.571  0.00  0.00    +0.000 C 
ATOM      8  C   UNL     1      47.058 240.577 341.913  0.00  0.00    +0.000 C 
ATOM      9  C   UNL     1      47.256 242.691 342.420  0.00  0.00    +0.000 C 
ATOM     10  C   UNL     1      47.835 243.846 342.395  0.00  0.00    +0.000 C 
BRANCH   6  12
ATOM     11  C   UNL     1      45.798 239.053 345.052  0.00  0.00    +0.000 C 
ATOM     12  C   UNL     1      46.195 239.859 344.254  0.00  0.00    +0.000 C 
BRANCH  11  14
ATOM     13  O   UNL     1      43.915 238.361 346.339  0.00  0.00    +0.000 OA
ATOM     14  C   UNL     1      45.310 238.086 346.022  0.00  0.00    +0.000 C 
ATOM     15  C   UNL     1      44.150 237.145 345.633  0.00  0.00    +0.000 C 
ATOM     16  C   UNL     1      46.230 237.664 347.221  0.00  0.00    +0.000 C 
ATOM     17  C   UNL     1      43.938 235.996 346.454  0.00  0.00    +0.000 C 
ATOM     18  C   UNL     1      45.620 236.480 347.834  0.00  0.00    +0.000 C 
ATOM     19  C   UNL     1      44.588 235.548 347.617  0.00  0.00    +0.000 C 
ATOM     20  C   UNL     1      43.519 237.114 344.238  0.00  0.00    +0.000 C 
ATOM     21  C   UNL     1      47.603 237.310 346.591  0.00  0.00    +0.000 C 
ATOM     22  C   UNL     1      46.304 238.881 348.169  0.00  0.00    +0.000 C 
BRANCH  19  23
ATOM     23  O   UNL     1      44.750 234.227 347.907  0.00  0.00    +0.000 OA
ATOM     24  H   UNL     1      44.838 234.065 348.863  0.00  0.00    +0.000 HD
ENDBRANCH  19  23
ENDBRANCH  11  14
ENDBRANCH   6  12
ENDBRANCH   1   2
BRANCH   1  25
ATOM     25  C   UNL     1      49.117 246.324 339.901  0.00  0.00    +0.000 C 
ATOM     26  C   UNL     1      49.388 246.836 338.850  0.00  0.00    +0.000 C 
BRANCH  26  28
ATOM     27  C   UNL     1      49.996 247.995 336.453  0.00  0.00    +0.000 C 
ATOM     28  C   UNL     1      49.727 247.489 337.507  0.00  0.00    +0.000 C 
BRANCH  27  29
ATOM     29  C   UNL     1      50.344 248.637 335.104  0.00  0.00    +0.000 C 
BRANCH  29  30
ATOM     30  C   UNL     1      50.637 249.170 333.960  0.00  0.00    +0.000 C 
ATOM     31  C   UNL     1      50.718 250.659 333.817  0.00  0.00    +0.000 C 
BRANCH  30  33
ATOM     32  C   UNL     1      50.992 247.643 331.861  0.00  0.00    +0.000 C 
ATOM     33  C   UNL     1      50.828 248.343 332.824  0.00  0.00    +0.000 C 
BRANCH  32  39
ATOM     34  C   UNL     1      51.967 247.335 329.572  0.00  0.00    +0.000 C 
ATOM     35  C   UNL     1      50.557 245.484 330.735  0.00  0.00    +0.000 C 
ATOM     36  C   UNL     1      52.285 246.204 328.689  0.00  0.00    +0.000 C 
ATOM     37  C   UNL     1      52.007 244.826 328.575  0.00  0.00    +0.000 C 
ATOM     38  C   UNL     1      51.147 244.666 329.681  0.00  0.00    +0.000 C 
ATOM     39  C   UNL     1      51.176 246.871 330.808  0.00  0.00    +0.000 C 
ATOM     40  C   UNL     1      53.312 247.974 330.037  0.00  0.00    +0.000 C 
ATOM     41  C   UNL     1      51.119 248.384 328.805  0.00  0.00    +0.000 C 
ATOM     42  C   UNL     1      49.035 245.570 330.589  0.00  0.00    +0.000 C 
BRANCH  35  43
ATOM     43  O   UNL     1      50.769 244.818 331.961  0.00  0.00    +0.000 OA
ATOM     44  H   UNL     1      50.957 243.910 331.657  0.00  0.00    +0.000 HD
ENDBRANCH  35  43
BRANCH  37  45
ATOM     45  O   UNL     1      51.661 244.307 327.334  0.00  0.00    +0.000 OA
BRANCH  45  47
ATOM     46  O   UNL     1      53.805 243.360 327.245  0.00  0.00    +0.000 OA
ATOM     47  C   UNL     1      52.733 243.692 326.776  0.00  0.00    +0.000 C 
ATOM     48  C   UNL     1      52.571 243.381 325.330  0.00  0.00    +0.000 C 
ENDBRANCH  45  47
ENDBRANCH  37  45
ENDBRANCH  32  39
ENDBRANCH  30  33
ENDBRANCH  29  30
ENDBRANCH  27  29
ENDBRANCH  26  28
ENDBRANCH   1  25
TORSDOF 13
ENDMDL
MODEL 3
REMARK VINA RESULT:      -5.8      1.309      1.990
REMARK  Name = 5289155_Peridinin.pdbqt.pdb
REMARK  13 active torsions:
REMARK  status: ('A' for Active; 'I' for Inactive)
REMARK    1  A    between atoms: C_1  and  C_3
REMARK    2  A    between atoms: C_3  and  C_25
REMARK    3  A    between atoms: C_6  and  C_12
REMARK    4  A    between atoms: C_11  and  C_14
REMARK    5  A    between atoms: C_19  and  O_23
REMARK    6  A    between atoms: C_26  and  C_28
REMARK    7  A    between atoms: C_27  and  C_31
REMARK    8  A    between atoms: C_29  and  C_31
REMARK    9  A    between atoms: C_29  and  C_42
REMARK   10  A    between atoms: C_33  and  O_43
REMARK   11  A    between atoms: C_35  and  O_45
REMARK   12  A    between atoms: C_37  and  C_41
REMARK   13  A    between atoms: O_45  and  C_47
REMARK                            x       y       z     vdW  Elec       q    Type
REMARK                         _______ _______ _______ _____ _____    ______ ____
ROOT
ATOM      1  C   UNL     1      51.656 243.846 326.794  0.00  0.00    +0.000 C 
ENDROOT
BRANCH   1   2
ATOM      2  C   UNL     1      51.501 242.960 325.861  0.00  0.00    +0.000 C 
ATOM      3  C   UNL     1      52.246 243.090 324.568  0.00  0.00    +0.000 C 
ATOM      4  O   UNL     1      48.810 240.933 327.142  0.00  0.00    +0.000 OA
ATOM      5  O   UNL     1      46.959 239.551 327.338  0.00  0.00    +0.000 OA
ATOM      6  C   UNL     1      48.648 239.149 325.658  0.00  0.00    +0.000 C 
ATOM      7  C   UNL     1      49.737 239.766 325.378  0.00  0.00    +0.000 C 
ATOM      8  C   UNL     1      48.008 239.850 326.796  0.00  0.00    +0.000 C 
ATOM      9  C   UNL     1      49.887 240.827 326.267  0.00  0.00    +0.000 C 
ATOM     10  C   UNL     1      50.657 241.847 326.074  0.00  0.00    +0.000 C 
BRANCH   6  12
ATOM     11  C   UNL     1      47.766 237.059 324.371  0.00  0.00    +0.000 C 
ATOM     12  C   UNL     1      48.177 238.019 324.965  0.00  0.00    +0.000 C 
BRANCH  11  14
ATOM     13  O   UNL     1      46.212 235.252 324.432  0.00  0.00    +0.000 OA
ATOM     14  C   UNL     1      47.258 235.901 323.652  0.00  0.00    +0.000 C 
ATOM     15  C   UNL     1      45.776 235.867 323.223  0.00  0.00    +0.000 C 
ATOM     16  C   UNL     1      48.262 234.955 322.906  0.00  0.00    +0.000 C 
ATOM     17  C   UNL     1      45.404 234.908 322.232  0.00  0.00    +0.000 C 
ATOM     18  C   UNL     1      47.466 234.085 322.035  0.00  0.00    +0.000 C 
ATOM     19  C   UNL     1      46.150 233.922 321.564  0.00  0.00    +0.000 C 
ATOM     20  C   UNL     1      44.806 237.032 323.442  0.00  0.00    +0.000 C 
ATOM     21  C   UNL     1      49.170 235.890 322.063  0.00  0.00    +0.000 C 
ATOM     22  C   UNL     1      49.042 234.190 323.997  0.00  0.00    +0.000 C 
BRANCH  19  23
ATOM     23  O   UNL     1      45.896 233.553 320.277  0.00  0.00    +0.000 OA
ATOM     24  H   UNL     1      46.489 232.845 319.970  0.00  0.00    +0.000 HD
ENDBRANCH  19  23
ENDBRANCH  11  14
ENDBRANCH   6  12
ENDBRANCH   1   2
BRANCH   1  25
ATOM     25  C   UNL     1      51.839 244.893 327.898  0.00  0.00    +0.000 C 
ATOM     26  C   UNL     1      51.976 245.712 328.765  0.00  0.00    +0.000 C 
BRANCH  26  28
ATOM     27  C   UNL     1      52.280 247.571 330.743  0.00  0.00    +0.000 C 
ATOM     28  C   UNL     1      52.144 246.756 329.873  0.00  0.00    +0.000 C 
BRANCH  27  29
ATOM     29  C   UNL     1      52.458 248.607 331.859  0.00  0.00    +0.000 C 
BRANCH  29  30
ATOM     30  C   UNL     1      52.618 249.482 332.801  0.00  0.00    +0.000 C 
ATOM     31  C   UNL     1      53.054 250.878 332.473  0.00  0.00    +0.000 C 
BRANCH  30  33
ATOM     32  C   UNL     1      52.280 248.780 335.303  0.00  0.00    +0.000 C 
ATOM     33  C   UNL     1      52.435 249.103 334.156  0.00  0.00    +0.000 C 
BRANCH  32  39
ATOM     34  C   UNL     1      50.894 248.861 337.390  0.00  0.00    +0.000 C 
ATOM     35  C   UNL     1      53.167 247.600 337.287  0.00  0.00    +0.000 C 
ATOM     36  C   UNL     1      50.796 248.091 338.639  0.00  0.00    +0.000 C 
ATOM     37  C   UNL     1      51.532 247.132 339.363  0.00  0.00    +0.000 C 
ATOM     38  C   UNL     1      52.662 247.019 338.526  0.00  0.00    +0.000 C 
ATOM     39  C   UNL     1      52.116 248.424 336.562  0.00  0.00    +0.000 C 
ATOM     40  C   UNL     1      49.597 248.604 336.563  0.00  0.00    +0.000 C 
ATOM     41  C   UNL     1      51.028 250.374 337.710  0.00  0.00    +0.000 C 
ATOM     42  C   UNL     1      54.435 248.423 337.533  0.00  0.00    +0.000 C 
BRANCH  35  43
ATOM     43  O   UNL     1      53.579 246.538 336.455  0.00  0.00    +0.000 OA
ATOM     44  H   UNL     1      52.874 245.882 336.616  0.00  0.00    +0.000 HD
ENDBRANCH  35  43
BRANCH  37  45
ATOM     45  O   UNL     1      51.686 247.291 340.734  0.00  0.00    +0.000 OA
BRANCH  45  47
ATOM     46  O   UNL     1      50.950 245.179 341.439  0.00  0.00    +0.000 OA
ATOM     47  C   UNL     1      50.912 246.394 341.392  0.00  0.00    +0.000 C 
ATOM     48  C   UNL     1      49.813 247.006 342.188  0.00  0.00    +0.000 C 
ENDBRANCH  45  47
ENDBRANCH  37  45
ENDBRANCH  32  39
ENDBRANCH  30  33
ENDBRANCH  29  30
ENDBRANCH  27  29
ENDBRANCH  26  28
ENDBRANCH   1  25
TORSDOF 13
ENDMDL
MODEL 4
REMARK VINA RESULT:      -5.8     25.780     29.333
REMARK  Name = 5289155_Peridinin.pdbqt.pdb
REMARK  13 active torsions:
REMARK  status: ('A' for Active; 'I' for Inactive)
REMARK    1  A    between atoms: C_1  and  C_3
REMARK    2  A    between atoms: C_3  and  C_25
REMARK    3  A    between atoms: C_6  and  C_12
REMARK    4  A    between atoms: C_11  and  C_14
REMARK    5  A    between atoms: C_19  and  O_23
REMARK    6  A    between atoms: C_26  and  C_28
REMARK    7  A    between atoms: C_27  and  C_31
REMARK    8  A    between atoms: C_29  and  C_31
REMARK    9  A    between atoms: C_29  and  C_42
REMARK   10  A    between atoms: C_33  and  O_43
REMARK   11  A    between atoms: C_35  and  O_45
REMARK   12  A    between atoms: C_37  and  C_41
REMARK   13  A    between atoms: O_45  and  C_47
REMARK                            x       y       z     vdW  Elec       q    Type
REMARK                         _______ _______ _______ _____ _____    ______ ____
ROOT
ATOM      1  C   UNL     1      73.668 236.914 339.137  0.00  0.00    +0.000 C 
ENDROOT
BRANCH   1   2
ATOM      2  C   UNL     1      72.767 237.812 338.894  0.00  0.00    +0.000 C 
ATOM      3  C   UNL     1      72.219 238.649 340.009  0.00  0.00    +0.000 C 
ATOM      4  O   UNL     1      71.956 237.196 335.437  0.00  0.00    +0.000 OA
ATOM      5  O   UNL     1      70.861 237.024 333.401  0.00  0.00    +0.000 OA
ATOM      6  C   UNL     1      70.543 238.942 334.835  0.00  0.00    +0.000 C 
ATOM      7  C   UNL     1      71.041 239.246 335.977  0.00  0.00    +0.000 C 
ATOM      8  C   UNL     1      71.103 237.632 334.428  0.00  0.00    +0.000 C 
ATOM      9  C   UNL     1      71.920 238.237 336.360  0.00  0.00    +0.000 C 
ATOM     10  C   UNL     1      72.325 238.032 337.570  0.00  0.00    +0.000 C 
BRANCH   6  12
ATOM     11  C   UNL     1      68.818 240.410 333.539  0.00  0.00    +0.000 C 
ATOM     12  C   UNL     1      69.615 239.739 334.137  0.00  0.00    +0.000 C 
BRANCH  11  14
ATOM     13  O   UNL     1      66.571 240.523 332.753  0.00  0.00    +0.000 OA
ATOM     14  C   UNL     1      67.852 241.214 332.807  0.00  0.00    +0.000 C 
ATOM     15  C   UNL     1      66.585 241.717 333.530  0.00  0.00    +0.000 C 
ATOM     16  C   UNL     1      68.300 241.960 331.502  0.00  0.00    +0.000 C 
ATOM     17  C   UNL     1      65.855 242.775 332.909  0.00  0.00    +0.000 C 
ATOM     18  C   UNL     1      67.239 242.914 331.167  0.00  0.00    +0.000 C 
ATOM     19  C   UNL     1      66.053 243.458 331.696  0.00  0.00    +0.000 C 
ATOM     20  C   UNL     1      66.313 241.483 335.019  0.00  0.00    +0.000 C 
ATOM     21  C   UNL     1      69.610 242.705 331.874  0.00  0.00    +0.000 C 
ATOM     22  C   UNL     1      68.517 240.874 330.426  0.00  0.00    +0.000 C 
BRANCH  19  23
ATOM     23  O   UNL     1      65.740 244.774 331.533  0.00  0.00    +0.000 OA
ATOM     24  H   UNL     1      65.517 245.209 332.375  0.00  0.00    +0.000 HD
ENDBRANCH  19  23
ENDBRANCH  11  14
ENDBRANCH   6  12
ENDBRANCH   1   2
BRANCH   1  25
ATOM     25  C   UNL     1      74.735 235.851 339.425  0.00  0.00    +0.000 C 
ATOM     26  C   UNL     1      75.572 235.019 339.644  0.00  0.00    +0.000 C 
BRANCH  26  28
ATOM     27  C   UNL     1      77.473 233.119 340.129  0.00  0.00    +0.000 C 
ATOM     28  C   UNL     1      76.640 233.956 339.917  0.00  0.00    +0.000 C 
BRANCH  27  29
ATOM     29  C   UNL     1      78.533 232.045 340.403  0.00  0.00    +0.000 C 
BRANCH  29  30
ATOM     30  C   UNL     1      79.433 231.140 340.624  0.00  0.00    +0.000 C 
ATOM     31  C   UNL     1      80.596 230.984 339.691  0.00  0.00    +0.000 C 
BRANCH  30  33
ATOM     32  C   UNL     1      79.171 229.504 342.654  0.00  0.00    +0.000 C 
ATOM     33  C   UNL     1      79.291 230.256 341.724  0.00  0.00    +0.000 C 
BRANCH  32  39
ATOM     34  C   UNL     1      79.743 228.921 345.024  0.00  0.00    +0.000 C 
ATOM     35  C   UNL     1      78.240 227.394 343.548  0.00  0.00    +0.000 C 
ATOM     36  C   UNL     1      79.202 228.038 346.068  0.00  0.00    +0.000 C 
ATOM     37  C   UNL     1      78.298 226.964 346.195  0.00  0.00    +0.000 C 
ATOM     38  C   UNL     1      77.928 226.803 344.844  0.00  0.00    +0.000 C 
ATOM     39  C   UNL     1      79.045 228.678 343.673  0.00  0.00    +0.000 C 
ATOM     40  C   UNL     1      79.498 230.396 345.467  0.00  0.00    +0.000 C 
ATOM     41  C   UNL     1      81.264 228.665 344.850  0.00  0.00    +0.000 C 
ATOM     42  C   UNL     1      78.949 226.390 342.633  0.00  0.00    +0.000 C 
BRANCH  35  43
ATOM     43  O   UNL     1      77.018 227.676 342.901  0.00  0.00    +0.000 OA
ATOM     44  H   UNL     1      76.622 226.786 342.842  0.00  0.00    +0.000 HD
ENDBRANCH  35  43
BRANCH  37  45
ATOM     45  O   UNL     1      78.661 225.863 346.960  0.00  0.00    +0.000 OA
BRANCH  45  47
ATOM     46  O   UNL     1      77.089 224.123 346.935  0.00  0.00    +0.000 OA
ATOM     47  C   UNL     1      77.554 225.174 347.333  0.00  0.00    +0.000 C 
ATOM     48  C   UNL     1      76.764 225.829 348.411  0.00  0.00    +0.000 C 
ENDBRANCH  45  47
ENDBRANCH  37  45
ENDBRANCH  32  39
ENDBRANCH  30  33
ENDBRANCH  29  30
ENDBRANCH  27  29
ENDBRANCH  26  28
ENDBRANCH   1  25
TORSDOF 13
ENDMDL
MODEL 5
REMARK VINA RESULT:      -5.7     21.092     25.171
REMARK  Name = 5289155_Peridinin.pdbqt.pdb
REMARK  13 active torsions:
REMARK  status: ('A' for Active; 'I' for Inactive)
REMARK    1  A    between atoms: C_1  and  C_3
REMARK    2  A    between atoms: C_3  and  C_25
REMARK    3  A    between atoms: C_6  and  C_12
REMARK    4  A    between atoms: C_11  and  C_14
REMARK    5  A    between atoms: C_19  and  O_23
REMARK    6  A    between atoms: C_26  and  C_28
REMARK    7  A    between atoms: C_27  and  C_31
REMARK    8  A    between atoms: C_29  and  C_31
REMARK    9  A    between atoms: C_29  and  C_42
REMARK   10  A    between atoms: C_33  and  O_43
REMARK   11  A    between atoms: C_35  and  O_45
REMARK   12  A    between atoms: C_37  and  C_41
REMARK   13  A    between atoms: O_45  and  C_47
REMARK                            x       y       z     vdW  Elec       q    Type
REMARK                         _______ _______ _______ _____ _____    ______ ____
ROOT
ATOM      1  C   UNL     1      52.654 217.935 331.163  0.00  0.00    +0.000 C 
ENDROOT
BRANCH   1   2
ATOM      2  C   UNL     1      51.957 217.466 332.150  0.00  0.00    +0.000 C 
ATOM      3  C   UNL     1      52.253 216.106 332.702  0.00  0.00    +0.000 C 
ATOM      4  O   UNL     1      49.346 219.926 332.503  0.00  0.00    +0.000 OA
ATOM      5  O   UNL     1      47.336 220.996 332.936  0.00  0.00    +0.000 OA
ATOM      6  C   UNL     1      48.203 219.310 334.433  0.00  0.00    +0.000 C 
ATOM      7  C   UNL     1      49.276 218.607 334.398  0.00  0.00    +0.000 C 
ATOM      8  C   UNL     1      48.196 220.189 333.240  0.00  0.00    +0.000 C 
ATOM      9  C   UNL     1      50.006 218.970 333.269  0.00  0.00    +0.000 C 
ATOM     10  C   UNL     1      50.938 218.252 332.732  0.00  0.00    +0.000 C 
BRANCH   6  12
ATOM     11  C   UNL     1      46.386 219.122 336.296  0.00  0.00    +0.000 C 
ATOM     12  C   UNL     1      47.225 219.213 335.440  0.00  0.00    +0.000 C 
BRANCH  11  14
ATOM     13  O   UNL     1      45.831 219.627 338.558  0.00  0.00    +0.000 OA
ATOM     14  C   UNL     1      45.367 219.004 337.326  0.00  0.00    +0.000 C 
ATOM     15  C   UNL     1      44.739 220.284 337.919  0.00  0.00    +0.000 C 
ATOM     16  C   UNL     1      44.576 217.658 337.478  0.00  0.00    +0.000 C 
ATOM     17  C   UNL     1      43.519 220.136 338.646  0.00  0.00    +0.000 C 
ATOM     18  C   UNL     1      43.433 217.928 338.355  0.00  0.00    +0.000 C 
ATOM     19  C   UNL     1      42.760 218.999 338.972  0.00  0.00    +0.000 C 
ATOM     20  C   UNL     1      45.074 221.695 337.427  0.00  0.00    +0.000 C 
ATOM     21  C   UNL     1      44.095 217.291 336.049  0.00  0.00    +0.000 C 
ATOM     22  C   UNL     1      45.569 216.627 338.057  0.00  0.00    +0.000 C 
BRANCH  19  23
ATOM     23  O   UNL     1      41.401 219.025 339.066  0.00  0.00    +0.000 OA
ATOM     24  H   UNL     1      41.009 219.774 338.582  0.00  0.00    +0.000 HD
ENDBRANCH  19  23
ENDBRANCH  11  14
ENDBRANCH   6  12
ENDBRANCH   1   2
BRANCH   1  25
ATOM     25  C   UNL     1      53.479 218.490 329.997  0.00  0.00    +0.000 C 
ATOM     26  C   UNL     1      54.129 218.927 329.087  0.00  0.00    +0.000 C 
BRANCH  26  28
ATOM     27  C   UNL     1      55.623 219.924 327.029  0.00  0.00    +0.000 C 
ATOM     28  C   UNL     1      54.964 219.487 327.931  0.00  0.00    +0.000 C 
BRANCH  27  29
ATOM     29  C   UNL     1      56.470 220.484 325.880  0.00  0.00    +0.000 C 
BRANCH  29  30
ATOM     30  C   UNL     1      57.184 220.968 324.914  0.00  0.00    +0.000 C 
ATOM     31  C   UNL     1      56.926 220.548 323.498  0.00  0.00    +0.000 C 
BRANCH  30  33
ATOM     32  C   UNL     1      59.156 222.611 325.440  0.00  0.00    +0.000 C 
ATOM     33  C   UNL     1      58.252 221.856 325.200  0.00  0.00    +0.000 C 
BRANCH  32  39
ATOM     34  C   UNL     1      61.534 223.308 325.059  0.00  0.00    +0.000 C 
ATOM     35  C   UNL     1      59.976 224.561 326.723  0.00  0.00    +0.000 C 
ATOM     36  C   UNL     1      62.342 224.515 325.277  0.00  0.00    +0.000 C 
ATOM     37  C   UNL     1      62.272 225.735 325.982  0.00  0.00    +0.000 C 
ATOM     38  C   UNL     1      61.028 225.566 326.624  0.00  0.00    +0.000 C 
ATOM     39  C   UNL     1      60.143 223.443 325.705  0.00  0.00    +0.000 C 
ATOM     40  C   UNL     1      61.365 223.115 323.520  0.00  0.00    +0.000 C 
ATOM     41  C   UNL     1      62.248 222.074 325.672  0.00  0.00    +0.000 C 
ATOM     42  C   UNL     1      59.873 223.998 328.143  0.00  0.00    +0.000 C 
BRANCH  35  43
ATOM     43  O   UNL     1      58.743 225.210 326.498  0.00  0.00    +0.000 OA
ATOM     44  H   UNL     1      58.727 225.852 327.232  0.00  0.00    +0.000 HD
ENDBRANCH  35  43
BRANCH  37  45
ATOM     45  O   UNL     1      63.380 226.165 326.699  0.00  0.00    +0.000 OA
BRANCH  45  47
ATOM     46  O   UNL     1      64.989 227.475 325.605  0.00  0.00    +0.000 OA
ATOM     47  C   UNL     1      63.905 227.272 326.117  0.00  0.00    +0.000 C 
ATOM     48  C   UNL     1      62.995 228.449 326.118  0.00  0.00    +0.000 C 
ENDBRANCH  45  47
ENDBRANCH  37  45
ENDBRANCH  32  39
ENDBRANCH  30  33
ENDBRANCH  29  30
ENDBRANCH  27  29
ENDBRANCH  26  28
ENDBRANCH   1  25
TORSDOF 13
ENDMDL
MODEL 6
REMARK VINA RESULT:      -5.7     20.536     24.777
REMARK  Name = 5289155_Peridinin.pdbqt.pdb
REMARK  13 active torsions:
REMARK  status: ('A' for Active; 'I' for Inactive)
REMARK    1  A    between atoms: C_1  and  C_3
REMARK    2  A    between atoms: C_3  and  C_25
REMARK    3  A    between atoms: C_6  and  C_12
REMARK    4  A    between atoms: C_11  and  C_14
REMARK    5  A    between atoms: C_19  and  O_23
REMARK    6  A    between atoms: C_26  and  C_28
REMARK    7  A    between atoms: C_27  and  C_31
REMARK    8  A    between atoms: C_29  and  C_31
REMARK    9  A    between atoms: C_29  and  C_42
REMARK   10  A    between atoms: C_33  and  O_43
REMARK   11  A    between atoms: C_35  and  O_45
REMARK   12  A    between atoms: C_37  and  C_41
REMARK   13  A    between atoms: O_45  and  C_47
REMARK                            x       y       z     vdW  Elec       q    Type
REMARK                         _______ _______ _______ _____ _____    ______ ____
ROOT
ATOM      1  C   UNL     1      48.041 223.666 349.008  0.00  0.00    +0.000 C 
ENDROOT
BRANCH   1   2
ATOM      2  C   UNL     1      47.216 223.215 348.116  0.00  0.00    +0.000 C 
ATOM      3  C   UNL     1      46.462 221.944 348.360  0.00  0.00    +0.000 C 
ATOM      4  O   UNL     1      47.797 225.422 345.325  0.00  0.00    +0.000 OA
ATOM      5  O   UNL     1      48.001 226.317 343.197  0.00  0.00    +0.000 OA
ATOM      6  C   UNL     1      46.160 224.861 343.770  0.00  0.00    +0.000 C 
ATOM      7  C   UNL     1      45.849 224.270 344.865  0.00  0.00    +0.000 C 
ATOM      8  C   UNL     1      47.405 225.629 344.007  0.00  0.00    +0.000 C 
ATOM      9  C   UNL     1      46.791 224.606 345.834  0.00  0.00    +0.000 C 
ATOM     10  C   UNL     1      46.996 223.942 346.924  0.00  0.00    +0.000 C 
BRANCH   6  12
ATOM     11  C   UNL     1      44.793 224.668 341.557  0.00  0.00    +0.000 C 
ATOM     12  C   UNL     1      45.426 224.753 342.575  0.00  0.00    +0.000 C 
BRANCH  11  14
ATOM     13  O   UNL     1      43.454 225.870 339.993  0.00  0.00    +0.000 OA
ATOM     14  C   UNL     1      44.018 224.569 340.331  0.00  0.00    +0.000 C 
ATOM     15  C   UNL     1      44.450 225.387 339.095  0.00  0.00    +0.000 C 
ATOM     16  C   UNL     1      43.090 223.325 340.103  0.00  0.00    +0.000 C 
ATOM     17  C   UNL     1      43.899 225.004 337.834  0.00  0.00    +0.000 C 
ATOM     18  C   UNL     1      42.691 223.339 338.693  0.00  0.00    +0.000 C 
ATOM     19  C   UNL     1      42.974 224.005 337.485  0.00  0.00    +0.000 C 
ATOM     20  C   UNL     1      45.712 226.253 339.054  0.00  0.00    +0.000 C 
ATOM     21  C   UNL     1      43.970 222.085 340.412  0.00  0.00    +0.000 C 
ATOM     22  C   UNL     1      41.904 223.475 341.081  0.00  0.00    +0.000 C 
BRANCH  19  23
ATOM     23  O   UNL     1      43.025 223.337 336.299  0.00  0.00    +0.000 OA
ATOM     24  H   UNL     1      43.785 223.609 335.753  0.00  0.00    +0.000 HD
ENDBRANCH  19  23
ENDBRANCH  11  14
ENDBRANCH   6  12
ENDBRANCH   1   2
BRANCH   1  25
ATOM     25  C   UNL     1      49.018 224.198 350.063  0.00  0.00    +0.000 C 
ATOM     26  C   UNL     1      49.786 224.616 350.884  0.00  0.00    +0.000 C 
BRANCH  26  28
ATOM     27  C   UNL     1      51.538 225.572 352.748  0.00  0.00    +0.000 C 
ATOM     28  C   UNL     1      50.771 225.152 351.928  0.00  0.00    +0.000 C 
BRANCH  27  29
ATOM     29  C   UNL     1      52.514 226.114 353.801  0.00  0.00    +0.000 C 
BRANCH  29  30
ATOM     30  C   UNL     1      53.340 226.580 354.683  0.00  0.00    +0.000 C 
ATOM     31  C   UNL     1      52.927 226.700 356.119  0.00  0.00    +0.000 C 
BRANCH  30  33
ATOM     32  C   UNL     1      55.710 227.416 353.940  0.00  0.00    +0.000 C 
ATOM     33  C   UNL     1      54.623 227.031 354.280  0.00  0.00    +0.000 C 
BRANCH  32  39
ATOM     34  C   UNL     1      58.068 226.877 353.284  0.00  0.00    +0.000 C 
ATOM     35  C   UNL     1      57.208 229.326 353.467  0.00  0.00    +0.000 C 
ATOM     36  C   UNL     1      59.174 227.569 352.606  0.00  0.00    +0.000 C 
ATOM     37  C   UNL     1      59.538 228.873 352.215  0.00  0.00    +0.000 C 
ATOM     38  C   UNL     1      58.436 229.590 352.724  0.00  0.00    +0.000 C 
ATOM     39  C   UNL     1      56.902 227.840 353.572  0.00  0.00    +0.000 C 
ATOM     40  C   UNL     1      57.568 225.735 352.348  0.00  0.00    +0.000 C 
ATOM     41  C   UNL     1      58.563 226.282 354.630  0.00  0.00    +0.000 C 
ATOM     42  C   UNL     1      57.243 229.977 354.853  0.00  0.00    +0.000 C 
BRANCH  35  43
ATOM     43  O   UNL     1      56.152 229.969 352.788  0.00  0.00    +0.000 OA
ATOM     44  H   UNL     1      56.629 230.406 352.058  0.00  0.00    +0.000 HD
ENDBRANCH  35  43
BRANCH  37  45
ATOM     45  O   UNL     1      60.834 229.313 352.454  0.00  0.00    +0.000 OA
BRANCH  45  47
ATOM     46  O   UNL     1      61.226 231.599 352.104  0.00  0.00    +0.000 OA
ATOM     47  C   UNL     1      61.075 230.445 351.748  0.00  0.00    +0.000 C 
ATOM     48  C   UNL     1      61.156 230.239 350.277  0.00  0.00    +0.000 C 
ENDBRANCH  45  47
ENDBRANCH  37  45
ENDBRANCH  32  39
ENDBRANCH  30  33
ENDBRANCH  29  30
ENDBRANCH  27  29
ENDBRANCH  26  28
ENDBRANCH   1  25
TORSDOF 13
ENDMDL
MODEL 7
REMARK VINA RESULT:      -5.7     27.621     29.833
REMARK  Name = 5289155_Peridinin.pdbqt.pdb
REMARK  13 active torsions:
REMARK  status: ('A' for Active; 'I' for Inactive)
REMARK    1  A    between atoms: C_1  and  C_3
REMARK    2  A    between atoms: C_3  and  C_25
REMARK    3  A    between atoms: C_6  and  C_12
REMARK    4  A    between atoms: C_11  and  C_14
REMARK    5  A    between atoms: C_19  and  O_23
REMARK    6  A    between atoms: C_26  and  C_28
REMARK    7  A    between atoms: C_27  and  C_31
REMARK    8  A    between atoms: C_29  and  C_31
REMARK    9  A    between atoms: C_29  and  C_42
REMARK   10  A    between atoms: C_33  and  O_43
REMARK   11  A    between atoms: C_35  and  O_45
REMARK   12  A    between atoms: C_37  and  C_41
REMARK   13  A    between atoms: O_45  and  C_47
REMARK                            x       y       z     vdW  Elec       q    Type
REMARK                         _______ _______ _______ _____ _____    ______ ____
ROOT
ATOM      1  C   UNL     1      75.493 224.084 338.289  0.00  0.00    +0.000 C 
ENDROOT
BRANCH   1   2
ATOM      2  C   UNL     1      74.931 222.988 337.886  0.00  0.00    +0.000 C 
ATOM      3  C   UNL     1      75.768 221.797 337.537  0.00  0.00    +0.000 C 
ATOM      4  O   UNL     1      71.481 223.966 337.518  0.00  0.00    +0.000 OA
ATOM      5  O   UNL     1      69.276 224.141 336.824  0.00  0.00    +0.000 OA
ATOM      6  C   UNL     1      70.345 221.988 337.062  0.00  0.00    +0.000 C 
ATOM      7  C   UNL     1      71.529 221.659 337.431  0.00  0.00    +0.000 C 
ATOM      8  C   UNL     1      70.250 223.466 337.106  0.00  0.00    +0.000 C 
ATOM      9  C   UNL     1      72.234 222.818 337.744  0.00  0.00    +0.000 C 
ATOM     10  C   UNL     1      73.522 222.901 337.811  0.00  0.00    +0.000 C 
BRANCH   6  12
ATOM     11  C   UNL     1      68.508 220.285 336.334  0.00  0.00    +0.000 C 
ATOM     12  C   UNL     1      69.352 221.070 336.674  0.00  0.00    +0.000 C 
BRANCH  11  14
ATOM     13  O   UNL     1      67.717 218.047 336.547  0.00  0.00    +0.000 OA
ATOM     14  C   UNL     1      67.489 219.338 335.912  0.00  0.00    +0.000 C 
ATOM     15  C   UNL     1      66.537 218.730 336.964  0.00  0.00    +0.000 C 
ATOM     16  C   UNL     1      67.039 219.307 334.409  0.00  0.00    +0.000 C 
ATOM     17  C   UNL     1      65.349 218.100 336.485  0.00  0.00    +0.000 C 
ATOM     18  C   UNL     1      65.816 218.502 334.343  0.00  0.00    +0.000 C 
ATOM     19  C   UNL     1      64.869 217.884 335.182  0.00  0.00    +0.000 C 
ATOM     20  C   UNL     1      66.549 219.129 338.443  0.00  0.00    +0.000 C 
ATOM     21  C   UNL     1      66.745 220.783 334.030  0.00  0.00    +0.000 C 
ATOM     22  C   UNL     1      68.217 218.708 333.609  0.00  0.00    +0.000 C 
BRANCH  19  23
ATOM     23  O   UNL     1      63.541 217.887 334.877  0.00  0.00    +0.000 OA
ATOM     24  H   UNL     1      63.228 218.763 334.590  0.00  0.00    +0.000 HD
ENDBRANCH  19  23
ENDBRANCH  11  14
ENDBRANCH   6  12
ENDBRANCH   1   2
BRANCH   1  25
ATOM     25  C   UNL     1      76.158 225.380 338.765  0.00  0.00    +0.000 C 
ATOM     26  C   UNL     1      76.676 226.398 339.134  0.00  0.00    +0.000 C 
BRANCH  26  28
ATOM     27  C   UNL     1      77.846 228.724 339.959  0.00  0.00    +0.000 C 
ATOM     28  C   UNL     1      77.333 227.701 339.599  0.00  0.00    +0.000 C 
BRANCH  27  29
ATOM     29  C   UNL     1      78.502 230.035 340.412  0.00  0.00    +0.000 C 
BRANCH  29  30
ATOM     30  C   UNL     1      79.050 231.147 340.786  0.00  0.00    +0.000 C 
ATOM     31  C   UNL     1      80.209 231.137 341.737  0.00  0.00    +0.000 C 
BRANCH  30  33
ATOM     32  C   UNL     1      78.069 233.431 339.958  0.00  0.00    +0.000 C 
ATOM     33  C   UNL     1      78.519 232.383 340.340  0.00  0.00    +0.000 C 
BRANCH  32  39
ATOM     34  C   UNL     1      78.075 235.935 340.058  0.00  0.00    +0.000 C 
ATOM     35  C   UNL     1      76.427 234.616 338.539  0.00  0.00    +0.000 C 
ATOM     36  C   UNL     1      77.590 237.040 339.219  0.00  0.00    +0.000 C 
ATOM     37  C   UNL     1      76.724 237.251 338.126  0.00  0.00    +0.000 C 
ATOM     38  C   UNL     1      76.257 235.934 337.937  0.00  0.00    +0.000 C 
ATOM     39  C   UNL     1      77.574 234.577 339.536  0.00  0.00    +0.000 C 
ATOM     40  C   UNL     1      79.634 235.953 340.022  0.00  0.00    +0.000 C 
ATOM     41  C   UNL     1      77.577 236.120 341.516  0.00  0.00    +0.000 C 
ATOM     42  C   UNL     1      75.126 234.124 339.181  0.00  0.00    +0.000 C 
BRANCH  35  43
ATOM     43  O   UNL     1      76.688 233.701 337.497  0.00  0.00    +0.000 OA
ATOM     44  H   UNL     1      76.441 234.227 336.713  0.00  0.00    +0.000 HD
ENDBRANCH  35  43
BRANCH  37  45
ATOM     45  O   UNL     1      75.832 238.314 338.167  0.00  0.00    +0.000 OA
BRANCH  45  47
ATOM     46  O   UNL     1      76.697 240.480 338.415  0.00  0.00    +0.000 OA
ATOM     47  C   UNL     1      76.460 239.458 337.799  0.00  0.00    +0.000 C 
ATOM     48  C   UNL     1      76.932 239.467 336.388  0.00  0.00    +0.000 C 
ENDBRANCH  45  47
ENDBRANCH  37  45
ENDBRANCH  32  39
ENDBRANCH  30  33
ENDBRANCH  29  30
ENDBRANCH  27  29
ENDBRANCH  26  28
ENDBRANCH   1  25
TORSDOF 13
ENDMDL
MODEL 8
REMARK VINA RESULT:      -5.7     25.086     28.822
REMARK  Name = 5289155_Peridinin.pdbqt.pdb
REMARK  13 active torsions:
REMARK  status: ('A' for Active; 'I' for Inactive)
REMARK    1  A    between atoms: C_1  and  C_3
REMARK    2  A    between atoms: C_3  and  C_25
REMARK    3  A    between atoms: C_6  and  C_12
REMARK    4  A    between atoms: C_11  and  C_14
REMARK    5  A    between atoms: C_19  and  O_23
REMARK    6  A    between atoms: C_26  and  C_28
REMARK    7  A    between atoms: C_27  and  C_31
REMARK    8  A    between atoms: C_29  and  C_31
REMARK    9  A    between atoms: C_29  and  C_42
REMARK   10  A    between atoms: C_33  and  O_43
REMARK   11  A    between atoms: C_35  and  O_45
REMARK   12  A    between atoms: C_37  and  C_41
REMARK   13  A    between atoms: O_45  and  C_47
REMARK                            x       y       z     vdW  Elec       q    Type
REMARK                         _______ _______ _______ _____ _____    ______ ____
ROOT
ATOM      1  C   UNL     1      72.777 237.228 339.166  0.00  0.00    +0.000 C 
ENDROOT
BRANCH   1   2
ATOM      2  C   UNL     1      71.834 238.103 339.009  0.00  0.00    +0.000 C 
ATOM      3  C   UNL     1      71.055 238.590 340.191  0.00  0.00    +0.000 C 
ATOM      4  O   UNL     1      71.583 238.352 335.422  0.00  0.00    +0.000 OA
ATOM      5  O   UNL     1      70.808 238.646 333.257  0.00  0.00    +0.000 OA
ATOM      6  C   UNL     1      70.103 240.107 335.048  0.00  0.00    +0.000 C 
ATOM      7  C   UNL     1      70.403 240.135 336.295  0.00  0.00    +0.000 C 
ATOM      8  C   UNL     1      70.841 238.981 334.428  0.00  0.00    +0.000 C 
ATOM      9  C   UNL     1      71.315 239.115 336.554  0.00  0.00    +0.000 C 
ATOM     10  C   UNL     1      71.563 238.630 337.726  0.00  0.00    +0.000 C 
BRANCH   6  12
ATOM     11  C   UNL     1      68.445 241.755 333.889  0.00  0.00    +0.000 C 
ATOM     12  C   UNL     1      69.208 240.998 334.427  0.00  0.00    +0.000 C 
BRANCH  11  14
ATOM     13  O   UNL     1      68.272 243.642 332.444  0.00  0.00    +0.000 OA
ATOM     14  C   UNL     1      67.526 242.667 333.228  0.00  0.00    +0.000 C 
ATOM     15  C   UNL     1      67.492 242.721 331.686  0.00  0.00    +0.000 C 
ATOM     16  C   UNL     1      66.278 243.206 334.011  0.00  0.00    +0.000 C 
ATOM     17  C   UNL     1      66.359 243.343 331.079  0.00  0.00    +0.000 C 
ATOM     18  C   UNL     1      65.390 243.831 333.026  0.00  0.00    +0.000 C 
ATOM     19  C   UNL     1      65.233 243.975 331.634  0.00  0.00    +0.000 C 
ATOM     20  C   UNL     1      68.327 241.801 330.790  0.00  0.00    +0.000 C 
ATOM     21  C   UNL     1      65.607 241.957 334.640  0.00  0.00    +0.000 C 
ATOM     22  C   UNL     1      66.815 244.193 335.070  0.00  0.00    +0.000 C 
BRANCH  19  23
ATOM     23  O   UNL     1      64.004 243.934 331.049  0.00  0.00    +0.000 OA
ATOM     24  H   UNL     1      63.949 243.260 330.347  0.00  0.00    +0.000 HD
ENDBRANCH  19  23
ENDBRANCH  11  14
ENDBRANCH   6  12
ENDBRANCH   1   2
BRANCH   1  25
ATOM     25  C   UNL     1      73.893 236.193 339.350  0.00  0.00    +0.000 C 
ATOM     26  C   UNL     1      74.770 235.387 339.497  0.00  0.00    +0.000 C 
BRANCH  26  28
ATOM     27  C   UNL     1      76.772 233.562 339.845  0.00  0.00    +0.000 C 
ATOM     28  C   UNL     1      75.893 234.364 339.689  0.00  0.00    +0.000 C 
BRANCH  27  29
ATOM     29  C   UNL     1      77.898 232.541 340.051  0.00  0.00    +0.000 C 
BRANCH  29  30
ATOM     30  C   UNL     1      78.848 231.680 340.236  0.00  0.00    +0.000 C 
ATOM     31  C   UNL     1      80.282 232.109 340.169  0.00  0.00    +0.000 C 
BRANCH  30  33
ATOM     32  C   UNL     1      78.262 229.156 340.627  0.00  0.00    +0.000 C 
ATOM     33  C   UNL     1      78.532 230.314 340.448  0.00  0.00    +0.000 C 
BRANCH  32  39
ATOM     34  C   UNL     1      78.216 227.172 342.158  0.00  0.00    +0.000 C 
ATOM     35  C   UNL     1      77.408 227.033 339.689  0.00  0.00    +0.000 C 
ATOM     36  C   UNL     1      77.527 225.875 342.206  0.00  0.00    +0.000 C 
ATOM     37  C   UNL     1      76.775 225.033 341.361  0.00  0.00    +0.000 C 
ATOM     38  C   UNL     1      76.826 225.785 340.170  0.00  0.00    +0.000 C 
ATOM     39  C   UNL     1      77.966 227.886 340.817  0.00  0.00    +0.000 C 
ATOM     40  C   UNL     1      77.661 228.055 343.318  0.00  0.00    +0.000 C 
ATOM     41  C   UNL     1      79.744 226.966 342.333  0.00  0.00    +0.000 C 
ATOM     42  C   UNL     1      78.473 226.775 338.619  0.00  0.00    +0.000 C 
BRANCH  35  43
ATOM     43  O   UNL     1      76.391 227.751 339.025  0.00  0.00    +0.000 OA
ATOM     44  H   UNL     1      76.833 227.981 338.187  0.00  0.00    +0.000 HD
ENDBRANCH  35  43
BRANCH  37  45
ATOM     45  O   UNL     1      77.052 223.671 341.345  0.00  0.00    +0.000 OA
BRANCH  45  47
ATOM     46  O   UNL     1      75.281 223.084 342.766  0.00  0.00    +0.000 OA
ATOM     47  C   UNL     1      76.438 223.063 342.389  0.00  0.00    +0.000 C 
ATOM     48  C   UNL     1      77.343 222.232 343.228  0.00  0.00    +0.000 C 
ENDBRANCH  45  47
ENDBRANCH  37  45
ENDBRANCH  32  39
ENDBRANCH  30  33
ENDBRANCH  29  30
ENDBRANCH  27  29
ENDBRANCH  26  28
ENDBRANCH   1  25
TORSDOF 13
ENDMDL
MODEL 9
REMARK VINA RESULT:      -5.7     27.533     29.683
REMARK  Name = 5289155_Peridinin.pdbqt.pdb
REMARK  13 active torsions:
REMARK  status: ('A' for Active; 'I' for Inactive)
REMARK    1  A    between atoms: C_1  and  C_3
REMARK    2  A    between atoms: C_3  and  C_25
REMARK    3  A    between atoms: C_6  and  C_12
REMARK    4  A    between atoms: C_11  and  C_14
REMARK    5  A    between atoms: C_19  and  O_23
REMARK    6  A    between atoms: C_26  and  C_28
REMARK    7  A    between atoms: C_27  and  C_31
REMARK    8  A    between atoms: C_29  and  C_31
REMARK    9  A    between atoms: C_29  and  C_42
REMARK   10  A    between atoms: C_33  and  O_43
REMARK   11  A    between atoms: C_35  and  O_45
REMARK   12  A    between atoms: C_37  and  C_41
REMARK   13  A    between atoms: O_45  and  C_47
REMARK                            x       y       z     vdW  Elec       q    Type
REMARK                         _______ _______ _______ _____ _____    ______ ____
ROOT
ATOM      1  C   UNL     1      75.269 224.040 338.140  0.00  0.00    +0.000 C 
ENDROOT
BRANCH   1   2
ATOM      2  C   UNL     1      74.669 222.959 337.750  0.00  0.00    +0.000 C 
ATOM      3  C   UNL     1      75.467 221.753 337.363  0.00  0.00    +0.000 C 
ATOM      4  O   UNL     1      71.230 224.012 337.514  0.00  0.00    +0.000 OA
ATOM      5  O   UNL     1      69.006 224.239 336.902  0.00  0.00    +0.000 OA
ATOM      6  C   UNL     1      70.037 222.062 337.087  0.00  0.00    +0.000 C 
ATOM      7  C   UNL     1      71.226 221.705 337.411  0.00  0.00    +0.000 C 
ATOM      8  C   UNL     1      69.974 223.542 337.144  0.00  0.00    +0.000 C 
ATOM      9  C   UNL     1      71.966 222.847 337.705  0.00  0.00    +0.000 C 
ATOM     10  C   UNL     1      73.257 222.903 337.726  0.00  0.00    +0.000 C 
BRANCH   6  12
ATOM     11  C   UNL     1      68.136 220.399 336.432  0.00  0.00    +0.000 C 
ATOM     12  C   UNL     1      69.010 221.168 336.730  0.00  0.00    +0.000 C 
BRANCH  11  14
ATOM     13  O   UNL     1      65.807 220.155 335.991  0.00  0.00    +0.000 OA
ATOM     14  C   UNL     1      67.084 219.459 336.079  0.00  0.00    +0.000 C 
ATOM     15  C   UNL     1      66.311 219.652 334.756  0.00  0.00    +0.000 C 
ATOM     16  C   UNL     1      67.062 218.039 336.744  0.00  0.00    +0.000 C 
ATOM     17  C   UNL     1      65.553 218.542 334.275  0.00  0.00    +0.000 C 
ATOM     18  C   UNL     1      66.108 217.224 335.986  0.00  0.00    +0.000 C 
ATOM     19  C   UNL     1      65.336 217.260 334.810  0.00  0.00    +0.000 C 
ATOM     20  C   UNL     1      66.641 220.746 333.737  0.00  0.00    +0.000 C 
ATOM     21  C   UNL     1      68.503 217.482 336.589  0.00  0.00    +0.000 C 
ATOM     22  C   UNL     1      66.659 218.249 338.219  0.00  0.00    +0.000 C 
BRANCH  19  23
ATOM     23  O   UNL     1      65.178 216.155 334.029  0.00  0.00    +0.000 OA
ATOM     24  H   UNL     1      65.876 216.075 333.354  0.00  0.00    +0.000 HD
ENDBRANCH  19  23
ENDBRANCH  11  14
ENDBRANCH   6  12
ENDBRANCH   1   2
BRANCH   1  25
ATOM     25  C   UNL     1      75.978 225.319 338.599  0.00  0.00    +0.000 C 
ATOM     26  C   UNL     1      76.533 226.319 338.964  0.00  0.00    +0.000 C 
BRANCH  26  28
ATOM     27  C   UNL     1      77.793 228.588 339.814  0.00  0.00    +0.000 C 
ATOM     28  C   UNL     1      77.240 227.592 339.438  0.00  0.00    +0.000 C 
BRANCH  27  29
ATOM     29  C   UNL     1      78.494 229.862 340.301  0.00  0.00    +0.000 C 
BRANCH  29  30
ATOM     30  C   UNL     1      79.096 230.933 340.711  0.00  0.00    +0.000 C 
ATOM     31  C   UNL     1      80.389 230.834 341.463  0.00  0.00    +0.000 C 
BRANCH  30  33
ATOM     32  C   UNL     1      78.002 233.280 340.314  0.00  0.00    +0.000 C 
ATOM     33  C   UNL     1      78.503 232.204 340.498  0.00  0.00    +0.000 C 
BRANCH  32  39
ATOM     34  C   UNL     1      76.283 234.662 339.122  0.00  0.00    +0.000 C 
ATOM     35  C   UNL     1      77.973 235.705 340.802  0.00  0.00    +0.000 C 
ATOM     36  C   UNL     1      75.654 235.978 339.306  0.00  0.00    +0.000 C 
ATOM     37  C   UNL     1      75.848 237.159 340.050  0.00  0.00    +0.000 C 
ATOM     38  C   UNL     1      77.037 236.821 340.728  0.00  0.00    +0.000 C 
ATOM     39  C   UNL     1      77.447 234.458 340.108  0.00  0.00    +0.000 C 
ATOM     40  C   UNL     1      75.198 233.571 339.380  0.00  0.00    +0.000 C 
ATOM     41  C   UNL     1      76.830 234.534 337.675  0.00  0.00    +0.000 C 
ATOM     42  C   UNL     1      79.350 236.095 340.256  0.00  0.00    +0.000 C 
BRANCH  35  43
ATOM     43  O   UNL     1      78.190 235.419 342.166  0.00  0.00    +0.000 OA
ATOM     44  H   UNL     1      78.100 236.304 342.566  0.00  0.00    +0.000 HD
ENDBRANCH  35  43
BRANCH  37  45
ATOM     45  O   UNL     1      75.728 238.387 339.412  0.00  0.00    +0.000 OA
BRANCH  45  47
ATOM     46  O   UNL     1      75.971 240.292 340.758  0.00  0.00    +0.000 OA
ATOM     47  C   UNL     1      75.365 239.339 340.306  0.00  0.00    +0.000 C 
ATOM     48  C   UNL     1      73.984 239.180 340.837  0.00  0.00    +0.000 C 
ENDBRANCH  45  47
ENDBRANCH  37  45
ENDBRANCH  32  39
ENDBRANCH  30  33
ENDBRANCH  29  30
ENDBRANCH  27  29
ENDBRANCH  26  28
ENDBRANCH   1  25
TORSDOF 13
ENDMDL
