MODEL 1
REMARK VINA RESULT:      -5.7      0.000      0.000
REMARK  Name = 5318517_Andrographolide.pdbqt.pdb
REMARK  6 active torsions:
REMARK  status: ('A' for Active; 'I' for Inactive)
REMARK    1  A    between atoms: C_3  and  C_16
REMARK    2  A    between atoms: C_4  and  C_19
REMARK    3  A    between atoms: C_6  and  O_14
REMARK    4  A    between atoms: C_16  and  O_17
REMARK    5  A    between atoms: C_22  and  C_23
REMARK    6  A    between atoms: C_24  and  O_27
REMARK                            x       y       z     vdW  Elec       q    Type
REMARK                         _______ _______ _______ _____ _____    ______ ____
ROOT
ATOM      1  C   UNL     1      70.290 220.239 339.239  0.00  0.00    +0.000 C 
ATOM      2  C   UNL     1      70.717 220.650 340.680  0.00  0.00    +0.000 C 
ATOM      3  C   UNL     1      70.810 219.639 341.837  0.00  0.00    +0.000 C 
ATOM      4  C   UNL     1      69.579 221.322 338.379  0.00  0.00    +0.000 C 
ATOM      5  C   UNL     1      69.404 219.094 339.429  0.00  0.00    +0.000 C 
ATOM      6  C   UNL     1      69.939 218.350 341.726  0.00  0.00    +0.000 C 
ATOM      7  C   UNL     1      70.962 222.045 340.827  0.00  0.00    +0.000 C 
ATOM      8  C   UNL     1      69.180 218.147 340.559  0.00  0.00    +0.000 C 
ATOM      9  C   UNL     1      71.583 219.811 338.481  0.00  0.00    +0.000 C 
ATOM     10  C   UNL     1      70.552 223.049 339.798  0.00  0.00    +0.000 C 
ATOM     11  C   UNL     1      69.876 222.745 338.598  0.00  0.00    +0.000 C 
ATOM     12  C   UNL     1      70.327 220.361 343.146  0.00  0.00    +0.000 C 
ATOM     13  C   UNL     1      69.366 223.758 337.895  0.00  0.00    +0.000 C 
ENDROOT
BRANCH   6  14
ATOM     14  O   UNL     1      70.062 217.330 342.653  0.00  0.00    +0.000 OA
ATOM     15  H   UNL     1      69.301 216.723 342.637  0.00  0.00    +0.000 HD
ENDBRANCH   6  14
BRANCH   4  16
ATOM     16  C   UNL     1      68.730 220.937 337.287  0.00  0.00    +0.000 C 
ATOM     17  C   UNL     1      67.828 220.515 336.124  0.00  0.00    +0.000 C 
BRANCH  17  20
ATOM     18  O   UNL     1      66.467 219.272 333.076  0.00  0.00    +0.000 OA
ATOM     19  O   UNL     1      68.738 219.685 333.415  0.00  0.00    +0.000 OA
ATOM     20  C   UNL     1      67.059 220.153 335.145  0.00  0.00    +0.000 C 
ATOM     21  C   UNL     1      65.625 220.015 335.157  0.00  0.00    +0.000 C 
ATOM     22  C   UNL     1      67.581 219.692 333.799  0.00  0.00    +0.000 C 
ATOM     23  C   UNL     1      65.438 219.470 333.885  0.00  0.00    +0.000 C 
BRANCH  21  24
ATOM     24  O   UNL     1      64.983 219.588 336.284  0.00  0.00    +0.000 OA
ATOM     25  H   UNL     1      65.429 219.897 337.093  0.00  0.00    +0.000 HD
ENDBRANCH  21  24
ENDBRANCH  17  20
ENDBRANCH   4  16
BRANCH   3  26
ATOM     26  C   UNL     1      72.238 219.234 341.969  0.00  0.00    +0.000 C 
BRANCH  26  27
ATOM     27  O   UNL     1      73.520 218.872 342.075  0.00  0.00    +0.000 OA
ATOM     28  H   UNL     1      73.952 218.879 341.202  0.00  0.00    +0.000 HD
ENDBRANCH  26  27
ENDBRANCH   3  26
TORSDOF 6
ENDMDL
MODEL 2
REMARK VINA RESULT:      -5.4      3.837      6.721
REMARK  Name = 5318517_Andrographolide.pdbqt.pdb
REMARK  6 active torsions:
REMARK  status: ('A' for Active; 'I' for Inactive)
REMARK    1  A    between atoms: C_3  and  C_16
REMARK    2  A    between atoms: C_4  and  C_19
REMARK    3  A    between atoms: C_6  and  O_14
REMARK    4  A    between atoms: C_16  and  O_17
REMARK    5  A    between atoms: C_22  and  C_23
REMARK    6  A    between atoms: C_24  and  O_27
REMARK                            x       y       z     vdW  Elec       q    Type
REMARK                         _______ _______ _______ _____ _____    ______ ____
ROOT
ATOM      1  C   UNL     1      70.465 220.506 337.814  0.00  0.00    +0.000 C 
ATOM      2  C   UNL     1      69.165 219.877 338.402  0.00  0.00    +0.000 C 
ATOM      3  C   UNL     1      67.954 219.508 337.527  0.00  0.00    +0.000 C 
ATOM      4  C   UNL     1      71.283 221.438 338.752  0.00  0.00    +0.000 C 
ATOM      5  C   UNL     1      70.016 221.250 336.641  0.00  0.00    +0.000 C 
ATOM      6  C   UNL     1      67.790 220.277 336.180  0.00  0.00    +0.000 C 
ATOM      7  C   UNL     1      69.195 219.726 339.817  0.00  0.00    +0.000 C 
ATOM      8  C   UNL     1      68.781 221.203 335.807  0.00  0.00    +0.000 C 
ATOM      9  C   UNL     1      71.395 219.328 337.392  0.00  0.00    +0.000 C 
ATOM     10  C   UNL     1      70.225 220.384 340.679  0.00  0.00    +0.000 C 
ATOM     11  C   UNL     1      71.253 221.226 340.207  0.00  0.00    +0.000 C 
ATOM     12  C   UNL     1      66.653 219.821 338.351  0.00  0.00    +0.000 C 
ATOM     13  C   UNL     1      71.947 221.928 341.104  0.00  0.00    +0.000 C 
ENDROOT
BRANCH   6  14
ATOM     14  O   UNL     1      66.808 219.916 335.274  0.00  0.00    +0.000 OA
ATOM     15  H   UNL     1      66.100 219.390 335.687  0.00  0.00    +0.000 HD
ENDBRANCH   6  14
BRANCH   4  16
ATOM     16  C   UNL     1      72.168 222.424 338.200  0.00  0.00    +0.000 C 
ATOM     17  C   UNL     1      73.120 223.468 337.608  0.00  0.00    +0.000 C 
BRANCH  17  20
ATOM     18  O   UNL     1      74.941 225.653 335.465  0.00  0.00    +0.000 OA
ATOM     19  O   UNL     1      73.636 223.875 334.706  0.00  0.00    +0.000 OA
ATOM     20  C   UNL     1      73.923 224.347 337.099  0.00  0.00    +0.000 C 
ATOM     21  C   UNL     1      74.691 225.348 337.797  0.00  0.00    +0.000 C 
ATOM     22  C   UNL     1      74.111 224.544 335.607  0.00  0.00    +0.000 C 
ATOM     23  C   UNL     1      75.210 226.043 336.703  0.00  0.00    +0.000 C 
BRANCH  21  24
ATOM     24  O   UNL     1      74.191 225.938 338.923  0.00  0.00    +0.000 OA
ATOM     25  H   UNL     1      73.697 226.751 338.715  0.00  0.00    +0.000 HD
ENDBRANCH  21  24
ENDBRANCH  17  20
ENDBRANCH   4  16
BRANCH   3  26
ATOM     26  C   UNL     1      68.038 218.050 337.231  0.00  0.00    +0.000 C 
BRANCH  26  27
ATOM     27  O   UNL     1      68.125 216.742 336.972  0.00  0.00    +0.000 OA
ATOM     28  H   UNL     1      67.240 216.362 336.826  0.00  0.00    +0.000 HD
ENDBRANCH  26  27
ENDBRANCH   3  26
TORSDOF 6
ENDMDL
MODEL 3
REMARK VINA RESULT:      -5.3      3.037      4.766
REMARK  Name = 5318517_Andrographolide.pdbqt.pdb
REMARK  6 active torsions:
REMARK  status: ('A' for Active; 'I' for Inactive)
REMARK    1  A    between atoms: C_3  and  C_16
REMARK    2  A    between atoms: C_4  and  C_19
REMARK    3  A    between atoms: C_6  and  O_14
REMARK    4  A    between atoms: C_16  and  O_17
REMARK    5  A    between atoms: C_22  and  C_23
REMARK    6  A    between atoms: C_24  and  O_27
REMARK                            x       y       z     vdW  Elec       q    Type
REMARK                         _______ _______ _______ _____ _____    ______ ____
ROOT
ATOM      1  C   UNL     1      71.234 221.710 339.634  0.00  0.00    +0.000 C 
ATOM      2  C   UNL     1      72.689 221.989 340.117  0.00  0.00    +0.000 C 
ATOM      3  C   UNL     1      73.801 222.465 339.165  0.00  0.00    +0.000 C 
ATOM      4  C   UNL     1      70.425 220.637 340.418  0.00  0.00    +0.000 C 
ATOM      5  C   UNL     1      71.380 221.302 338.239  0.00  0.00    +0.000 C 
ATOM      6  C   UNL     1      73.640 222.117 337.654  0.00  0.00    +0.000 C 
ATOM      7  C   UNL     1      72.893 221.716 341.499  0.00  0.00    +0.000 C 
ATOM      8  C   UNL     1      72.470 221.458 337.234  0.00  0.00    +0.000 C 
ATOM      9  C   UNL     1      70.451 223.054 339.732  0.00  0.00    +0.000 C 
ATOM     10  C   UNL     1      71.910 220.950 342.325  0.00  0.00    +0.000 C 
ATOM     11  C   UNL     1      70.703 220.404 341.843  0.00  0.00    +0.000 C 
ATOM     12  C   UNL     1      75.143 221.781 339.613  0.00  0.00    +0.000 C 
ATOM     13  C   UNL     1      70.046 219.549 342.628  0.00  0.00    +0.000 C 
ENDROOT
BRANCH   6  14
ATOM     14  O   UNL     1      74.522 222.619 336.713  0.00  0.00    +0.000 OA
ATOM     15  H   UNL     1      75.178 221.957 336.432  0.00  0.00    +0.000 HD
ENDBRANCH   6  14
BRANCH   4  16
ATOM     16  C   UNL     1      69.323 219.963 339.793  0.00  0.00    +0.000 C 
ATOM     17  C   UNL     1      68.154 219.239 339.118  0.00  0.00    +0.000 C 
BRANCH  17  20
ATOM     18  O   UNL     1      65.444 218.232 337.038  0.00  0.00    +0.000 OA
ATOM     19  O   UNL     1      66.310 220.397 337.091  0.00  0.00    +0.000 OA
ATOM     20  C   UNL     1      67.168 218.619 338.550  0.00  0.00    +0.000 C 
ATOM     21  C   UNL     1      66.780 217.241 338.719  0.00  0.00    +0.000 C 
ATOM     22  C   UNL     1      66.289 219.244 337.485  0.00  0.00    +0.000 C 
ATOM     23  C   UNL     1      65.776 217.167 337.751  0.00  0.00    +0.000 C 
BRANCH  21  24
ATOM     24  O   UNL     1      67.727 216.279 338.927  0.00  0.00    +0.000 OA
ATOM     25  H   UNL     1      67.346 215.478 339.329  0.00  0.00    +0.000 HD
ENDBRANCH  21  24
ENDBRANCH  17  20
ENDBRANCH   4  16
BRANCH   3  26
ATOM     26  C   UNL     1      73.907 223.945 339.300  0.00  0.00    +0.000 C 
BRANCH  26  27
ATOM     27  O   UNL     1      73.994 225.274 339.412  0.00  0.00    +0.000 OA
ATOM     28  H   UNL     1      74.393 225.521 340.267  0.00  0.00    +0.000 HD
ENDBRANCH  26  27
ENDBRANCH   3  26
TORSDOF 6
ENDMDL
MODEL 4
REMARK VINA RESULT:      -5.3     10.417     13.540
REMARK  Name = 5318517_Andrographolide.pdbqt.pdb
REMARK  6 active torsions:
REMARK  status: ('A' for Active; 'I' for Inactive)
REMARK    1  A    between atoms: C_3  and  C_16
REMARK    2  A    between atoms: C_4  and  C_19
REMARK    3  A    between atoms: C_6  and  O_14
REMARK    4  A    between atoms: C_16  and  O_17
REMARK    5  A    between atoms: C_22  and  C_23
REMARK    6  A    between atoms: C_24  and  O_27
REMARK                            x       y       z     vdW  Elec       q    Type
REMARK                         _______ _______ _______ _____ _____    ______ ____
ROOT
ATOM      1  C   UNL     1      57.153 217.160 335.848  0.00  0.00    +0.000 C 
ATOM      2  C   UNL     1      58.342 216.839 336.804  0.00  0.00    +0.000 C 
ATOM      3  C   UNL     1      58.742 217.765 337.967  0.00  0.00    +0.000 C 
ATOM      4  C   UNL     1      57.251 216.612 334.396  0.00  0.00    +0.000 C 
ATOM      5  C   UNL     1      57.080 218.618 335.827  0.00  0.00    +0.000 C 
ATOM      6  C   UNL     1      58.354 219.269 337.843  0.00  0.00    +0.000 C 
ATOM      7  C   UNL     1      59.039 215.644 336.467  0.00  0.00    +0.000 C 
ATOM      8  C   UNL     1      57.607 219.684 336.726  0.00  0.00    +0.000 C 
ATOM      9  C   UNL     1      55.868 216.556 336.493  0.00  0.00    +0.000 C 
ATOM     10  C   UNL     1      58.853 214.942 335.161  0.00  0.00    +0.000 C 
ATOM     11  C   UNL     1      58.000 215.377 334.125  0.00  0.00    +0.000 C 
ATOM     12  C   UNL     1      60.310 217.742 338.080  0.00  0.00    +0.000 C 
ATOM     13  C   UNL     1      58.114 214.789 332.933  0.00  0.00    +0.000 C 
ENDROOT
BRANCH   6  14
ATOM     14  O   UNL     1      58.557 220.142 338.898  0.00  0.00    +0.000 OA
ATOM     15  H   UNL     1      58.040 219.897 339.685  0.00  0.00    +0.000 HD
ENDBRANCH   6  14
BRANCH   4  16
ATOM     16  C   UNL     1      56.508 217.236 333.337  0.00  0.00    +0.000 C 
ATOM     17  C   UNL     1      55.708 217.892 332.208  0.00  0.00    +0.000 C 
BRANCH  17  20
ATOM     18  O   UNL     1      54.295 218.888 329.094  0.00  0.00    +0.000 OA
ATOM     19  O   UNL     1      56.245 217.623 329.294  0.00  0.00    +0.000 OA
ATOM     20  C   UNL     1      55.024 218.449 331.258  0.00  0.00    +0.000 C 
ATOM     21  C   UNL     1      53.840 219.260 331.385  0.00  0.00    +0.000 C 
ATOM     22  C   UNL     1      55.314 218.237 329.785  0.00  0.00    +0.000 C 
ATOM     23  C   UNL     1      53.524 219.415 330.033  0.00  0.00    +0.000 C 
BRANCH  21  24
ATOM     24  O   UNL     1      52.928 218.999 332.368  0.00  0.00    +0.000 OA
ATOM     25  H   UNL     1      52.774 218.043 332.473  0.00  0.00    +0.000 HD
ENDBRANCH  21  24
ENDBRANCH  17  20
ENDBRANCH   4  16
BRANCH   3  26
ATOM     26  C   UNL     1      58.128 217.219 339.210  0.00  0.00    +0.000 C 
BRANCH  26  27
ATOM     27  O   UNL     1      57.580 216.718 340.322  0.00  0.00    +0.000 OA
ATOM     28  H   UNL     1      57.856 215.793 340.453  0.00  0.00    +0.000 HD
ENDBRANCH  26  27
ENDBRANCH   3  26
TORSDOF 6
ENDMDL
MODEL 5
REMARK VINA RESULT:      -5.3     29.289     31.125
REMARK  Name = 5318517_Andrographolide.pdbqt.pdb
REMARK  6 active torsions:
REMARK  status: ('A' for Active; 'I' for Inactive)
REMARK    1  A    between atoms: C_3  and  C_16
REMARK    2  A    between atoms: C_4  and  C_19
REMARK    3  A    between atoms: C_6  and  O_14
REMARK    4  A    between atoms: C_16  and  O_17
REMARK    5  A    between atoms: C_22  and  C_23
REMARK    6  A    between atoms: C_24  and  O_27
REMARK                            x       y       z     vdW  Elec       q    Type
REMARK                         _______ _______ _______ _____ _____    ______ ____
ROOT
ATOM      1  C   UNL     1      48.470 235.880 322.735  0.00  0.00    +0.000 C 
ATOM      2  C   UNL     1      48.507 237.414 323.007  0.00  0.00    +0.000 C 
ATOM      3  C   UNL     1      47.931 238.043 324.288  0.00  0.00    +0.000 C 
ATOM      4  C   UNL     1      48.413 235.430 321.247  0.00  0.00    +0.000 C 
ATOM      5  C   UNL     1      47.283 235.409 323.443  0.00  0.00    +0.000 C 
ATOM      6  C   UNL     1      46.814 237.247 325.029  0.00  0.00    +0.000 C 
ATOM      7  C   UNL     1      49.078 238.168 321.942  0.00  0.00    +0.000 C 
ATOM      8  C   UNL     1      46.447 235.981 324.537  0.00  0.00    +0.000 C 
ATOM      9  C   UNL     1      49.760 235.270 323.362  0.00  0.00    +0.000 C 
ATOM     10  C   UNL     1      49.326 237.591 320.586  0.00  0.00    +0.000 C 
ATOM     11  C   UNL     1      49.015 236.270 320.202  0.00  0.00    +0.000 C 
ATOM     12  C   UNL     1      47.278 239.418 323.896  0.00  0.00    +0.000 C 
ATOM     13  C   UNL     1      49.069 235.967 318.904  0.00  0.00    +0.000 C 
ENDROOT
BRANCH   6  14
ATOM     14  O   UNL     1      46.336 237.673 326.256  0.00  0.00    +0.000 OA
ATOM     15  H   UNL     1      45.390 237.477 326.372  0.00  0.00    +0.000 HD
ENDBRANCH   6  14
BRANCH   4  16
ATOM     16  C   UNL     1      47.889 234.138 320.902  0.00  0.00    +0.000 C 
ATOM     17  C   UNL     1      47.323 232.761 320.543  0.00  0.00    +0.000 C 
BRANCH  17  20
ATOM     18  O   UNL     1      45.568 229.663 320.459  0.00  0.00    +0.000 OA
ATOM     19  O   UNL     1      45.769 230.995 322.364  0.00  0.00    +0.000 OA
ATOM     20  C   UNL     1      46.837 231.600 320.237  0.00  0.00    +0.000 C 
ATOM     21  C   UNL     1      46.882 230.935 318.959  0.00  0.00    +0.000 C 
ATOM     22  C   UNL     1      46.008 230.763 321.192  0.00  0.00    +0.000 C 
ATOM     23  C   UNL     1      46.077 229.831 319.248  0.00  0.00    +0.000 C 
BRANCH  21  24
ATOM     24  O   UNL     1      46.817 231.659 317.803  0.00  0.00    +0.000 OA
ATOM     25  H   UNL     1      46.342 232.499 317.929  0.00  0.00    +0.000 HD
ENDBRANCH  21  24
ENDBRANCH  17  20
ENDBRANCH   4  16
BRANCH   3  26
ATOM     26  C   UNL     1      49.063 238.261 325.233  0.00  0.00    +0.000 C 
BRANCH  26  27
ATOM     27  O   UNL     1      50.085 238.454 326.070  0.00  0.00    +0.000 OA
ATOM     28  H   UNL     1      50.691 237.691 326.054  0.00  0.00    +0.000 HD
ENDBRANCH  26  27
ENDBRANCH   3  26
TORSDOF 6
ENDMDL
MODEL 6
REMARK VINA RESULT:      -5.2     29.151     31.650
REMARK  Name = 5318517_Andrographolide.pdbqt.pdb
REMARK  6 active torsions:
REMARK  status: ('A' for Active; 'I' for Inactive)
REMARK    1  A    between atoms: C_3  and  C_16
REMARK    2  A    between atoms: C_4  and  C_19
REMARK    3  A    between atoms: C_6  and  O_14
REMARK    4  A    between atoms: C_16  and  O_17
REMARK    5  A    between atoms: C_22  and  C_23
REMARK    6  A    between atoms: C_24  and  O_27
REMARK                            x       y       z     vdW  Elec       q    Type
REMARK                         _______ _______ _______ _____ _____    ______ ____
ROOT
ATOM      1  C   UNL     1      45.824 235.120 324.094  0.00  0.00    +0.000 C 
ATOM      2  C   UNL     1      45.565 233.583 324.108  0.00  0.00    +0.000 C 
ATOM      3  C   UNL     1      44.273 232.967 324.673  0.00  0.00    +0.000 C 
ATOM      4  C   UNL     1      47.306 235.584 324.174  0.00  0.00    +0.000 C 
ATOM      5  C   UNL     1      45.080 235.630 325.242  0.00  0.00    +0.000 C 
ATOM      6  C   UNL     1      43.495 233.798 325.737  0.00  0.00    +0.000 C 
ATOM      7  C   UNL     1      46.650 232.817 323.596  0.00  0.00    +0.000 C 
ATOM      8  C   UNL     1      43.967 235.081 326.069  0.00  0.00    +0.000 C 
ATOM      9  C   UNL     1      45.229 235.675 322.764  0.00  0.00    +0.000 C 
ATOM     10  C   UNL     1      48.009 233.395 323.364  0.00  0.00    +0.000 C 
ATOM     11  C   UNL     1      48.374 234.730 323.634  0.00  0.00    +0.000 C 
ATOM     12  C   UNL     1      44.656 231.621 325.388  0.00  0.00    +0.000 C 
ATOM     13  C   UNL     1      49.671 235.042 323.604  0.00  0.00    +0.000 C 
ENDROOT
BRANCH   6  14
ATOM     14  O   UNL     1      42.258 233.380 326.197  0.00  0.00    +0.000 OA
ATOM     15  H   UNL     1      42.285 232.477 326.558  0.00  0.00    +0.000 HD
ENDBRANCH   6  14
BRANCH   4  16
ATOM     16  C   UNL     1      47.628 236.897 324.658  0.00  0.00    +0.000 C 
ATOM     17  C   UNL     1      47.964 238.296 325.183  0.00  0.00    +0.000 C 
BRANCH  17  20
ATOM     18  O   UNL     1      47.899 241.601 326.509  0.00  0.00    +0.000 OA
ATOM     19  O   UNL     1      46.018 240.487 325.697  0.00  0.00    +0.000 OA
ATOM     20  C   UNL     1      48.255 239.476 325.633  0.00  0.00    +0.000 C 
ATOM     21  C   UNL     1      49.547 239.971 326.037  0.00  0.00    +0.000 C 
ATOM     22  C   UNL     1      47.214 240.539 325.924  0.00  0.00    +0.000 C 
ATOM     23  C   UNL     1      49.166 241.215 326.545  0.00  0.00    +0.000 C 
BRANCH  21  24
ATOM     24  O   UNL     1      50.450 239.136 326.630  0.00  0.00    +0.000 OA
ATOM     25  H   UNL     1      50.094 238.237 326.738  0.00  0.00    +0.000 HD
ENDBRANCH  21  24
ENDBRANCH  17  20
ENDBRANCH   4  16
BRANCH   3  26
ATOM     26  C   UNL     1      43.361 232.698 323.524  0.00  0.00    +0.000 C 
BRANCH  26  27
ATOM     27  O   UNL     1      42.547 232.445 322.496  0.00  0.00    +0.000 OA
ATOM     28  H   UNL     1      42.880 231.694 321.971  0.00  0.00    +0.000 HD
ENDBRANCH  26  27
ENDBRANCH   3  26
TORSDOF 6
ENDMDL
MODEL 7
REMARK VINA RESULT:      -5.0      9.073     13.101
REMARK  Name = 5318517_Andrographolide.pdbqt.pdb
REMARK  6 active torsions:
REMARK  status: ('A' for Active; 'I' for Inactive)
REMARK    1  A    between atoms: C_3  and  C_16
REMARK    2  A    between atoms: C_4  and  C_19
REMARK    3  A    between atoms: C_6  and  O_14
REMARK    4  A    between atoms: C_16  and  O_17
REMARK    5  A    between atoms: C_22  and  C_23
REMARK    6  A    between atoms: C_24  and  O_27
REMARK                            x       y       z     vdW  Elec       q    Type
REMARK                         _______ _______ _______ _____ _____    ______ ____
ROOT
ATOM      1  C   UNL     1      58.632 217.355 334.849  0.00  0.00    +0.000 C 
ATOM      2  C   UNL     1      59.498 216.377 335.700  0.00  0.00    +0.000 C 
ATOM      3  C   UNL     1      61.005 216.183 335.459  0.00  0.00    +0.000 C 
ATOM      4  C   UNL     1      57.129 216.997 334.678  0.00  0.00    +0.000 C 
ATOM      5  C   UNL     1      59.288 217.388 333.545  0.00  0.00    +0.000 C 
ATOM      6  C   UNL     1      61.544 216.504 334.032  0.00  0.00    +0.000 C 
ATOM      7  C   UNL     1      58.752 215.658 336.677  0.00  0.00    +0.000 C 
ATOM      8  C   UNL     1      60.652 217.015 333.073  0.00  0.00    +0.000 C 
ATOM      9  C   UNL     1      58.708 218.753 335.535  0.00  0.00    +0.000 C 
ATOM     10  C   UNL     1      57.258 215.610 336.678  0.00  0.00    +0.000 C 
ATOM     11  C   UNL     1      56.429 216.240 335.726  0.00  0.00    +0.000 C 
ATOM     12  C   UNL     1      61.339 214.666 335.703  0.00  0.00    +0.000 C 
ATOM     13  C   UNL     1      55.135 215.916 335.712  0.00  0.00    +0.000 C 
ENDROOT
BRANCH   6  14
ATOM     14  O   UNL     1      62.903 216.484 333.767  0.00  0.00    +0.000 OA
ATOM     15  H   UNL     1      63.206 217.299 333.330  0.00  0.00    +0.000 HD
ENDBRANCH   6  14
BRANCH   4  16
ATOM     16  C   UNL     1      56.385 217.510 333.562  0.00  0.00    +0.000 C 
ATOM     17  C   UNL     1      55.583 218.060 332.378  0.00  0.00    +0.000 C 
BRANCH  17  20
ATOM     18  O   UNL     1      54.272 218.876 329.169  0.00  0.00    +0.000 OA
ATOM     19  O   UNL     1      56.331 217.833 329.507  0.00  0.00    +0.000 OA
ATOM     20  C   UNL     1      54.905 218.533 331.380  0.00  0.00    +0.000 C 
ATOM     21  C   UNL     1      53.634 219.211 331.421  0.00  0.00    +0.000 C 
ATOM     22  C   UNL     1      55.309 218.344 329.931  0.00  0.00    +0.000 C 
ATOM     23  C   UNL     1      53.390 219.322 330.051  0.00  0.00    +0.000 C 
BRANCH  21  24
ATOM     24  O   UNL     1      52.695 218.858 332.348  0.00  0.00    +0.000 OA
ATOM     25  H   UNL     1      52.639 217.892 332.457  0.00  0.00    +0.000 HD
ENDBRANCH  21  24
ENDBRANCH  17  20
ENDBRANCH   4  16
BRANCH   3  26
ATOM     26  C   UNL     1      61.733 217.034 336.442  0.00  0.00    +0.000 C 
BRANCH  26  27
ATOM     27  O   UNL     1      62.378 217.795 337.332  0.00  0.00    +0.000 OA
ATOM     28  H   UNL     1      62.143 218.733 337.215  0.00  0.00    +0.000 HD
ENDBRANCH  26  27
ENDBRANCH   3  26
TORSDOF 6
ENDMDL
MODEL 8
REMARK VINA RESULT:      -5.0     30.493     33.398
REMARK  Name = 5318517_Andrographolide.pdbqt.pdb
REMARK  6 active torsions:
REMARK  status: ('A' for Active; 'I' for Inactive)
REMARK    1  A    between atoms: C_3  and  C_16
REMARK    2  A    between atoms: C_4  and  C_19
REMARK    3  A    between atoms: C_6  and  O_14
REMARK    4  A    between atoms: C_16  and  O_17
REMARK    5  A    between atoms: C_22  and  C_23
REMARK    6  A    between atoms: C_24  and  O_27
REMARK                            x       y       z     vdW  Elec       q    Type
REMARK                         _______ _______ _______ _____ _____    ______ ____
ROOT
ATOM      1  C   UNL     1      52.619 245.964 326.146  0.00  0.00    +0.000 C 
ATOM      2  C   UNL     1      51.285 245.397 326.719  0.00  0.00    +0.000 C 
ATOM      3  C   UNL     1      51.243 244.221 327.711  0.00  0.00    +0.000 C 
ATOM      4  C   UNL     1      52.561 246.605 324.731  0.00  0.00    +0.000 C 
ATOM      5  C   UNL     1      53.531 244.824 326.139  0.00  0.00    +0.000 C 
ATOM      6  C   UNL     1      52.451 243.236 327.696  0.00  0.00    +0.000 C 
ATOM      7  C   UNL     1      50.124 246.039 326.202  0.00  0.00    +0.000 C 
ATOM      8  C   UNL     1      53.534 243.508 326.841  0.00  0.00    +0.000 C 
ATOM      9  C   UNL     1      53.118 247.058 327.139  0.00  0.00    +0.000 C 
ATOM     10  C   UNL     1      50.163 246.939 325.009  0.00  0.00    +0.000 C 
ATOM     11  C   UNL     1      51.321 247.239 324.261  0.00  0.00    +0.000 C 
ATOM     12  C   UNL     1      49.983 243.347 327.366  0.00  0.00    +0.000 C 
ATOM     13  C   UNL     1      51.165 247.860 323.091  0.00  0.00    +0.000 C 
ENDROOT
BRANCH   6  14
ATOM     14  O   UNL     1      52.557 242.231 328.642  0.00  0.00    +0.000 OA
ATOM     15  H   UNL     1      51.946 241.494 328.468  0.00  0.00    +0.000 HD
ENDBRANCH   6  14
BRANCH   4  16
ATOM     16  C   UNL     1      53.749 246.696 323.928  0.00  0.00    +0.000 C 
ATOM     17  C   UNL     1      55.020 246.800 323.080  0.00  0.00    +0.000 C 
BRANCH  17  20
ATOM     18  O   UNL     1      57.662 246.320 320.741  0.00  0.00    +0.000 OA
ATOM     19  O   UNL     1      56.039 244.714 321.219  0.00  0.00    +0.000 OA
ATOM     20  C   UNL     1      56.100 246.883 322.369  0.00  0.00    +0.000 C 
ATOM     21  C   UNL     1      57.005 248.000 322.271  0.00  0.00    +0.000 C 
ATOM     22  C   UNL     1      56.546 245.808 321.398  0.00  0.00    +0.000 C 
ATOM     23  C   UNL     1      57.847 247.523 321.264  0.00  0.00    +0.000 C 
BRANCH  21  24
ATOM     24  O   UNL     1      56.532 249.279 322.342  0.00  0.00    +0.000 OA
ATOM     25  H   UNL     1      56.897 249.840 321.635  0.00  0.00    +0.000 HD
ENDBRANCH  21  24
ENDBRANCH  17  20
ENDBRANCH   4  16
BRANCH   3  26
ATOM     26  C   UNL     1      51.115 244.791 329.082  0.00  0.00    +0.000 C 
BRANCH  26  27
ATOM     27  O   UNL     1      50.987 245.301 330.311  0.00  0.00    +0.000 OA
ATOM     28  H   UNL     1      50.629 246.206 330.271  0.00  0.00    +0.000 HD
ENDBRANCH  26  27
ENDBRANCH   3  26
TORSDOF 6
ENDMDL
MODEL 9
REMARK VINA RESULT:      -4.8      6.117      8.103
REMARK  Name = 5318517_Andrographolide.pdbqt.pdb
REMARK  6 active torsions:
REMARK  status: ('A' for Active; 'I' for Inactive)
REMARK    1  A    between atoms: C_3  and  C_16
REMARK    2  A    between atoms: C_4  and  C_19
REMARK    3  A    between atoms: C_6  and  O_14
REMARK    4  A    between atoms: C_16  and  O_17
REMARK    5  A    between atoms: C_22  and  C_23
REMARK    6  A    between atoms: C_24  and  O_27
REMARK                            x       y       z     vdW  Elec       q    Type
REMARK                         _______ _______ _______ _____ _____    ______ ____
ROOT
ATOM      1  C   UNL     1      76.227 224.679 340.903  0.00  0.00    +0.000 C 
ATOM      2  C   UNL     1      77.198 225.824 341.320  0.00  0.00    +0.000 C 
ATOM      3  C   UNL     1      77.613 226.066 342.782  0.00  0.00    +0.000 C 
ATOM      4  C   UNL     1      75.359 224.919 339.635  0.00  0.00    +0.000 C 
ATOM      5  C   UNL     1      75.366 224.483 342.066  0.00  0.00    +0.000 C 
ATOM      6  C   UNL     1      76.640 225.561 343.890  0.00  0.00    +0.000 C 
ATOM      7  C   UNL     1      77.618 226.641 340.232  0.00  0.00    +0.000 C 
ATOM      8  C   UNL     1      75.485 224.857 343.504  0.00  0.00    +0.000 C 
ATOM      9  C   UNL     1      77.096 223.410 340.645  0.00  0.00    +0.000 C 
ATOM     10  C   UNL     1      76.958 226.602 338.892  0.00  0.00    +0.000 C 
ATOM     11  C   UNL     1      75.856 225.787 338.557  0.00  0.00    +0.000 C 
ATOM     12  C   UNL     1      77.727 227.619 342.998  0.00  0.00    +0.000 C 
ATOM     13  C   UNL     1      75.225 226.029 337.408  0.00  0.00    +0.000 C 
ENDROOT
BRANCH   6  14
ATOM     14  O   UNL     1      76.997 225.618 345.226  0.00  0.00    +0.000 OA
ATOM     15  H   UNL     1      76.698 224.836 345.722  0.00  0.00    +0.000 HD
ENDBRANCH   6  14
BRANCH   4  16
ATOM     16  C   UNL     1      74.131 224.198 339.452  0.00  0.00    +0.000 C 
ATOM     17  C   UNL     1      72.816 223.439 339.253  0.00  0.00    +0.000 C 
BRANCH  17  20
ATOM     18  O   UNL     1      69.831 221.531 339.620  0.00  0.00    +0.000 OA
ATOM     19  O   UNL     1      71.506 221.652 341.238  0.00  0.00    +0.000 OA
ATOM     20  C   UNL     1      71.705 222.796 339.075  0.00  0.00    +0.000 C 
ATOM     21  C   UNL     1      70.835 222.842 337.927  0.00  0.00    +0.000 C 
ATOM     22  C   UNL     1      71.056 221.937 340.142  0.00  0.00    +0.000 C 
ATOM     23  C   UNL     1      69.776 222.071 338.412  0.00  0.00    +0.000 C 
BRANCH  21  24
ATOM     24  O   UNL     1      70.688 224.001 337.219  0.00  0.00    +0.000 OA
ATOM     25  H   UNL     1      71.056 224.765 337.697  0.00  0.00    +0.000 HD
ENDBRANCH  21  24
ENDBRANCH  17  20
ENDBRANCH   4  16
BRANCH   3  26
ATOM     26  C   UNL     1      78.940 225.419 342.988  0.00  0.00    +0.000 C 
BRANCH  26  27
ATOM     27  O   UNL     1      80.128 224.832 343.162  0.00  0.00    +0.000 OA
ATOM     28  H   UNL     1      80.148 223.962 342.724  0.00  0.00    +0.000 HD
ENDBRANCH  26  27
ENDBRANCH   3  26
TORSDOF 6
ENDMDL
