MODEL 1
REMARK VINA RESULT:      -6.2      0.000      0.000
REMARK  Name = 5326018_Caulerpin.pdbqt.pdb
REMARK  4 active torsions:
REMARK  status: ('A' for Active; 'I' for Inactive)
REMARK    1  A    between atoms: C_11  and  C_26
REMARK    2  A    between atoms: C_12  and  C_30
REMARK    3  A    between atoms: C_26  and  O_27
REMARK    4  A    between atoms: C_30  and  O_31
REMARK                            x       y       z     vdW  Elec       q    Type
REMARK                         _______ _______ _______ _____ _____    ______ ____
ROOT
ATOM      1  N   UNL     1      50.701 241.652 322.866  0.00  0.00    +0.000 N 
ATOM      2  N   UNL     1      54.024 246.714 325.320  0.00  0.00    +0.000 N 
ATOM      3  C   UNL     1      51.162 242.904 324.636  0.00  0.00    +0.000 C 
ATOM      4  C   UNL     1      53.833 245.210 323.703  0.00  0.00    +0.000 C 
ATOM      5  C   UNL     1      51.631 242.533 323.378  0.00  0.00    +0.000 C 
ATOM      6  C   UNL     1      53.460 245.493 325.014  0.00  0.00    +0.000 C 
ATOM      7  C   UNL     1      49.972 242.190 324.914  0.00  0.00    +0.000 A 
ATOM      8  C   UNL     1      54.685 246.239 323.233  0.00  0.00    +0.000 A 
ATOM      9  C   UNL     1      49.707 241.408 323.790  0.00  0.00    +0.000 A 
ATOM     10  C   UNL     1      54.793 247.167 324.268  0.00  0.00    +0.000 A 
ATOM     11  C   UNL     1      52.771 242.959 322.610  0.00  0.00    +0.000 C 
ATOM     12  C   UNL     1      52.604 244.802 325.943  0.00  0.00    +0.000 C 
ATOM     13  C   UNL     1      53.371 244.055 322.998  0.00  0.00    +0.000 C 
ATOM     14  C   UNL     1      51.820 243.877 325.451  0.00  0.00    +0.000 C 
ATOM     15  C   UNL     1      49.080 242.141 326.001  0.00  0.00    +0.000 A 
ATOM     16  C   UNL     1      55.365 246.486 322.026  0.00  0.00    +0.000 A 
ATOM     17  C   UNL     1      48.591 240.570 323.697  0.00  0.00    +0.000 A 
ATOM     18  C   UNL     1      55.553 248.337 324.161  0.00  0.00    +0.000 A 
ATOM     19  C   UNL     1      47.964 241.305 325.928  0.00  0.00    +0.000 A 
ATOM     20  C   UNL     1      56.133 247.645 321.904  0.00  0.00    +0.000 A 
ATOM     21  C   UNL     1      47.727 240.534 324.794  0.00  0.00    +0.000 A 
ATOM     22  C   UNL     1      56.224 248.552 322.955  0.00  0.00    +0.000 A 
ATOM     23  H   UNL     1      50.707 241.233 321.945  0.00  0.00    +0.000 HD
ATOM     24  H   UNL     1      53.905 247.239 326.178  0.00  0.00    +0.000 HD
ENDROOT
BRANCH  11  26
ATOM     25  O   UNL     1      54.056 242.716 320.606  0.00  0.00    +0.000 OA
ATOM     26  C   UNL     1      53.400 242.190 321.497  0.00  0.00    +0.000 C 
BRANCH  26  27
ATOM     27  O   UNL     1      53.135 240.863 321.675  0.00  0.00    +0.000 OA
ATOM     28  C   UNL     1      53.782 239.939 320.841  0.00  0.00    +0.000 C 
ENDBRANCH  26  27
ENDBRANCH  11  26
BRANCH  12  30
ATOM     29  O   UNL     1      53.131 245.929 327.988  0.00  0.00    +0.000 OA
ATOM     30  C   UNL     1      52.631 244.961 327.426  0.00  0.00    +0.000 C 
BRANCH  30  31
ATOM     31  O   UNL     1      52.003 243.891 327.994  0.00  0.00    +0.000 OA
ATOM     32  C   UNL     1      51.163 244.123 329.095  0.00  0.00    +0.000 C 
ENDBRANCH  30  31
ENDBRANCH  12  30
TORSDOF 4
ENDMDL
MODEL 2
REMARK VINA RESULT:      -6.2      2.765      5.732
REMARK  Name = 5326018_Caulerpin.pdbqt.pdb
REMARK  4 active torsions:
REMARK  status: ('A' for Active; 'I' for Inactive)
REMARK    1  A    between atoms: C_11  and  C_26
REMARK    2  A    between atoms: C_12  and  C_30
REMARK    3  A    between atoms: C_26  and  O_27
REMARK    4  A    between atoms: C_30  and  O_31
REMARK                            x       y       z     vdW  Elec       q    Type
REMARK                         _______ _______ _______ _____ _____    ______ ____
ROOT
ATOM      1  N   UNL     1      53.065 246.502 326.706  0.00  0.00    +0.000 N 
ATOM      2  N   UNL     1      56.645 245.769 321.290  0.00  0.00    +0.000 N 
ATOM      3  C   UNL     1      53.531 245.265 324.926  0.00  0.00    +0.000 C 
ATOM      4  C   UNL     1      55.874 247.143 322.849  0.00  0.00    +0.000 C 
ATOM      5  C   UNL     1      53.637 246.551 325.452  0.00  0.00    +0.000 C 
ATOM      6  C   UNL     1      55.661 245.906 322.247  0.00  0.00    +0.000 C 
ATOM      7  C   UNL     1      52.829 244.448 325.845  0.00  0.00    +0.000 A 
ATOM      8  C   UNL     1      56.957 247.789 322.206  0.00  0.00    +0.000 A 
ATOM      9  C   UNL     1      52.544 245.249 326.950  0.00  0.00    +0.000 A 
ATOM     10  C   UNL     1      57.420 246.909 321.229  0.00  0.00    +0.000 A 
ATOM     11  C   UNL     1      54.260 247.749 324.951  0.00  0.00    +0.000 C 
ATOM     12  C   UNL     1      54.717 244.852 322.516  0.00  0.00    +0.000 C 
ATOM     13  C   UNL     1      55.096 247.610 323.954  0.00  0.00    +0.000 C 
ATOM     14  C   UNL     1      54.089 244.898 323.662  0.00  0.00    +0.000 C 
ATOM     15  C   UNL     1      52.421 243.102 325.857  0.00  0.00    +0.000 A 
ATOM     16  C   UNL     1      57.604 249.029 322.365  0.00  0.00    +0.000 A 
ATOM     17  C   UNL     1      51.862 244.772 328.075  0.00  0.00    +0.000 A 
ATOM     18  C   UNL     1      58.502 247.206 320.393  0.00  0.00    +0.000 A 
ATOM     19  C   UNL     1      51.735 242.611 326.970  0.00  0.00    +0.000 A 
ATOM     20  C   UNL     1      58.682 249.343 321.536  0.00  0.00    +0.000 A 
ATOM     21  C   UNL     1      51.461 243.434 328.057  0.00  0.00    +0.000 A 
ATOM     22  C   UNL     1      59.119 248.446 320.567  0.00  0.00    +0.000 A 
ATOM     23  H   UNL     1      53.024 247.254 327.382  0.00  0.00    +0.000 HD
ATOM     24  H   UNL     1      56.814 244.960 320.704  0.00  0.00    +0.000 HD
ENDROOT
BRANCH  11  26
ATOM     25  O   UNL     1      54.780 250.017 325.509  0.00  0.00    +0.000 OA
ATOM     26  C   UNL     1      53.935 249.138 325.386  0.00  0.00    +0.000 C 
BRANCH  26  27
ATOM     27  O   UNL     1      52.588 249.234 325.581  0.00  0.00    +0.000 OA
ATOM     28  C   UNL     1      51.794 249.691 324.518  0.00  0.00    +0.000 C 
ENDBRANCH  26  27
ENDBRANCH  11  26
BRANCH  12  30
ATOM     29  O   UNL     1      54.381 243.929 320.333  0.00  0.00    +0.000 OA
ATOM     30  C   UNL     1      54.304 243.794 321.548  0.00  0.00    +0.000 C 
BRANCH  30  31
ATOM     31  O   UNL     1      53.874 242.703 322.247  0.00  0.00    +0.000 OA
ATOM     32  C   UNL     1      53.148 241.719 321.559  0.00  0.00    +0.000 C 
ENDBRANCH  30  31
ENDBRANCH  12  30
TORSDOF 4
ENDMDL
MODEL 3
REMARK VINA RESULT:      -6.1     32.197     33.970
REMARK  Name = 5326018_Caulerpin.pdbqt.pdb
REMARK  4 active torsions:
REMARK  status: ('A' for Active; 'I' for Inactive)
REMARK    1  A    between atoms: C_11  and  C_26
REMARK    2  A    between atoms: C_12  and  C_30
REMARK    3  A    between atoms: C_26  and  O_27
REMARK    4  A    between atoms: C_30  and  O_31
REMARK                            x       y       z     vdW  Elec       q    Type
REMARK                         _______ _______ _______ _____ _____    ______ ____
ROOT
ATOM      1  N   UNL     1      72.305 223.395 338.743  0.00  0.00    +0.000 N 
ATOM      2  N   UNL     1      69.088 218.364 341.393  0.00  0.00    +0.000 N 
ATOM      3  C   UNL     1      71.944 222.144 340.536  0.00  0.00    +0.000 C 
ATOM      4  C   UNL     1      69.192 219.870 339.770  0.00  0.00    +0.000 C 
ATOM      5  C   UNL     1      71.400 222.523 339.311  0.00  0.00    +0.000 C 
ATOM      6  C   UNL     1      69.645 219.580 341.054  0.00  0.00    +0.000 C 
ATOM      7  C   UNL     1      73.157 222.844 340.739  0.00  0.00    +0.000 A 
ATOM      8  C   UNL     1      68.300 218.852 339.354  0.00  0.00    +0.000 A 
ATOM      9  C   UNL     1      73.359 223.625 339.602  0.00  0.00    +0.000 A 
ATOM     10  C   UNL     1      68.248 217.923 340.391  0.00  0.00    +0.000 A 
ATOM     11  C   UNL     1      70.208 222.112 338.616  0.00  0.00    +0.000 C 
ATOM     12  C   UNL     1      70.566 220.259 341.928  0.00  0.00    +0.000 C 
ATOM     13  C   UNL     1      69.622 221.022 339.039  0.00  0.00    +0.000 C 
ATOM     14  C   UNL     1      71.327 221.176 341.389  0.00  0.00    +0.000 C 
ATOM     15  C   UNL     1      74.116 222.880 341.768  0.00  0.00    +0.000 A 
ATOM     16  C   UNL     1      67.542 218.616 338.192  0.00  0.00    +0.000 A 
ATOM     17  C   UNL     1      74.476 224.452 339.440  0.00  0.00    +0.000 A 
ATOM     18  C   UNL     1      67.470 216.762 340.330  0.00  0.00    +0.000 A 
ATOM     19  C   UNL     1      75.235 223.704 341.625  0.00  0.00    +0.000 A 
ATOM     20  C   UNL     1      66.756 217.466 338.116  0.00  0.00    +0.000 A 
ATOM     21  C   UNL     1      75.408 224.475 340.480  0.00  0.00    +0.000 A 
ATOM     22  C   UNL     1      66.721 216.558 339.169  0.00  0.00    +0.000 A 
ATOM     23  H   UNL     1      72.245 223.817 337.825  0.00  0.00    +0.000 HD
ATOM     24  H   UNL     1      69.255 217.836 342.240  0.00  0.00    +0.000 HD
ENDROOT
BRANCH  11  26
ATOM     25  O   UNL     1      69.255 224.083 337.650  0.00  0.00    +0.000 OA
ATOM     26  C   UNL     1      69.519 222.891 337.547  0.00  0.00    +0.000 C 
BRANCH  26  27
ATOM     27  O   UNL     1      69.279 222.066 336.487  0.00  0.00    +0.000 OA
ATOM     28  C   UNL     1      70.375 221.458 335.857  0.00  0.00    +0.000 C 
ENDBRANCH  26  27
ENDBRANCH  11  26
BRANCH  12  30
ATOM     29  O   UNL     1      70.279 220.967 344.196  0.00  0.00    +0.000 OA
ATOM     30  C   UNL     1      70.631 220.096 343.410  0.00  0.00    +0.000 C 
BRANCH  30  31
ATOM     31  O   UNL     1      71.109 218.849 343.694  0.00  0.00    +0.000 OA
ATOM     32  C   UNL     1      72.500 218.668 343.746  0.00  0.00    +0.000 C 
ENDBRANCH  30  31
ENDBRANCH  12  30
TORSDOF 4
ENDMDL
MODEL 4
REMARK VINA RESULT:      -5.9     31.365     33.725
REMARK  Name = 5326018_Caulerpin.pdbqt.pdb
REMARK  4 active torsions:
REMARK  status: ('A' for Active; 'I' for Inactive)
REMARK    1  A    between atoms: C_11  and  C_26
REMARK    2  A    between atoms: C_12  and  C_30
REMARK    3  A    between atoms: C_26  and  O_27
REMARK    4  A    between atoms: C_30  and  O_31
REMARK                            x       y       z     vdW  Elec       q    Type
REMARK                         _______ _______ _______ _____ _____    ______ ____
ROOT
ATOM      1  N   UNL     1      54.638 225.131 353.371  0.00  0.00    +0.000 N 
ATOM      2  N   UNL     1      58.401 230.462 353.053  0.00  0.00    +0.000 N 
ATOM      3  C   UNL     1      54.750 227.344 353.398  0.00  0.00    +0.000 C 
ATOM      4  C   UNL     1      58.278 228.280 353.424  0.00  0.00    +0.000 C 
ATOM      5  C   UNL     1      55.501 226.185 353.582  0.00  0.00    +0.000 C 
ATOM      6  C   UNL     1      57.523 229.449 353.379  0.00  0.00    +0.000 C 
ATOM      7  C   UNL     1      53.405 226.985 353.138  0.00  0.00    +0.000 A 
ATOM      8  C   UNL     1      59.637 228.599 353.186  0.00  0.00    +0.000 A 
ATOM      9  C   UNL     1      53.361 225.592 353.131  0.00  0.00    +0.000 A 
ATOM     10  C   UNL     1      59.688 229.974 352.961  0.00  0.00    +0.000 A 
ATOM     11  C   UNL     1      56.900 225.976 353.850  0.00  0.00    +0.000 C 
ATOM     12  C   UNL     1      56.112 229.693 353.531  0.00  0.00    +0.000 C 
ATOM     13  C   UNL     1      57.699 226.993 353.655  0.00  0.00    +0.000 C 
ATOM     14  C   UNL     1      55.321 228.654 353.455  0.00  0.00    +0.000 C 
ATOM     15  C   UNL     1      52.222 227.704 352.889  0.00  0.00    +0.000 A 
ATOM     16  C   UNL     1      60.830 227.856 353.122  0.00  0.00    +0.000 A 
ATOM     17  C   UNL     1      52.185 224.873 352.891  0.00  0.00    +0.000 A 
ATOM     18  C   UNL     1      60.879 230.652 352.677  0.00  0.00    +0.000 A 
ATOM     19  C   UNL     1      51.038 227.002 352.654  0.00  0.00    +0.000 A 
ATOM     20  C   UNL     1      62.028 228.517 352.845  0.00  0.00    +0.000 A 
ATOM     21  C   UNL     1      51.023 225.611 352.656  0.00  0.00    +0.000 A 
ATOM     22  C   UNL     1      62.048 229.891 352.628  0.00  0.00    +0.000 A 
ATOM     23  H   UNL     1      54.874 224.146 353.372  0.00  0.00    +0.000 HD
ATOM     24  H   UNL     1      58.170 231.434 352.885  0.00  0.00    +0.000 HD
ENDROOT
BRANCH  11  26
ATOM     25  O   UNL     1      58.278 224.768 355.388  0.00  0.00    +0.000 OA
ATOM     26  C   UNL     1      57.490 224.745 354.450  0.00  0.00    +0.000 C 
BRANCH  26  27
ATOM     27  O   UNL     1      56.987 223.655 353.802  0.00  0.00    +0.000 OA
ATOM     28  C   UNL     1      56.912 222.442 354.503  0.00  0.00    +0.000 C 
ENDBRANCH  26  27
ENDBRANCH  11  26
BRANCH  12  30
ATOM     29  O   UNL     1      54.771 231.151 354.873  0.00  0.00    +0.000 OA
ATOM     30  C   UNL     1      55.494 231.001 353.896  0.00  0.00    +0.000 C 
BRANCH  30  31
ATOM     31  O   UNL     1      55.894 231.942 352.993  0.00  0.00    +0.000 OA
ATOM     32  C   UNL     1      55.429 233.257 353.155  0.00  0.00    +0.000 C 
ENDBRANCH  30  31
ENDBRANCH  12  30
TORSDOF 4
ENDMDL
MODEL 5
REMARK VINA RESULT:      -5.9     32.943     34.366
REMARK  Name = 5326018_Caulerpin.pdbqt.pdb
REMARK  4 active torsions:
REMARK  status: ('A' for Active; 'I' for Inactive)
REMARK    1  A    between atoms: C_11  and  C_26
REMARK    2  A    between atoms: C_12  and  C_30
REMARK    3  A    between atoms: C_26  and  O_27
REMARK    4  A    between atoms: C_30  and  O_31
REMARK                            x       y       z     vdW  Elec       q    Type
REMARK                         _______ _______ _______ _____ _____    ______ ____
ROOT
ATOM      1  N   UNL     1      53.211 223.570 352.397  0.00  0.00    +0.000 N 
ATOM      2  N   UNL     1      57.244 228.555 353.653  0.00  0.00    +0.000 N 
ATOM      3  C   UNL     1      53.428 225.701 352.968  0.00  0.00    +0.000 C 
ATOM      4  C   UNL     1      56.982 226.361 353.475  0.00  0.00    +0.000 C 
ATOM      5  C   UNL     1      54.103 224.483 352.920  0.00  0.00    +0.000 C 
ATOM      6  C   UNL     1      56.292 227.555 353.660  0.00  0.00    +0.000 C 
ATOM      7  C   UNL     1      52.095 225.507 352.532  0.00  0.00    +0.000 A 
ATOM      8  C   UNL     1      58.371 226.633 353.420  0.00  0.00    +0.000 A 
ATOM      9  C   UNL     1      51.984 224.161 352.184  0.00  0.00    +0.000 A 
ATOM     10  C   UNL     1      58.508 228.015 353.539  0.00  0.00    +0.000 A 
ATOM     11  C   UNL     1      55.461 224.121 353.230  0.00  0.00    +0.000 C 
ATOM     12  C   UNL     1      54.887 227.852 353.763  0.00  0.00    +0.000 C 
ATOM     13  C   UNL     1      56.323 225.098 353.345  0.00  0.00    +0.000 C 
ATOM     14  C   UNL     1      54.055 226.917 353.381  0.00  0.00    +0.000 C 
ATOM     15  C   UNL     1      50.974 226.343 352.379  0.00  0.00    +0.000 A 
ATOM     16  C   UNL     1      59.527 225.846 353.265  0.00  0.00    +0.000 A 
ATOM     17  C   UNL     1      50.799 223.601 351.693  0.00  0.00    +0.000 A 
ATOM     18  C   UNL     1      59.751 228.658 353.514  0.00  0.00    +0.000 A 
ATOM     19  C   UNL     1      49.782 225.800 351.895  0.00  0.00    +0.000 A 
ATOM     20  C   UNL     1      60.775 226.470 353.244  0.00  0.00    +0.000 A 
ATOM     21  C   UNL     1      49.700 224.453 351.560  0.00  0.00    +0.000 A 
ATOM     22  C   UNL     1      60.882 227.851 353.368  0.00  0.00    +0.000 A 
ATOM     23  H   UNL     1      53.397 222.600 352.178  0.00  0.00    +0.000 HD
ATOM     24  H   UNL     1      57.077 229.552 353.709  0.00  0.00    +0.000 HD
ENDROOT
BRANCH  11  26
ATOM     25  O   UNL     1      55.439 221.733 353.076  0.00  0.00    +0.000 OA
ATOM     26  C   UNL     1      55.936 222.745 353.556  0.00  0.00    +0.000 C 
BRANCH  26  27
ATOM     27  O   UNL     1      56.986 222.836 354.423  0.00  0.00    +0.000 OA
ATOM     28  C   UNL     1      57.742 221.681 354.674  0.00  0.00    +0.000 C 
ENDBRANCH  26  27
ENDBRANCH  11  26
BRANCH  12  30
ATOM     29  O   UNL     1      53.483 229.038 355.296  0.00  0.00    +0.000 OA
ATOM     30  C   UNL     1      54.305 229.075 354.388  0.00  0.00    +0.000 C 
BRANCH  30  31
ATOM     31  O   UNL     1      54.857 230.175 353.798  0.00  0.00    +0.000 OA
ATOM     32  C   UNL     1      54.733 231.411 354.451  0.00  0.00    +0.000 C 
ENDBRANCH  30  31
ENDBRANCH  12  30
TORSDOF 4
ENDMDL
MODEL 6
REMARK VINA RESULT:      -5.8     33.299     34.959
REMARK  Name = 5326018_Caulerpin.pdbqt.pdb
REMARK  4 active torsions:
REMARK  status: ('A' for Active; 'I' for Inactive)
REMARK    1  A    between atoms: C_11  and  C_26
REMARK    2  A    between atoms: C_12  and  C_30
REMARK    3  A    between atoms: C_26  and  O_27
REMARK    4  A    between atoms: C_30  and  O_31
REMARK                            x       y       z     vdW  Elec       q    Type
REMARK                         _______ _______ _______ _____ _____    ______ ____
ROOT
ATOM      1  N   UNL     1      75.128 222.339 343.994  0.00  0.00    +0.000 N 
ATOM      2  N   UNL     1      71.805 223.638 338.521  0.00  0.00    +0.000 N 
ATOM      3  C   UNL     1      74.941 223.588 342.173  0.00  0.00    +0.000 C 
ATOM      4  C   UNL     1      72.261 222.183 340.130  0.00  0.00    +0.000 C 
ATOM      5  C   UNL     1      74.562 222.371 342.737  0.00  0.00    +0.000 C 
ATOM      6  C   UNL     1      72.734 223.327 339.492  0.00  0.00    +0.000 C 
ATOM      7  C   UNL     1      75.797 224.267 343.073  0.00  0.00    +0.000 A 
ATOM      8  C   UNL     1      71.068 221.760 339.496  0.00  0.00    +0.000 A 
ATOM      9  C   UNL     1      75.902 223.460 344.205  0.00  0.00    +0.000 A 
ATOM     10  C   UNL     1      70.807 222.687 338.487  0.00  0.00    +0.000 A 
ATOM     11  C   UNL     1      73.702 221.318 342.267  0.00  0.00    +0.000 C 
ATOM     12  C   UNL     1      73.879 224.165 339.738  0.00  0.00    +0.000 C 
ATOM     13  C   UNL     1      72.919 221.598 341.258  0.00  0.00    +0.000 C 
ATOM     14  C   UNL     1      74.479 224.024 340.892  0.00  0.00    +0.000 C 
ATOM     15  C   UNL     1      76.481 225.496 343.048  0.00  0.00    +0.000 A 
ATOM     16  C   UNL     1      70.172 220.692 339.686  0.00  0.00    +0.000 A 
ATOM     17  C   UNL     1      76.665 223.818 345.322  0.00  0.00    +0.000 A 
ATOM     18  C   UNL     1      69.689 222.599 337.649  0.00  0.00    +0.000 A 
ATOM     19  C   UNL     1      77.252 225.866 344.152  0.00  0.00    +0.000 A 
ATOM     20  C   UNL     1      69.055 220.586 338.856  0.00  0.00    +0.000 A 
ATOM     21  C   UNL     1      77.341 225.039 345.267  0.00  0.00    +0.000 A 
ATOM     22  C   UNL     1      68.822 221.524 337.855  0.00  0.00    +0.000 A 
ATOM     23  H   UNL     1      75.006 221.618 344.694  0.00  0.00    +0.000 HD
ATOM     24  H   UNL     1      71.814 224.445 337.909  0.00  0.00    +0.000 HD
ENDROOT
BRANCH  11  26
ATOM     25  O   UNL     1      74.006 218.957 342.026  0.00  0.00    +0.000 OA
ATOM     26  C   UNL     1      73.723 219.906 342.747  0.00  0.00    +0.000 C 
BRANCH  26  27
ATOM     27  O   UNL     1      73.408 219.888 344.075  0.00  0.00    +0.000 OA
ATOM     28  C   UNL     1      72.053 219.925 344.436  0.00  0.00    +0.000 C 
ENDBRANCH  26  27
ENDBRANCH  11  26
BRANCH  12  30
ATOM     29  O   UNL     1      73.974 225.396 337.688  0.00  0.00    +0.000 OA
ATOM     30  C   UNL     1      74.511 225.080 338.743  0.00  0.00    +0.000 C 
BRANCH  30  31
ATOM     31  O   UNL     1      75.720 225.486 339.226  0.00  0.00    +0.000 OA
ATOM     32  C   UNL     1      76.371 226.548 338.579  0.00  0.00    +0.000 C 
ENDBRANCH  30  31
ENDBRANCH  12  30
TORSDOF 4
ENDMDL
MODEL 7
REMARK VINA RESULT:      -5.8     32.655     34.451
REMARK  Name = 5326018_Caulerpin.pdbqt.pdb
REMARK  4 active torsions:
REMARK  status: ('A' for Active; 'I' for Inactive)
REMARK    1  A    between atoms: C_11  and  C_26
REMARK    2  A    between atoms: C_12  and  C_30
REMARK    3  A    between atoms: C_26  and  O_27
REMARK    4  A    between atoms: C_30  and  O_31
REMARK                            x       y       z     vdW  Elec       q    Type
REMARK                         _______ _______ _______ _____ _____    ______ ____
ROOT
ATOM      1  N   UNL     1      74.014 221.347 342.726  0.00  0.00    +0.000 N 
ATOM      2  N   UNL     1      69.663 221.899 337.884  0.00  0.00    +0.000 N 
ATOM      3  C   UNL     1      73.458 222.322 340.815  0.00  0.00    +0.000 C 
ATOM      4  C   UNL     1      70.443 220.685 339.566  0.00  0.00    +0.000 C 
ATOM      5  C   UNL     1      73.211 221.207 341.613  0.00  0.00    +0.000 C 
ATOM      6  C   UNL     1      70.769 221.715 338.688  0.00  0.00    +0.000 C 
ATOM      7  C   UNL     1      74.468 223.108 341.419  0.00  0.00    +0.000 A 
ATOM      8  C   UNL     1      69.153 220.197 339.248  0.00  0.00    +0.000 A 
ATOM      9  C   UNL     1      74.802 222.473 342.615  0.00  0.00    +0.000 A 
ATOM     10  C   UNL     1      68.687 220.972 338.186  0.00  0.00    +0.000 A 
ATOM     11  C   UNL     1      72.286 220.113 341.481  0.00  0.00    +0.000 C 
ATOM     12  C   UNL     1      71.930 222.559 338.579  0.00  0.00    +0.000 C 
ATOM     13  C   UNL     1      71.316 220.258 340.616  0.00  0.00    +0.000 C 
ATOM     14  C   UNL     1      72.748 222.576 339.600  0.00  0.00    +0.000 C 
ATOM     15  C   UNL     1      75.121 224.308 341.081  0.00  0.00    +0.000 A 
ATOM     16  C   UNL     1      68.323 219.185 339.765  0.00  0.00    +0.000 A 
ATOM     17  C   UNL     1      75.767 222.975 343.495  0.00  0.00    +0.000 A 
ATOM     18  C   UNL     1      67.428 220.784 337.607  0.00  0.00    +0.000 A 
ATOM     19  C   UNL     1      76.090 224.820 341.946  0.00  0.00    +0.000 A 
ATOM     20  C   UNL     1      67.066 218.980 339.195  0.00  0.00    +0.000 A 
ATOM     21  C   UNL     1      76.406 224.162 343.130  0.00  0.00    +0.000 A 
ATOM     22  C   UNL     1      66.630 219.767 338.134  0.00  0.00    +0.000 A 
ATOM     23  H   UNL     1      74.040 220.738 343.534  0.00  0.00    +0.000 HD
ATOM     24  H   UNL     1      69.543 222.608 337.171  0.00  0.00    +0.000 HD
ENDROOT
BRANCH  11  26
ATOM     25  O   UNL     1      72.405 217.724 341.538  0.00  0.00    +0.000 OA
ATOM     26  C   UNL     1      72.416 218.786 342.149  0.00  0.00    +0.000 C 
BRANCH  26  27
ATOM     27  O   UNL     1      72.567 218.981 343.492  0.00  0.00    +0.000 OA
ATOM     28  C   UNL     1      71.424 219.269 344.253  0.00  0.00    +0.000 C 
ENDBRANCH  26  27
ENDBRANCH  11  26
BRANCH  12  30
ATOM     29  O   UNL     1      71.852 223.111 336.251  0.00  0.00    +0.000 OA
ATOM     30  C   UNL     1      72.344 223.307 337.356  0.00  0.00    +0.000 C 
BRANCH  30  31
ATOM     31  O   UNL     1      73.303 224.215 337.700  0.00  0.00    +0.000 OA
ATOM     32  C   UNL     1      73.828 225.039 336.692  0.00  0.00    +0.000 C 
ENDBRANCH  30  31
ENDBRANCH  12  30
TORSDOF 4
ENDMDL
MODEL 8
REMARK VINA RESULT:      -5.8     33.393     36.655
REMARK  Name = 5326018_Caulerpin.pdbqt.pdb
REMARK  4 active torsions:
REMARK  status: ('A' for Active; 'I' for Inactive)
REMARK    1  A    between atoms: C_11  and  C_26
REMARK    2  A    between atoms: C_12  and  C_30
REMARK    3  A    between atoms: C_26  and  O_27
REMARK    4  A    between atoms: C_30  and  O_31
REMARK                            x       y       z     vdW  Elec       q    Type
REMARK                         _______ _______ _______ _____ _____    ______ ____
ROOT
ATOM      1  N   UNL     1      56.538 219.966 354.502  0.00  0.00    +0.000 N 
ATOM      2  N   UNL     1      55.823 226.421 353.784  0.00  0.00    +0.000 N 
ATOM      3  C   UNL     1      57.472 221.974 354.607  0.00  0.00    +0.000 C 
ATOM      4  C   UNL     1      55.060 224.392 353.318  0.00  0.00    +0.000 C 
ATOM      5  C   UNL     1      56.402 221.267 354.062  0.00  0.00    +0.000 C 
ATOM      6  C   UNL     1      56.189 225.092 353.737  0.00  0.00    +0.000 C 
ATOM      7  C   UNL     1      58.297 221.078 355.328  0.00  0.00    +0.000 A 
ATOM      8  C   UNL     1      54.020 225.314 353.048  0.00  0.00    +0.000 A 
ATOM      9  C   UNL     1      57.692 219.825 355.243  0.00  0.00    +0.000 A 
ATOM     10  C   UNL     1      54.526 226.580 353.343  0.00  0.00    +0.000 A 
ATOM     11  C   UNL     1      55.276 221.683 353.269  0.00  0.00    +0.000 C 
ATOM     12  C   UNL     1      57.497 224.653 354.150  0.00  0.00    +0.000 C 
ATOM     13  C   UNL     1      55.024 222.966 353.224  0.00  0.00    +0.000 C 
ATOM     14  C   UNL     1      57.632 223.385 354.440  0.00  0.00    +0.000 C 
ATOM     15  C   UNL     1      59.491 221.208 356.062  0.00  0.00    +0.000 A 
ATOM     16  C   UNL     1      52.692 225.202 352.597  0.00  0.00    +0.000 A 
ATOM     17  C   UNL     1      58.223 218.684 355.854  0.00  0.00    +0.000 A 
ATOM     18  C   UNL     1      53.769 227.748 353.206  0.00  0.00    +0.000 A 
ATOM     19  C   UNL     1      60.038 220.078 356.673  0.00  0.00    +0.000 A 
ATOM     20  C   UNL     1      51.924 226.358 352.449  0.00  0.00    +0.000 A 
ATOM     21  C   UNL     1      59.414 218.840 356.568  0.00  0.00    +0.000 A 
ATOM     22  C   UNL     1      52.457 227.608 352.748  0.00  0.00    +0.000 A 
ATOM     23  H   UNL     1      55.897 219.201 354.335  0.00  0.00    +0.000 HD
ATOM     24  H   UNL     1      56.392 227.196 354.102  0.00  0.00    +0.000 HD
ENDROOT
BRANCH  11  26
ATOM     25  O   UNL     1      53.236 220.858 352.328  0.00  0.00    +0.000 OA
ATOM     26  C   UNL     1      54.458 220.793 352.395  0.00  0.00    +0.000 C 
BRANCH  26  27
ATOM     27  O   UNL     1      55.294 219.960 351.709  0.00  0.00    +0.000 OA
ATOM     28  C   UNL     1      54.807 219.340 350.549  0.00  0.00    +0.000 C 
ENDBRANCH  26  27
ENDBRANCH  11  26
BRANCH  12  30
ATOM     29  O   UNL     1      59.491 225.566 355.108  0.00  0.00    +0.000 OA
ATOM     30  C   UNL     1      58.730 225.493 354.150  0.00  0.00    +0.000 C 
BRANCH  30  31
ATOM     31  O   UNL     1      58.846 226.104 352.935  0.00  0.00    +0.000 OA
ATOM     32  C   UNL     1      59.207 227.460 352.906  0.00  0.00    +0.000 C 
ENDBRANCH  30  31
ENDBRANCH  12  30
TORSDOF 4
ENDMDL
MODEL 9
REMARK VINA RESULT:      -5.7      2.491      6.657
REMARK  Name = 5326018_Caulerpin.pdbqt.pdb
REMARK  4 active torsions:
REMARK  status: ('A' for Active; 'I' for Inactive)
REMARK    1  A    between atoms: C_11  and  C_26
REMARK    2  A    between atoms: C_12  and  C_30
REMARK    3  A    between atoms: C_26  and  O_27
REMARK    4  A    between atoms: C_30  and  O_31
REMARK                            x       y       z     vdW  Elec       q    Type
REMARK                         _______ _______ _______ _____ _____    ______ ____
ROOT
ATOM      1  N   UNL     1      53.948 244.384 323.647  0.00  0.00    +0.000 N 
ATOM      2  N   UNL     1      51.965 247.332 329.130  0.00  0.00    +0.000 N 
ATOM      3  C   UNL     1      53.791 246.268 324.805  0.00  0.00    +0.000 C 
ATOM      4  C   UNL     1      51.795 245.580 327.784  0.00  0.00    +0.000 C 
ATOM      5  C   UNL     1      53.262 244.985 324.682  0.00  0.00    +0.000 C 
ATOM      6  C   UNL     1      52.209 246.908 327.840  0.00  0.00    +0.000 C 
ATOM      7  C   UNL     1      54.760 246.466 323.792  0.00  0.00    +0.000 A 
ATOM      8  C   UNL     1      51.235 245.217 329.032  0.00  0.00    +0.000 A 
ATOM      9  C   UNL     1      54.836 245.271 323.078  0.00  0.00    +0.000 A 
ATOM     10  C   UNL     1      51.349 246.335 329.857  0.00  0.00    +0.000 A 
ATOM     11  C   UNL     1      52.275 244.271 325.450  0.00  0.00    +0.000 C 
ATOM     12  C   UNL     1      52.851 247.760 326.874  0.00  0.00    +0.000 C 
ATOM     13  C   UNL     1      51.964 244.765 326.620  0.00  0.00    +0.000 C 
ATOM     14  C   UNL     1      53.385 247.176 325.832  0.00  0.00    +0.000 C 
ATOM     15  C   UNL     1      55.595 247.536 323.421  0.00  0.00    +0.000 A 
ATOM     16  C   UNL     1      50.656 244.045 329.553  0.00  0.00    +0.000 A 
ATOM     17  C   UNL     1      55.708 245.090 321.998  0.00  0.00    +0.000 A 
ATOM     18  C   UNL     1      50.908 246.345 331.185  0.00  0.00    +0.000 A 
ATOM     19  C   UNL     1      56.467 247.373 322.342  0.00  0.00    +0.000 A 
ATOM     20  C   UNL     1      50.206 244.039 330.874  0.00  0.00    +0.000 A 
ATOM     21  C   UNL     1      56.519 246.171 321.645  0.00  0.00    +0.000 A 
ATOM     22  C   UNL     1      50.329 245.171 331.672  0.00  0.00    +0.000 A 
ATOM     23  H   UNL     1      53.850 243.428 323.331  0.00  0.00    +0.000 HD
ATOM     24  H   UNL     1      52.199 248.234 329.526  0.00  0.00    +0.000 HD
ENDROOT
BRANCH  11  26
ATOM     25  O   UNL     1      51.304 242.093 325.647  0.00  0.00    +0.000 OA
ATOM     26  C   UNL     1      51.490 243.097 324.970  0.00  0.00    +0.000 C 
BRANCH  26  27
ATOM     27  O   UNL     1      51.028 243.360 323.713  0.00  0.00    +0.000 OA
ATOM     28  C   UNL     1      51.044 242.323 322.769  0.00  0.00    +0.000 C 
ENDBRANCH  26  27
ENDBRANCH  11  26
BRANCH  12  30
ATOM     29  O   UNL     1      52.330 249.933 326.016  0.00  0.00    +0.000 OA
ATOM     30  C   UNL     1      52.844 249.252 326.896  0.00  0.00    +0.000 C 
BRANCH  30  31
ATOM     31  O   UNL     1      53.464 249.678 328.035  0.00  0.00    +0.000 OA
ATOM     32  C   UNL     1      54.862 249.795 328.025  0.00  0.00    +0.000 C 
ENDBRANCH  30  31
ENDBRANCH  12  30
TORSDOF 4
ENDMDL
