MODEL 1
REMARK VINA RESULT:      -3.0      0.000      0.000
REMARK  Name = 5350_Sulforaphane.pdbqt.pdb
REMARK  3 active torsions:
REMARK  status: ('A' for Active; 'I' for Inactive)
REMARK    1  A    between atoms: C_1  and  C_2
REMARK    2  A    between atoms: C_3  and  N_5
REMARK    3  A    between atoms: C_7  and  S_8
REMARK                            x       y       z     vdW  Elec       q    Type
REMARK                         _______ _______ _______ _____ _____    ______ ____
ROOT
ATOM      1  C   UNL     1      63.507 224.986 327.084  0.00  0.00    +0.000 C 
ATOM      2  C   UNL     1      63.674 226.207 326.173  0.00  0.00    +0.000 C 
ENDROOT
BRANCH   2   3
ATOM      3  S   UNL     1      63.870 227.608 325.123  0.00  0.00    +0.000 S 
ATOM      4  O   UNL     1      65.087 228.066 325.871  0.00  0.00    +0.000 OA
ATOM      5  C   UNL     1      62.809 228.618 326.101  0.00  0.00    +0.000 C 
ENDBRANCH   2   3
BRANCH   1   6
ATOM      6  C   UNL     1      63.341 223.768 327.997  0.00  0.00    +0.000 C 
ATOM      7  C   UNL     1      63.175 222.549 328.912  0.00  0.00    +0.000 C 
BRANCH   7   9
ATOM      8  S   UNL     1      65.296 221.089 331.272  0.00  0.00    +0.000 S 
ATOM      9  N   UNL     1      63.043 221.483 329.714  0.00  0.00    +0.000 NA
ATOM     10  C   UNL     1      64.007 221.333 330.365  0.00  0.00    +0.000 C 
ENDBRANCH   7   9
ENDBRANCH   1   6
TORSDOF 3
ENDMDL
MODEL 2
REMARK VINA RESULT:      -2.9     20.960     22.348
REMARK  Name = 5350_Sulforaphane.pdbqt.pdb
REMARK  3 active torsions:
REMARK  status: ('A' for Active; 'I' for Inactive)
REMARK    1  A    between atoms: C_1  and  C_2
REMARK    2  A    between atoms: C_3  and  N_5
REMARK    3  A    between atoms: C_7  and  S_8
REMARK                            x       y       z     vdW  Elec       q    Type
REMARK                         _______ _______ _______ _____ _____    ______ ____
ROOT
ATOM      1  C   UNL     1      50.200 240.884 326.190  0.00  0.00    +0.000 C 
ATOM      2  C   UNL     1      49.081 239.915 325.795  0.00  0.00    +0.000 C 
ENDROOT
BRANCH   2   3
ATOM      3  S   UNL     1      47.797 238.798 325.339  0.00  0.00    +0.000 S 
ATOM      4  O   UNL     1      47.451 238.525 326.773  0.00  0.00    +0.000 OA
ATOM      5  C   UNL     1      48.884 237.414 325.271  0.00  0.00    +0.000 C 
ENDBRANCH   2   3
BRANCH   1   6
ATOM      6  C   UNL     1      51.318 241.854 326.583  0.00  0.00    +0.000 C 
ATOM      7  C   UNL     1      52.437 242.826 326.976  0.00  0.00    +0.000 C 
BRANCH   7   9
ATOM      8  S   UNL     1      52.557 246.294 327.371  0.00  0.00    +0.000 S 
ATOM      9  N   UNL     1      53.424 243.666 327.316  0.00  0.00    +0.000 NA
ATOM     10  C   UNL     1      53.037 244.774 327.334  0.00  0.00    +0.000 C 
ENDBRANCH   7   9
ENDBRANCH   1   6
TORSDOF 3
ENDMDL
MODEL 3
REMARK VINA RESULT:      -2.9      7.587      9.026
REMARK  Name = 5350_Sulforaphane.pdbqt.pdb
REMARK  3 active torsions:
REMARK  status: ('A' for Active; 'I' for Inactive)
REMARK    1  A    between atoms: C_1  and  C_2
REMARK    2  A    between atoms: C_3  and  N_5
REMARK    3  A    between atoms: C_7  and  S_8
REMARK                            x       y       z     vdW  Elec       q    Type
REMARK                         _______ _______ _______ _____ _____    ______ ____
ROOT
ATOM      1  C   UNL     1      57.348 221.534 326.887  0.00  0.00    +0.000 C 
ATOM      2  C   UNL     1      56.446 220.324 326.622  0.00  0.00    +0.000 C 
ENDROOT
BRANCH   2   3
ATOM      3  S   UNL     1      55.408 218.934 326.313  0.00  0.00    +0.000 S 
ATOM      4  O   UNL     1      54.239 219.588 326.988  0.00  0.00    +0.000 OA
ATOM      5  C   UNL     1      55.890 218.114 327.795  0.00  0.00    +0.000 C 
ENDBRANCH   2   3
BRANCH   1   6
ATOM      6  C   UNL     1      58.247 222.745 327.154  0.00  0.00    +0.000 C 
ATOM      7  C   UNL     1      59.147 223.957 327.421  0.00  0.00    +0.000 C 
BRANCH   7   9
ATOM      8  S   UNL     1      61.705 225.456 325.577  0.00  0.00    +0.000 S 
ATOM      9  N   UNL     1      59.942 225.009 327.662  0.00  0.00    +0.000 NA
ATOM     10  C   UNL     1      60.681 225.182 326.767  0.00  0.00    +0.000 C 
ENDBRANCH   7   9
ENDBRANCH   1   6
TORSDOF 3
ENDMDL
MODEL 4
REMARK VINA RESULT:      -2.8     21.464     22.713
REMARK  Name = 5350_Sulforaphane.pdbqt.pdb
REMARK  3 active torsions:
REMARK  status: ('A' for Active; 'I' for Inactive)
REMARK    1  A    between atoms: C_1  and  C_2
REMARK    2  A    between atoms: C_3  and  N_5
REMARK    3  A    between atoms: C_7  and  S_8
REMARK                            x       y       z     vdW  Elec       q    Type
REMARK                         _______ _______ _______ _____ _____    ______ ____
ROOT
ATOM      1  C   UNL     1      52.128 243.405 325.823  0.00  0.00    +0.000 C 
ATOM      2  C   UNL     1      51.598 243.695 327.231  0.00  0.00    +0.000 C 
ENDROOT
BRANCH   2   3
ATOM      3  S   UNL     1      50.986 244.028 328.849  0.00  0.00    +0.000 S 
ATOM      4  O   UNL     1      49.807 243.123 328.648  0.00  0.00    +0.000 OA
ATOM      5  C   UNL     1      50.073 245.440 328.325  0.00  0.00    +0.000 C 
ENDBRANCH   2   3
BRANCH   1   6
ATOM      6  C   UNL     1      52.657 243.117 324.415  0.00  0.00    +0.000 C 
ATOM      7  C   UNL     1      53.187 242.830 323.005  0.00  0.00    +0.000 C 
BRANCH   7   9
ATOM      8  S   UNL     1      52.887 240.070 320.886  0.00  0.00    +0.000 S 
ATOM      9  N   UNL     1      53.639 242.583 321.768  0.00  0.00    +0.000 NA
ATOM     10  C   UNL     1      53.310 241.514 321.413  0.00  0.00    +0.000 C 
ENDBRANCH   7   9
ENDBRANCH   1   6
TORSDOF 3
ENDMDL
MODEL 5
REMARK VINA RESULT:      -2.8     15.624     16.777
REMARK  Name = 5350_Sulforaphane.pdbqt.pdb
REMARK  3 active torsions:
REMARK  status: ('A' for Active; 'I' for Inactive)
REMARK    1  A    between atoms: C_1  and  C_2
REMARK    2  A    between atoms: C_3  and  N_5
REMARK    3  A    between atoms: C_7  and  S_8
REMARK                            x       y       z     vdW  Elec       q    Type
REMARK                         _______ _______ _______ _____ _____    ______ ____
ROOT
ATOM      1  C   UNL     1      66.633 237.882 336.947  0.00  0.00    +0.000 C 
ATOM      2  C   UNL     1      65.892 238.785 337.939  0.00  0.00    +0.000 C 
ENDROOT
BRANCH   2   3
ATOM      3  S   UNL     1      65.037 239.821 339.079  0.00  0.00    +0.000 S 
ATOM      4  O   UNL     1      65.863 241.013 338.700  0.00  0.00    +0.000 OA
ATOM      5  C   UNL     1      66.113 239.417 340.413  0.00  0.00    +0.000 C 
ENDBRANCH   2   3
BRANCH   1   6
ATOM      6  C   UNL     1      67.373 236.982 335.953  0.00  0.00    +0.000 C 
ATOM      7  C   UNL     1      68.115 236.081 334.958  0.00  0.00    +0.000 C 
BRANCH   7   9
ATOM      8  S   UNL     1      71.452 235.086 334.694  0.00  0.00    +0.000 S 
ATOM      9  N   UNL     1      68.757 235.283 334.094  0.00  0.00    +0.000 NA
ATOM     10  C   UNL     1      69.897 235.212 334.366  0.00  0.00    +0.000 C 
ENDBRANCH   7   9
ENDBRANCH   1   6
TORSDOF 3
ENDMDL
MODEL 6
REMARK VINA RESULT:      -2.8      6.069      9.446
REMARK  Name = 5350_Sulforaphane.pdbqt.pdb
REMARK  3 active torsions:
REMARK  status: ('A' for Active; 'I' for Inactive)
REMARK    1  A    between atoms: C_1  and  C_2
REMARK    2  A    between atoms: C_3  and  N_5
REMARK    3  A    between atoms: C_7  and  S_8
REMARK                            x       y       z     vdW  Elec       q    Type
REMARK                         _______ _______ _______ _____ _____    ______ ____
ROOT
ATOM      1  C   UNL     1      62.218 228.839 323.549  0.00  0.00    +0.000 C 
ATOM      2  C   UNL     1      62.917 228.210 324.759  0.00  0.00    +0.000 C 
ENDROOT
BRANCH   2   3
ATOM      3  S   UNL     1      63.722 227.490 326.151  0.00  0.00    +0.000 S 
ATOM      4  O   UNL     1      65.064 227.987 325.701  0.00  0.00    +0.000 OA
ATOM      5  C   UNL     1      63.954 225.941 325.346  0.00  0.00    +0.000 C 
ENDBRANCH   2   3
BRANCH   1   6
ATOM      6  C   UNL     1      61.522 229.467 322.338  0.00  0.00    +0.000 C 
ATOM      7  C   UNL     1      60.825 230.095 321.126  0.00  0.00    +0.000 C 
BRANCH   7   9
ATOM      8  S   UNL     1      58.414 228.881 318.911  0.00  0.00    +0.000 S 
ATOM      9  N   UNL     1      60.205 230.643 320.072  0.00  0.00    +0.000 NA
ATOM     10  C   UNL     1      59.450 229.881 319.594  0.00  0.00    +0.000 C 
ENDBRANCH   7   9
ENDBRANCH   1   6
TORSDOF 3
ENDMDL
MODEL 7
REMARK VINA RESULT:      -2.7     19.522     21.290
REMARK  Name = 5350_Sulforaphane.pdbqt.pdb
REMARK  3 active torsions:
REMARK  status: ('A' for Active; 'I' for Inactive)
REMARK    1  A    between atoms: C_1  and  C_2
REMARK    2  A    between atoms: C_3  and  N_5
REMARK    3  A    between atoms: C_7  and  S_8
REMARK                            x       y       z     vdW  Elec       q    Type
REMARK                         _______ _______ _______ _____ _____    ______ ____
ROOT
ATOM      1  C   UNL     1      47.955 236.978 324.758  0.00  0.00    +0.000 C 
ATOM      2  C   UNL     1      47.566 235.707 323.995  0.00  0.00    +0.000 C 
ENDROOT
BRANCH   2   3
ATOM      3  S   UNL     1      47.123 234.247 323.115  0.00  0.00    +0.000 S 
ATOM      4  O   UNL     1      46.158 233.829 324.185  0.00  0.00    +0.000 OA
ATOM      5  C   UNL     1      48.424 233.298 323.826  0.00  0.00    +0.000 C 
ENDBRANCH   2   3
BRANCH   1   6
ATOM      6  C   UNL     1      48.342 238.249 325.520  0.00  0.00    +0.000 C 
ATOM      7  C   UNL     1      48.730 239.522 326.282  0.00  0.00    +0.000 C 
BRANCH   7   9
ATOM      8  S   UNL     1      50.701 242.277 325.434  0.00  0.00    +0.000 S 
ATOM      9  N   UNL     1      49.058 240.640 326.943  0.00  0.00    +0.000 NA
ATOM     10  C   UNL     1      49.754 241.320 326.287  0.00  0.00    +0.000 C 
ENDBRANCH   7   9
ENDBRANCH   1   6
TORSDOF 3
ENDMDL
MODEL 8
REMARK VINA RESULT:      -2.6     16.129     16.599
REMARK  Name = 5350_Sulforaphane.pdbqt.pdb
REMARK  3 active torsions:
REMARK  status: ('A' for Active; 'I' for Inactive)
REMARK    1  A    between atoms: C_1  and  C_2
REMARK    2  A    between atoms: C_3  and  N_5
REMARK    3  A    between atoms: C_7  and  S_8
REMARK                            x       y       z     vdW  Elec       q    Type
REMARK                         _______ _______ _______ _____ _____    ______ ____
ROOT
ATOM      1  C   UNL     1      73.026 235.450 334.870  0.00  0.00    +0.000 C 
ATOM      2  C   UNL     1      72.727 235.829 333.415  0.00  0.00    +0.000 C 
ENDROOT
BRANCH   2   3
ATOM      3  S   UNL     1      72.386 236.263 331.742  0.00  0.00    +0.000 S 
ATOM      4  O   UNL     1      72.464 234.832 331.298  0.00  0.00    +0.000 OA
ATOM      5  C   UNL     1      74.083 236.542 331.361  0.00  0.00    +0.000 C 
ENDBRANCH   2   3
BRANCH   1   6
ATOM      6  C   UNL     1      73.326 235.075 336.324  0.00  0.00    +0.000 C 
ATOM      7  C   UNL     1      73.627 234.699 337.779  0.00  0.00    +0.000 C 
BRANCH   7   9
ATOM      8  S   UNL     1      76.595 233.970 339.469  0.00  0.00    +0.000 S 
ATOM      9  N   UNL     1      73.887 234.358 339.049  0.00  0.00    +0.000 NA
ATOM     10  C   UNL     1      75.039 234.199 339.207  0.00  0.00    +0.000 C 
ENDBRANCH   7   9
ENDBRANCH   1   6
TORSDOF 3
ENDMDL
MODEL 9
REMARK VINA RESULT:      -2.6     11.007     12.422
REMARK  Name = 5350_Sulforaphane.pdbqt.pdb
REMARK  3 active torsions:
REMARK  status: ('A' for Active; 'I' for Inactive)
REMARK    1  A    between atoms: C_1  and  C_2
REMARK    2  A    between atoms: C_3  and  N_5
REMARK    3  A    between atoms: C_7  and  S_8
REMARK                            x       y       z     vdW  Elec       q    Type
REMARK                         _______ _______ _______ _____ _____    ______ ____
ROOT
ATOM      1  C   UNL     1      69.064 221.023 336.238  0.00  0.00    +0.000 C 
ATOM      2  C   UNL     1      67.839 220.129 336.017  0.00  0.00    +0.000 C 
ENDROOT
BRANCH   2   3
ATOM      3  S   UNL     1      66.428 219.105 335.761  0.00  0.00    +0.000 S 
ATOM      4  O   UNL     1      65.533 220.292 335.564  0.00  0.00    +0.000 OA
ATOM      5  C   UNL     1      66.049 219.021 337.479  0.00  0.00    +0.000 C 
ENDBRANCH   2   3
BRANCH   1   6
ATOM      6  C   UNL     1      70.287 221.917 336.461  0.00  0.00    +0.000 C 
ATOM      7  C   UNL     1      71.512 222.812 336.686  0.00  0.00    +0.000 C 
BRANCH   7   9
ATOM      8  S   UNL     1      73.421 223.556 339.513  0.00  0.00    +0.000 S 
ATOM      9  N   UNL     1      72.575 223.604 336.879  0.00  0.00    +0.000 NA
ATOM     10  C   UNL     1      72.918 223.570 338.001  0.00  0.00    +0.000 C 
ENDBRANCH   7   9
ENDBRANCH   1   6
TORSDOF 3
ENDMDL
