MODEL 1
REMARK VINA RESULT:      -4.3      0.000      0.000
REMARK  Name = 5357283_Methylferulate.pdbqt.pdb
REMARK  5 active torsions:
REMARK  status: ('A' for Active; 'I' for Inactive)
REMARK    1  A    between atoms: C_1  and  C_11
REMARK    2  A    between atoms: C_2  and  O_7
REMARK    3  A    between atoms: C_5  and  O_9
REMARK    4  A    between atoms: C_12  and  C_14
REMARK    5  A    between atoms: C_14  and  O_15
REMARK                            x       y       z     vdW  Elec       q    Type
REMARK                         _______ _______ _______ _____ _____    ______ ____
ROOT
ATOM      1  C   UNL     1      52.905 243.213 324.742  0.00  0.00    +0.000 A 
ATOM      2  C   UNL     1      51.499 242.359 326.524  0.00  0.00    +0.000 A 
ATOM      3  C   UNL     1      51.769 242.523 325.162  0.00  0.00    +0.000 A 
ATOM      4  C   UNL     1      53.784 243.748 325.681  0.00  0.00    +0.000 A 
ATOM      5  C   UNL     1      52.390 242.900 327.454  0.00  0.00    +0.000 A 
ATOM      6  C   UNL     1      53.527 243.591 327.040  0.00  0.00    +0.000 A 
ENDROOT
BRANCH   2   7
ATOM      7  O   UNL     1      50.404 241.693 327.021  0.00  0.00    +0.000 OA
ATOM      8  C   UNL     1      49.835 240.742 326.160  0.00  0.00    +0.000 C 
ENDBRANCH   2   7
BRANCH   5   9
ATOM      9  O   UNL     1      52.144 242.749 328.792  0.00  0.00    +0.000 OA
ATOM     10  H   UNL     1      52.221 243.619 329.224  0.00  0.00    +0.000 HD
ENDBRANCH   5   9
BRANCH   1  11
ATOM     11  C   UNL     1      53.163 243.372 323.349  0.00  0.00    +0.000 C 
ATOM     12  C   UNL     1      53.380 243.505 322.174  0.00  0.00    +0.000 C 
BRANCH  12  14
ATOM     13  O   UNL     1      52.759 243.413 319.950  0.00  0.00    +0.000 OA
ATOM     14  C   UNL     1      53.641 243.661 320.762  0.00  0.00    +0.000 C 
BRANCH  14  15
ATOM     15  O   UNL     1      54.918 244.089 320.540  0.00  0.00    +0.000 OA
ATOM     16  C   UNL     1      55.107 245.428 320.156  0.00  0.00    +0.000 C 
ENDBRANCH  14  15
ENDBRANCH  12  14
ENDBRANCH   1  11
TORSDOF 5
ENDMDL
MODEL 2
REMARK VINA RESULT:      -4.1     24.862     26.925
REMARK  Name = 5357283_Methylferulate.pdbqt.pdb
REMARK  5 active torsions:
REMARK  status: ('A' for Active; 'I' for Inactive)
REMARK    1  A    between atoms: C_1  and  C_11
REMARK    2  A    between atoms: C_2  and  O_7
REMARK    3  A    between atoms: C_5  and  O_9
REMARK    4  A    between atoms: C_12  and  C_14
REMARK    5  A    between atoms: C_14  and  O_15
REMARK                            x       y       z     vdW  Elec       q    Type
REMARK                         _______ _______ _______ _____ _____    ______ ____
ROOT
ATOM      1  C   UNL     1      55.348 218.360 332.353  0.00  0.00    +0.000 A 
ATOM      2  C   UNL     1      54.986 218.051 329.975  0.00  0.00    +0.000 A 
ATOM      3  C   UNL     1      55.730 217.805 331.132  0.00  0.00    +0.000 A 
ATOM      4  C   UNL     1      54.217 219.168 332.429  0.00  0.00    +0.000 A 
ATOM      5  C   UNL     1      53.853 218.864 330.067  0.00  0.00    +0.000 A 
ATOM      6  C   UNL     1      53.467 219.422 331.284  0.00  0.00    +0.000 A 
ENDROOT
BRANCH   2   7
ATOM      7  O   UNL     1      55.293 217.544 328.735  0.00  0.00    +0.000 OA
ATOM      8  C   UNL     1      56.620 217.732 328.319  0.00  0.00    +0.000 C 
ENDBRANCH   2   7
BRANCH   5   9
ATOM      9  O   UNL     1      53.111 219.117 328.945  0.00  0.00    +0.000 OA
ATOM     10  H   UNL     1      53.194 220.062 328.721  0.00  0.00    +0.000 HD
ENDBRANCH   5   9
BRANCH   1  11
ATOM     11  C   UNL     1      56.120 218.099 333.523  0.00  0.00    +0.000 C 
ATOM     12  C   UNL     1      56.770 217.880 334.510  0.00  0.00    +0.000 C 
BRANCH  12  14
ATOM     13  O   UNL     1      57.460 216.538 336.261  0.00  0.00    +0.000 OA
ATOM     14  C   UNL     1      57.551 217.621 335.697  0.00  0.00    +0.000 C 
BRANCH  14  15
ATOM     15  O   UNL     1      58.322 218.699 336.026  0.00  0.00    +0.000 OA
ATOM     16  C   UNL     1      57.685 219.813 336.599  0.00  0.00    +0.000 C 
ENDBRANCH  14  15
ENDBRANCH  12  14
ENDBRANCH   1  11
TORSDOF 5
ENDMDL
MODEL 3
REMARK VINA RESULT:      -4.1      1.711      2.997
REMARK  Name = 5357283_Methylferulate.pdbqt.pdb
REMARK  5 active torsions:
REMARK  status: ('A' for Active; 'I' for Inactive)
REMARK    1  A    between atoms: C_1  and  C_11
REMARK    2  A    between atoms: C_2  and  O_7
REMARK    3  A    between atoms: C_5  and  O_9
REMARK    4  A    between atoms: C_12  and  C_14
REMARK    5  A    between atoms: C_14  and  O_15
REMARK                            x       y       z     vdW  Elec       q    Type
REMARK                         _______ _______ _______ _____ _____    ______ ____
ROOT
ATOM      1  C   UNL     1      52.400 242.986 325.012  0.00  0.00    +0.000 A 
ATOM      2  C   UNL     1      52.730 244.193 327.090  0.00  0.00    +0.000 A 
ATOM      3  C   UNL     1      53.012 244.011 325.733  0.00  0.00    +0.000 A 
ATOM      4  C   UNL     1      51.498 242.132 325.642  0.00  0.00    +0.000 A 
ATOM      5  C   UNL     1      51.822 243.328 327.708  0.00  0.00    +0.000 A 
ATOM      6  C   UNL     1      51.208 242.302 326.992  0.00  0.00    +0.000 A 
ENDROOT
BRANCH   2   7
ATOM      7  O   UNL     1      53.288 245.176 327.871  0.00  0.00    +0.000 OA
ATOM      8  C   UNL     1      52.840 246.480 327.610  0.00  0.00    +0.000 C 
ENDBRANCH   2   7
BRANCH   5   9
ATOM      9  O   UNL     1      51.531 243.491 329.035  0.00  0.00    +0.000 OA
ATOM     10  H   UNL     1      52.081 244.214 329.389  0.00  0.00    +0.000 HD
ENDBRANCH   5   9
BRANCH   1  11
ATOM     11  C   UNL     1      52.702 242.814 323.629  0.00  0.00    +0.000 C 
ATOM     12  C   UNL     1      52.957 242.670 322.463  0.00  0.00    +0.000 C 
BRANCH  12  14
ATOM     13  O   UNL     1      52.871 243.328 320.250  0.00  0.00    +0.000 OA
ATOM     14  C   UNL     1      53.265 242.501 321.062  0.00  0.00    +0.000 C 
BRANCH  14  15
ATOM     15  O   UNL     1      53.996 241.368 320.850  0.00  0.00    +0.000 OA
ATOM     16  C   UNL     1      53.342 240.130 320.972  0.00  0.00    +0.000 C 
ENDBRANCH  14  15
ENDBRANCH  12  14
ENDBRANCH   1  11
TORSDOF 5
ENDMDL
MODEL 4
REMARK VINA RESULT:      -4.1     29.217     30.784
REMARK  Name = 5357283_Methylferulate.pdbqt.pdb
REMARK  5 active torsions:
REMARK  status: ('A' for Active; 'I' for Inactive)
REMARK    1  A    between atoms: C_1  and  C_11
REMARK    2  A    between atoms: C_2  and  O_7
REMARK    3  A    between atoms: C_5  and  O_9
REMARK    4  A    between atoms: C_12  and  C_14
REMARK    5  A    between atoms: C_14  and  O_15
REMARK                            x       y       z     vdW  Elec       q    Type
REMARK                         _______ _______ _______ _____ _____    ______ ____
ROOT
ATOM      1  C   UNL     1      69.831 221.914 338.263  0.00  0.00    +0.000 A 
ATOM      2  C   UNL     1      71.744 223.193 337.499  0.00  0.00    +0.000 A 
ATOM      3  C   UNL     1      70.602 222.436 337.225  0.00  0.00    +0.000 A 
ATOM      4  C   UNL     1      70.194 222.146 339.587  0.00  0.00    +0.000 A 
ATOM      5  C   UNL     1      72.096 223.417 338.832  0.00  0.00    +0.000 A 
ATOM      6  C   UNL     1      71.329 222.898 339.874  0.00  0.00    +0.000 A 
ENDROOT
BRANCH   2   7
ATOM      7  O   UNL     1      72.557 223.742 336.537  0.00  0.00    +0.000 OA
ATOM      8  C   UNL     1      73.356 222.829 335.830  0.00  0.00    +0.000 C 
ENDBRANCH   2   7
BRANCH   5   9
ATOM      9  O   UNL     1      73.211 224.158 339.121  0.00  0.00    +0.000 OA
ATOM     10  H   UNL     1      73.875 223.575 339.532  0.00  0.00    +0.000 HD
ENDBRANCH   5   9
BRANCH   1  11
ATOM     11  C   UNL     1      68.670 221.142 337.965  0.00  0.00    +0.000 C 
ATOM     12  C   UNL     1      67.690 220.492 337.713  0.00  0.00    +0.000 C 
BRANCH  12  14
ATOM     13  O   UNL     1      66.247 218.725 338.079  0.00  0.00    +0.000 OA
ATOM     14  C   UNL     1      66.510 219.716 337.410  0.00  0.00    +0.000 C 
BRANCH  14  15
ATOM     15  O   UNL     1      65.828 220.245 336.353  0.00  0.00    +0.000 OA
ATOM     16  C   UNL     1      66.419 220.163 335.081  0.00  0.00    +0.000 C 
ENDBRANCH  14  15
ENDBRANCH  12  14
ENDBRANCH   1  11
TORSDOF 5
ENDMDL
MODEL 5
REMARK VINA RESULT:      -4.0     25.486     27.000
REMARK  Name = 5357283_Methylferulate.pdbqt.pdb
REMARK  5 active torsions:
REMARK  status: ('A' for Active; 'I' for Inactive)
REMARK    1  A    between atoms: C_1  and  C_11
REMARK    2  A    between atoms: C_2  and  O_7
REMARK    3  A    between atoms: C_5  and  O_9
REMARK    4  A    between atoms: C_12  and  C_14
REMARK    5  A    between atoms: C_14  and  O_15
REMARK                            x       y       z     vdW  Elec       q    Type
REMARK                         _______ _______ _______ _____ _____    ______ ____
ROOT
ATOM      1  C   UNL     1      66.254 234.885 345.057  0.00  0.00    +0.000 A 
ATOM      2  C   UNL     1      67.487 236.875 345.690  0.00  0.00    +0.000 A 
ATOM      3  C   UNL     1      67.453 235.508 345.400  0.00  0.00    +0.000 A 
ATOM      4  C   UNL     1      65.074 235.623 345.000  0.00  0.00    +0.000 A 
ATOM      5  C   UNL     1      66.296 237.602 345.629  0.00  0.00    +0.000 A 
ATOM      6  C   UNL     1      65.094 236.984 345.287  0.00  0.00    +0.000 A 
ENDROOT
BRANCH   2   7
ATOM      7  O   UNL     1      68.624 237.565 346.036  0.00  0.00    +0.000 OA
ATOM      8  C   UNL     1      69.515 236.876 346.874  0.00  0.00    +0.000 C 
ENDBRANCH   2   7
BRANCH   5   9
ATOM      9  O   UNL     1      66.308 238.942 345.909  0.00  0.00    +0.000 OA
ATOM     10  H   UNL     1      65.758 239.404 345.250  0.00  0.00    +0.000 HD
ENDBRANCH   5   9
BRANCH   1  11
ATOM     11  C   UNL     1      66.239 233.489 344.765  0.00  0.00    +0.000 C 
ATOM     12  C   UNL     1      66.224 232.312 344.518  0.00  0.00    +0.000 C 
BRANCH  12  14
ATOM     13  O   UNL     1      65.949 230.519 343.086  0.00  0.00    +0.000 OA
ATOM     14  C   UNL     1      66.202 230.899 344.222  0.00  0.00    +0.000 C 
BRANCH  14  15
ATOM     15  O   UNL     1      66.487 230.158 345.333  0.00  0.00    +0.000 OA
ATOM     16  C   UNL     1      65.701 230.362 346.480  0.00  0.00    +0.000 C 
ENDBRANCH  14  15
ENDBRANCH  12  14
ENDBRANCH   1  11
TORSDOF 5
ENDMDL
MODEL 6
REMARK VINA RESULT:      -4.0     21.774     23.406
REMARK  Name = 5357283_Methylferulate.pdbqt.pdb
REMARK  5 active torsions:
REMARK  status: ('A' for Active; 'I' for Inactive)
REMARK    1  A    between atoms: C_1  and  C_11
REMARK    2  A    between atoms: C_2  and  O_7
REMARK    3  A    between atoms: C_5  and  O_9
REMARK    4  A    between atoms: C_12  and  C_14
REMARK    5  A    between atoms: C_14  and  O_15
REMARK                            x       y       z     vdW  Elec       q    Type
REMARK                         _______ _______ _______ _____ _____    ______ ____
ROOT
ATOM      1  C   UNL     1      54.812 242.015 347.292  0.00  0.00    +0.000 A 
ATOM      2  C   UNL     1      55.273 239.962 348.497  0.00  0.00    +0.000 A 
ATOM      3  C   UNL     1      55.696 241.195 347.992  0.00  0.00    +0.000 A 
ATOM      4  C   UNL     1      53.495 241.610 347.089  0.00  0.00    +0.000 A 
ATOM      5  C   UNL     1      53.949 239.569 348.286  0.00  0.00    +0.000 A 
ATOM      6  C   UNL     1      53.061 240.385 347.586  0.00  0.00    +0.000 A 
ENDROOT
BRANCH   2   7
ATOM      7  O   UNL     1      56.078 239.095 349.197  0.00  0.00    +0.000 OA
ATOM      8  C   UNL     1      56.493 239.546 350.460  0.00  0.00    +0.000 C 
ENDBRANCH   2   7
BRANCH   5   9
ATOM      9  O   UNL     1      53.516 238.366 348.774  0.00  0.00    +0.000 OA
ATOM     10  H   UNL     1      53.883 237.653 348.219  0.00  0.00    +0.000 HD
ENDBRANCH   5   9
BRANCH   1  11
ATOM     11  C   UNL     1      55.261 243.269 346.783  0.00  0.00    +0.000 C 
ATOM     12  C   UNL     1      55.637 244.327 346.353  0.00  0.00    +0.000 C 
BRANCH  12  14
ATOM     13  O   UNL     1      55.288 246.350 345.292  0.00  0.00    +0.000 OA
ATOM     14  C   UNL     1      56.088 245.597 345.833  0.00  0.00    +0.000 C 
BRANCH  14  15
ATOM     15  O   UNL     1      57.426 245.770 346.041  0.00  0.00    +0.000 OA
ATOM     16  C   UNL     1      58.315 245.184 345.124  0.00  0.00    +0.000 C 
ENDBRANCH  14  15
ENDBRANCH  12  14
ENDBRANCH   1  11
TORSDOF 5
ENDMDL
MODEL 7
REMARK VINA RESULT:      -3.8     22.996     24.994
REMARK  Name = 5357283_Methylferulate.pdbqt.pdb
REMARK  5 active torsions:
REMARK  status: ('A' for Active; 'I' for Inactive)
REMARK    1  A    between atoms: C_1  and  C_11
REMARK    2  A    between atoms: C_2  and  O_7
REMARK    3  A    between atoms: C_5  and  O_9
REMARK    4  A    between atoms: C_12  and  C_14
REMARK    5  A    between atoms: C_14  and  O_15
REMARK                            x       y       z     vdW  Elec       q    Type
REMARK                         _______ _______ _______ _____ _____    ______ ____
ROOT
ATOM      1  C   UNL     1      72.732 235.251 335.515  0.00  0.00    +0.000 A 
ATOM      2  C   UNL     1      70.858 235.304 333.976  0.00  0.00    +0.000 A 
ATOM      3  C   UNL     1      71.369 235.103 335.261  0.00  0.00    +0.000 A 
ATOM      4  C   UNL     1      73.599 235.603 334.484  0.00  0.00    +0.000 A 
ATOM      5  C   UNL     1      71.741 235.657 332.952  0.00  0.00    +0.000 A 
ATOM      6  C   UNL     1      73.104 235.807 333.200  0.00  0.00    +0.000 A 
ENDROOT
BRANCH   2   7
ATOM      7  O   UNL     1      69.531 235.178 333.641  0.00  0.00    +0.000 OA
ATOM      8  C   UNL     1      68.623 235.416 334.685  0.00  0.00    +0.000 C 
ENDBRANCH   2   7
BRANCH   5   9
ATOM      9  O   UNL     1      71.260 235.859 331.686  0.00  0.00    +0.000 OA
ATOM     10  H   UNL     1      71.088 234.992 331.275  0.00  0.00    +0.000 HD
ENDBRANCH   5   9
BRANCH   1  11
ATOM     11  C   UNL     1      73.235 235.041 336.832  0.00  0.00    +0.000 C 
ATOM     12  C   UNL     1      73.659 234.865 337.943  0.00  0.00    +0.000 C 
BRANCH  12  14
ATOM     13  O   UNL     1      73.784 235.365 340.196  0.00  0.00    +0.000 OA
ATOM     14  C   UNL     1      74.173 234.656 339.277  0.00  0.00    +0.000 C 
BRANCH  14  15
ATOM     15  O   UNL     1      75.075 233.631 339.304  0.00  0.00    +0.000 OA
ATOM     16  C   UNL     1      76.441 233.958 339.354  0.00  0.00    +0.000 C 
ENDBRANCH  14  15
ENDBRANCH  12  14
ENDBRANCH   1  11
TORSDOF 5
ENDMDL
MODEL 8
REMARK VINA RESULT:      -3.7     18.201     18.358
REMARK  Name = 5357283_Methylferulate.pdbqt.pdb
REMARK  5 active torsions:
REMARK  status: ('A' for Active; 'I' for Inactive)
REMARK    1  A    between atoms: C_1  and  C_11
REMARK    2  A    between atoms: C_2  and  O_7
REMARK    3  A    between atoms: C_5  and  O_9
REMARK    4  A    between atoms: C_12  and  C_14
REMARK    5  A    between atoms: C_14  and  O_15
REMARK                            x       y       z     vdW  Elec       q    Type
REMARK                         _______ _______ _______ _____ _____    ______ ____
ROOT
ATOM      1  C   UNL     1      62.251 227.592 324.394  0.00  0.00    +0.000 A 
ATOM      2  C   UNL     1      62.385 225.511 325.632  0.00  0.00    +0.000 A 
ATOM      3  C   UNL     1      61.789 226.301 324.645  0.00  0.00    +0.000 A 
ATOM      4  C   UNL     1      63.317 228.107 325.128  0.00  0.00    +0.000 A 
ATOM      5  C   UNL     1      63.452 226.041 326.361  0.00  0.00    +0.000 A 
ATOM      6  C   UNL     1      63.919 227.331 326.114  0.00  0.00    +0.000 A 
ENDROOT
BRANCH   2   7
ATOM      7  O   UNL     1      61.991 224.231 325.942  0.00  0.00    +0.000 OA
ATOM      8  C   UNL     1      60.605 224.038 326.050  0.00  0.00    +0.000 C 
ENDBRANCH   2   7
BRANCH   5   9
ATOM      9  O   UNL     1      64.050 225.283 327.331  0.00  0.00    +0.000 OA
ATOM     10  H   UNL     1      63.736 224.364 327.247  0.00  0.00    +0.000 HD
ENDBRANCH   5   9
BRANCH   1  11
ATOM     11  C   UNL     1      61.631 228.384 323.384  0.00  0.00    +0.000 C 
ATOM     12  C   UNL     1      61.107 229.053 322.533  0.00  0.00    +0.000 C 
BRANCH  12  14
ATOM     13  O   UNL     1      60.920 230.965 321.248  0.00  0.00    +0.000 OA
ATOM     14  C   UNL     1      60.473 229.857 321.514  0.00  0.00    +0.000 C 
BRANCH  14  15
ATOM     15  O   UNL     1      59.401 229.209 320.970  0.00  0.00    +0.000 OA
ATOM     16  C   UNL     1      59.386 229.015 319.578  0.00  0.00    +0.000 C 
ENDBRANCH  14  15
ENDBRANCH  12  14
ENDBRANCH   1  11
TORSDOF 5
ENDMDL
MODEL 9
REMARK VINA RESULT:      -3.6      1.217      2.538
REMARK  Name = 5357283_Methylferulate.pdbqt.pdb
REMARK  5 active torsions:
REMARK  status: ('A' for Active; 'I' for Inactive)
REMARK    1  A    between atoms: C_1  and  C_11
REMARK    2  A    between atoms: C_2  and  O_7
REMARK    3  A    between atoms: C_5  and  O_9
REMARK    4  A    between atoms: C_12  and  C_14
REMARK    5  A    between atoms: C_14  and  O_15
REMARK                            x       y       z     vdW  Elec       q    Type
REMARK                         _______ _______ _______ _____ _____    ______ ____
ROOT
ATOM      1  C   UNL     1      51.594 242.641 324.026  0.00  0.00    +0.000 A 
ATOM      2  C   UNL     1      51.275 242.270 326.402  0.00  0.00    +0.000 A 
ATOM      3  C   UNL     1      52.066 242.709 325.337  0.00  0.00    +0.000 A 
ATOM      4  C   UNL     1      50.323 242.134 323.768  0.00  0.00    +0.000 A 
ATOM      5  C   UNL     1      50.002 241.763 326.127  0.00  0.00    +0.000 A 
ATOM      6  C   UNL     1      49.524 241.694 324.819  0.00  0.00    +0.000 A 
ENDROOT
BRANCH   2   7
ATOM      7  O   UNL     1      51.663 242.301 327.719  0.00  0.00    +0.000 OA
ATOM      8  C   UNL     1      52.520 243.357 328.069  0.00  0.00    +0.000 C 
ENDBRANCH   2   7
BRANCH   5   9
ATOM      9  O   UNL     1      49.211 241.330 327.156  0.00  0.00    +0.000 OA
ATOM     10  H   UNL     1      49.713 241.402 327.988  0.00  0.00    +0.000 HD
ENDBRANCH   5   9
BRANCH   1  11
ATOM     11  C   UNL     1      52.416 243.092 322.952  0.00  0.00    +0.000 C 
ATOM     12  C   UNL     1      53.107 243.474 322.046  0.00  0.00    +0.000 C 
BRANCH  12  14
ATOM     13  O   UNL     1      54.034 243.249 319.941  0.00  0.00    +0.000 OA
ATOM     14  C   UNL     1      53.936 243.929 320.953  0.00  0.00    +0.000 C 
BRANCH  14  15
ATOM     15  O   UNL     1      54.518 245.130 321.243  0.00  0.00    +0.000 OA
ATOM     16  C   UNL     1      55.577 245.141 322.168  0.00  0.00    +0.000 C 
ENDBRANCH  14  15
ENDBRANCH  12  14
ENDBRANCH   1  11
TORSDOF 5
ENDMDL
