REMARK  Name = 5357283_Methylferulate.pdbqt.pdb
REMARK  5 active torsions:
REMARK  status: ('A' for Active; 'I' for Inactive)
REMARK    1  A    between atoms: C_1  and  C_11
REMARK    2  A    between atoms: C_2  and  O_7
REMARK    3  A    between atoms: C_5  and  O_9
REMARK    4  A    between atoms: C_12  and  C_14
REMARK    5  A    between atoms: C_14  and  O_15
REMARK                            x       y       z     vdW  Elec       q    Type
REMARK                         _______ _______ _______ _____ _____    ______ ____
ROOT
ATOM      1  C   UNL     1      -0.367  -0.506   0.020  0.00  0.00    +0.000 A 
ATOM      2  C   UNL     1      -2.516   0.618   0.007  0.00  0.00    +0.000 A 
ATOM      3  C   UNL     1      -1.119   0.668   0.004  0.00  0.00    +0.000 A 
ATOM      4  C   UNL     1      -1.005  -1.744   0.039  0.00  0.00    +0.000 A 
ATOM      5  C   UNL     1      -3.142  -0.631   0.026  0.00  0.00    +0.000 A 
ATOM      6  C   UNL     1      -2.395  -1.808   0.042  0.00  0.00    +0.000 A 
ENDROOT
BRANCH   2   7
ATOM      7  O   UNL     1      -3.330   1.725  -0.008  0.00  0.00    +0.000 OA
ATOM      8  C   UNL     1      -2.665   2.961  -0.026  0.00  0.00    +0.000 C 
ENDBRANCH   2   7
BRANCH   5   9
ATOM      9  O   UNL     1      -4.509  -0.701   0.028  0.00  0.00    +0.000 OA
ATOM     10  H   UNL     1      -4.774  -1.639   0.042  0.00  0.00    +0.000 HD
ENDBRANCH   5   9
BRANCH   1  11
ATOM     11  C   UNL     1       1.057  -0.436   0.018  0.00  0.00    +0.000 C 
ATOM     12  C   UNL     1       2.258  -0.378   0.015  0.00  0.00    +0.000 C 
BRANCH  12  14
ATOM     13  O   UNL     1       4.356  -1.347   0.006  0.00  0.00    +0.000 OA
ATOM     14  C   UNL     1       3.701  -0.313   0.012  0.00  0.00    +0.000 C 
BRANCH  14  15
ATOM     15  O   UNL     1       4.137   0.981   0.017  0.00  0.00    +0.000 OA
ATOM     16  C   UNL     1       5.524   1.208   0.016  0.00  0.00    +0.000 C 
ENDBRANCH  14  15
ENDBRANCH  12  14
ENDBRANCH   1  11
TORSDOF 5
