MODEL 1
REMARK VINA RESULT:      -5.9      0.000      0.000
REMARK  Name = 5358691_Yuanhuacine.pdbqt.pdb
REMARK  12 active torsions:
REMARK  status: ('A' for Active; 'I' for Inactive)
REMARK    1  A    between atoms: C_9  and  C_48
REMARK    2  A    between atoms: C_13  and  C_23
REMARK    3  A    between atoms: C_14  and  O_26
REMARK    4  A    between atoms: C_15  and  O_28
REMARK    5  A    between atoms: C_16  and  O_39
REMARK    6  A    between atoms: C_17  and  C_30
REMARK    7  A    between atoms: C_31  and  C_32
REMARK    8  A    between atoms: C_33  and  C_34
REMARK    9  A    between atoms: C_35  and  C_36
REMARK   10  A    between atoms: O_39  and  C_41
REMARK   11  A    between atoms: C_41  and  C_42
REMARK   12  A    between atoms: C_48  and  O_49
REMARK                            x       y       z     vdW  Elec       q    Type
REMARK                         _______ _______ _______ _____ _____    ______ ____
ROOT
ATOM      1  O   UNL     1      74.118 219.864 338.266  0.00  0.00    +0.000 OA
ATOM      2  O   UNL     1      71.414 221.521 339.750  0.00  0.00    +0.000 OA
ATOM      3  O   UNL     1      71.288 219.159 339.942  0.00  0.00    +0.000 OA
ATOM      4  O   UNL     1      69.345 220.375 339.939  0.00  0.00    +0.000 OA
ATOM      5  O   UNL     1      74.425 224.263 335.496  0.00  0.00    +0.000 OA
ATOM      6  C   UNL     1      71.806 220.002 337.893  0.00  0.00    +0.000 C 
ATOM      7  C   UNL     1      71.527 221.458 338.295  0.00  0.00    +0.000 C 
ATOM      8  C   UNL     1      73.070 219.462 337.478  0.00  0.00    +0.000 C 
ATOM      9  C   UNL     1      74.278 219.996 336.847  0.00  0.00    +0.000 C 
ATOM     10  C   UNL     1      70.832 219.184 338.625  0.00  0.00    +0.000 C 
ATOM     11  C   UNL     1      72.642 222.377 337.899  0.00  0.00    +0.000 C 
ATOM     12  C   UNL     1      70.166 221.893 337.673  0.00  0.00    +0.000 C 
ATOM     13  C   UNL     1      69.373 219.701 338.649  0.00  0.00    +0.000 C 
ATOM     14  C   UNL     1      73.200 222.375 336.493  0.00  0.00    +0.000 C 
ATOM     15  C   UNL     1      74.244 221.337 336.204  0.00  0.00    +0.000 C 
ATOM     16  C   UNL     1      69.166 220.837 337.662  0.00  0.00    +0.000 C 
ATOM     17  C   UNL     1      70.710 220.405 340.348  0.00  0.00    +0.000 C 
ATOM     18  C   UNL     1      73.000 223.599 338.523  0.00  0.00    +0.000 C 
ATOM     19  C   UNL     1      69.750 223.321 337.320  0.00  0.00    +0.000 C 
ATOM     20  C   UNL     1      73.840 223.803 336.472  0.00  0.00    +0.000 C 
ATOM     21  C   UNL     1      73.635 224.462 337.803  0.00  0.00    +0.000 C 
ATOM     22  C   UNL     1      74.450 225.578 338.369  0.00  0.00    +0.000 C 
ENDROOT
BRANCH  13  23
ATOM     23  C   UNL     1      68.390 218.510 338.567  0.00  0.00    +0.000 C 
ATOM     24  C   UNL     1      68.536 217.345 337.589  0.00  0.00    +0.000 C 
ATOM     25  C   UNL     1      67.168 218.511 339.137  0.00  0.00    +0.000 C 
ENDBRANCH  13  23
BRANCH  14  26
ATOM     26  O   UNL     1      72.171 222.235 335.536  0.00  0.00    +0.000 OA
ATOM     27  H   UNL     1      72.592 222.248 334.654  0.00  0.00    +0.000 HD
ENDBRANCH  14  26
BRANCH  15  28
ATOM     28  O   UNL     1      75.111 221.595 335.139  0.00  0.00    +0.000 OA
ATOM     29  H   UNL     1      74.999 222.474 334.717  0.00  0.00    +0.000 HD
ENDBRANCH  15  28
BRANCH  17  30
ATOM     30  C   UNL     1      70.779 220.529 341.800  0.00  0.00    +0.000 C 
ATOM     31  C   UNL     1      70.836 220.634 342.995  0.00  0.00    +0.000 C 
BRANCH  31  32
ATOM     32  C   UNL     1      70.908 220.769 344.518  0.00  0.00    +0.000 C 
ATOM     33  C   UNL     1      70.965 220.875 345.712  0.00  0.00    +0.000 C 
BRANCH  33  34
ATOM     34  C   UNL     1      71.040 221.012 347.236  0.00  0.00    +0.000 C 
ATOM     35  C   UNL     1      71.116 221.148 348.759  0.00  0.00    +0.000 C 
BRANCH  35  36
ATOM     36  C   UNL     1      71.194 221.285 350.283  0.00  0.00    +0.000 C 
ATOM     37  C   UNL     1      71.271 221.420 351.807  0.00  0.00    +0.000 C 
ATOM     38  C   UNL     1      71.348 221.555 353.331  0.00  0.00    +0.000 C 
ENDBRANCH  35  36
ENDBRANCH  33  34
ENDBRANCH  31  32
ENDBRANCH  17  30
BRANCH  16  39
ATOM     39  O   UNL     1      68.077 220.967 336.785  0.00  0.00    +0.000 OA
BRANCH  39  41
ATOM     40  O   UNL     1      69.401 220.525 334.959  0.00  0.00    +0.000 OA
ATOM     41  C   UNL     1      68.317 220.515 335.519  0.00  0.00    +0.000 C 
BRANCH  41  42
ATOM     42  C   UNL     1      67.066 220.048 334.895  0.00  0.00    +0.000 A 
ATOM     43  C   UNL     1      66.154 219.256 335.593  0.00  0.00    +0.000 A 
ATOM     44  C   UNL     1      66.807 220.419 333.577  0.00  0.00    +0.000 A 
ATOM     45  C   UNL     1      64.982 218.836 334.970  0.00  0.00    +0.000 A 
ATOM     46  C   UNL     1      65.634 219.998 332.956  0.00  0.00    +0.000 A 
ATOM     47  C   UNL     1      64.722 219.207 333.653  0.00  0.00    +0.000 A 
ENDBRANCH  41  42
ENDBRANCH  39  41
ENDBRANCH  16  39
BRANCH   9  48
ATOM     48  C   UNL     1      75.279 219.048 336.377  0.00  0.00    +0.000 C 
BRANCH  48  49
ATOM     49  O   UNL     1      76.198 218.184 335.953  0.00  0.00    +0.000 OA
ATOM     50  H   UNL     1      77.037 218.321 336.424  0.00  0.00    +0.000 HD
ENDBRANCH  48  49
ENDBRANCH   9  48
TORSDOF 12
ENDMDL
MODEL 2
REMARK VINA RESULT:      -5.6     13.795     17.622
REMARK  Name = 5358691_Yuanhuacine.pdbqt.pdb
REMARK  12 active torsions:
REMARK  status: ('A' for Active; 'I' for Inactive)
REMARK    1  A    between atoms: C_9  and  C_48
REMARK    2  A    between atoms: C_13  and  C_23
REMARK    3  A    between atoms: C_14  and  O_26
REMARK    4  A    between atoms: C_15  and  O_28
REMARK    5  A    between atoms: C_16  and  O_39
REMARK    6  A    between atoms: C_17  and  C_30
REMARK    7  A    between atoms: C_31  and  C_32
REMARK    8  A    between atoms: C_33  and  C_34
REMARK    9  A    between atoms: C_35  and  C_36
REMARK   10  A    between atoms: O_39  and  C_41
REMARK   11  A    between atoms: C_41  and  C_42
REMARK   12  A    between atoms: C_48  and  O_49
REMARK                            x       y       z     vdW  Elec       q    Type
REMARK                         _______ _______ _______ _____ _____    ______ ____
ROOT
ATOM      1  O   UNL     1      65.866 229.842 347.847  0.00  0.00    +0.000 OA
ATOM      2  O   UNL     1      65.634 229.758 351.339  0.00  0.00    +0.000 OA
ATOM      3  O   UNL     1      63.968 228.461 350.256  0.00  0.00    +0.000 OA
ATOM      4  O   UNL     1      63.519 229.335 352.328  0.00  0.00    +0.000 OA
ATOM      5  O   UNL     1      68.341 234.326 348.791  0.00  0.00    +0.000 OA
ATOM      6  C   UNL     1      64.322 230.563 349.458  0.00  0.00    +0.000 C 
ATOM      7  C   UNL     1      65.258 230.965 350.607  0.00  0.00    +0.000 C 
ATOM      8  C   UNL     1      64.670 230.476 348.068  0.00  0.00    +0.000 C 
ATOM      9  C   UNL     1      65.666 231.106 347.200  0.00  0.00    +0.000 C 
ATOM     10  C   UNL     1      63.313 229.673 350.048  0.00  0.00    +0.000 C 
ATOM     11  C   UNL     1      66.524 231.593 350.111  0.00  0.00    +0.000 C 
ATOM     12  C   UNL     1      64.480 231.908 351.575  0.00  0.00    +0.000 C 
ATOM     13  C   UNL     1      62.709 230.114 351.403  0.00  0.00    +0.000 C 
ATOM     14  C   UNL     1      66.499 232.723 349.107  0.00  0.00    +0.000 C 
ATOM     15  C   UNL     1      66.392 232.317 347.666  0.00  0.00    +0.000 C 
ATOM     16  C   UNL     1      63.082 231.547 351.742  0.00  0.00    +0.000 C 
ATOM     17  C   UNL     1      64.562 228.800 351.514  0.00  0.00    +0.000 C 
ATOM     18  C   UNL     1      67.784 231.598 350.763  0.00  0.00    +0.000 C 
ATOM     19  C   UNL     1      65.095 232.967 352.491  0.00  0.00    +0.000 C 
ATOM     20  C   UNL     1      67.907 233.344 349.388  0.00  0.00    +0.000 C 
ATOM     21  C   UNL     1      68.602 232.548 350.452  0.00  0.00    +0.000 C 
ATOM     22  C   UNL     1      70.075 232.486 350.687  0.00  0.00    +0.000 C 
ENDROOT
BRANCH  13  23
ATOM     23  C   UNL     1      61.208 229.746 351.455  0.00  0.00    +0.000 C 
ATOM     24  C   UNL     1      60.565 228.925 352.571  0.00  0.00    +0.000 C 
ATOM     25  C   UNL     1      60.376 229.861 350.399  0.00  0.00    +0.000 C 
ENDBRANCH  13  23
BRANCH  14  26
ATOM     26  O   UNL     1      65.450 233.628 349.383  0.00  0.00    +0.000 OA
ATOM     27  H   UNL     1      64.635 233.100 349.498  0.00  0.00    +0.000 HD
ENDBRANCH  14  26
BRANCH  15  28
ATOM     28  O   UNL     1      66.848 233.236 346.717  0.00  0.00    +0.000 OA
ATOM     29  H   UNL     1      67.523 233.868 347.044  0.00  0.00    +0.000 HD
ENDBRANCH  15  28
BRANCH  17  30
ATOM     30  C   UNL     1      65.101 227.600 352.145  0.00  0.00    +0.000 C 
ATOM     31  C   UNL     1      65.545 226.613 352.665  0.00  0.00    +0.000 C 
BRANCH  31  32
ATOM     32  C   UNL     1      66.110 225.355 353.330  0.00  0.00    +0.000 C 
ATOM     33  C   UNL     1      66.554 224.369 353.851  0.00  0.00    +0.000 C 
BRANCH  33  34
ATOM     34  C   UNL     1      67.122 223.112 354.517  0.00  0.00    +0.000 C 
ATOM     35  C   UNL     1      67.689 221.855 355.181  0.00  0.00    +0.000 C 
BRANCH  35  36
ATOM     36  C   UNL     1      68.257 220.596 355.846  0.00  0.00    +0.000 C 
ATOM     37  C   UNL     1      68.824 219.339 356.510  0.00  0.00    +0.000 C 
ATOM     38  C   UNL     1      69.391 218.080 357.176  0.00  0.00    +0.000 C 
ENDBRANCH  35  36
ENDBRANCH  33  34
ENDBRANCH  31  32
ENDBRANCH  17  30
BRANCH  16  39
ATOM     39  O   UNL     1      62.202 232.523 352.239  0.00  0.00    +0.000 OA
BRANCH  39  41
ATOM     40  O   UNL     1      61.680 233.353 350.161  0.00  0.00    +0.000 OA
ATOM     41  C   UNL     1      61.901 233.514 351.350  0.00  0.00    +0.000 C 
BRANCH  41  42
ATOM     42  C   UNL     1      61.922 234.827 352.019  0.00  0.00    +0.000 A 
ATOM     43  C   UNL     1      61.303 235.027 353.253  0.00  0.00    +0.000 A 
ATOM     44  C   UNL     1      62.583 235.879 351.388  0.00  0.00    +0.000 A 
ATOM     45  C   UNL     1      61.346 236.282 353.855  0.00  0.00    +0.000 A 
ATOM     46  C   UNL     1      62.625 237.133 351.992  0.00  0.00    +0.000 A 
ATOM     47  C   UNL     1      62.007 237.334 353.224  0.00  0.00    +0.000 A 
ENDBRANCH  41  42
ENDBRANCH  39  41
ENDBRANCH  16  39
BRANCH   9  48
ATOM     48  C   UNL     1      65.542 230.906 345.762  0.00  0.00    +0.000 C 
BRANCH  48  49
ATOM     49  O   UNL     1      65.428 230.729 344.448  0.00  0.00    +0.000 OA
ATOM     50  H   UNL     1      64.573 230.319 344.233  0.00  0.00    +0.000 HD
ENDBRANCH  48  49
ENDBRANCH   9  48
TORSDOF 12
ENDMDL
MODEL 3
REMARK VINA RESULT:      -5.5     31.583     34.651
REMARK  Name = 5358691_Yuanhuacine.pdbqt.pdb
REMARK  12 active torsions:
REMARK  status: ('A' for Active; 'I' for Inactive)
REMARK    1  A    between atoms: C_9  and  C_48
REMARK    2  A    between atoms: C_13  and  C_23
REMARK    3  A    between atoms: C_14  and  O_26
REMARK    4  A    between atoms: C_15  and  O_28
REMARK    5  A    between atoms: C_16  and  O_39
REMARK    6  A    between atoms: C_17  and  C_30
REMARK    7  A    between atoms: C_31  and  C_32
REMARK    8  A    between atoms: C_33  and  C_34
REMARK    9  A    between atoms: C_35  and  C_36
REMARK   10  A    between atoms: O_39  and  C_41
REMARK   11  A    between atoms: C_41  and  C_42
REMARK   12  A    between atoms: C_48  and  O_49
REMARK                            x       y       z     vdW  Elec       q    Type
REMARK                         _______ _______ _______ _____ _____    ______ ____
ROOT
ATOM      1  O   UNL     1      49.609 243.303 329.133  0.00  0.00    +0.000 OA
ATOM      2  O   UNL     1      48.728 242.732 325.792  0.00  0.00    +0.000 OA
ATOM      3  O   UNL     1      50.830 241.801 326.382  0.00  0.00    +0.000 OA
ATOM      4  O   UNL     1      50.458 242.405 324.201  0.00  0.00    +0.000 OA
ATOM      5  O   UNL     1      46.307 247.296 328.619  0.00  0.00    +0.000 OA
ATOM      6  C   UNL     1      50.431 243.945 327.032  0.00  0.00    +0.000 C 
ATOM      7  C   UNL     1      49.129 244.067 326.228  0.00  0.00    +0.000 C 
ATOM      8  C   UNL     1      50.561 244.026 328.459  0.00  0.00    +0.000 C 
ATOM      9  C   UNL     1      49.809 244.662 329.542  0.00  0.00    +0.000 C 
ATOM     10  C   UNL     1      51.324 243.096 326.233  0.00  0.00    +0.000 C 
ATOM     11  C   UNL     1      48.005 244.617 327.053  0.00  0.00    +0.000 C 
ATOM     12  C   UNL     1      49.404 244.938 324.965  0.00  0.00    +0.000 C 
ATOM     13  C   UNL     1      51.390 243.397 324.716  0.00  0.00    +0.000 C 
ATOM     14  C   UNL     1      48.175 245.879 327.869  0.00  0.00    +0.000 C 
ATOM     15  C   UNL     1      48.795 245.704 329.224  0.00  0.00    +0.000 C 
ATOM     16  C   UNL     1      50.714 244.714 324.377  0.00  0.00    +0.000 C 
ATOM     17  C   UNL     1      49.823 241.884 325.367  0.00  0.00    +0.000 C 
ATOM     18  C   UNL     1      46.618 244.387 326.864  0.00  0.00    +0.000 C 
ATOM     19  C   UNL     1      48.375 245.776 324.205  0.00  0.00    +0.000 C 
ATOM     20  C   UNL     1      46.673 246.292 328.014  0.00  0.00    +0.000 C 
ATOM     21  C   UNL     1      45.807 245.275 327.332  0.00  0.00    +0.000 C 
ATOM     22  C   UNL     1      44.363 245.017 327.612  0.00  0.00    +0.000 C 
ENDROOT
BRANCH  13  23
ATOM     23  C   UNL     1      52.835 243.194 324.201  0.00  0.00    +0.000 C 
ATOM     24  C   UNL     1      54.076 243.764 324.886  0.00  0.00    +0.000 C 
ATOM     25  C   UNL     1      53.129 242.746 322.964  0.00  0.00    +0.000 C 
ENDBRANCH  13  23
BRANCH  14  26
ATOM     26  O   UNL     1      48.930 246.843 327.167  0.00  0.00    +0.000 OA
ATOM     27  H   UNL     1      49.655 246.370 326.712  0.00  0.00    +0.000 HD
ENDBRANCH  14  26
BRANCH  15  28
ATOM     28  O   UNL     1      48.530 246.696 330.172  0.00  0.00    +0.000 OA
ATOM     29  H   UNL     1      47.984 247.444 329.847  0.00  0.00    +0.000 HD
ENDBRANCH  15  28
BRANCH  17  30
ATOM     30  C   UNL     1      49.302 240.551 325.081  0.00  0.00    +0.000 C 
ATOM     31  C   UNL     1      48.871 239.456 324.845  0.00  0.00    +0.000 C 
BRANCH  31  32
ATOM     32  C   UNL     1      48.321 238.059 324.543  0.00  0.00    +0.000 C 
ATOM     33  C   UNL     1      47.888 236.965 324.307  0.00  0.00    +0.000 C 
BRANCH  33  34
ATOM     34  C   UNL     1      47.334 235.568 324.007  0.00  0.00    +0.000 C 
ATOM     35  C   UNL     1      46.781 234.173 323.708  0.00  0.00    +0.000 C 
BRANCH  35  36
ATOM     36  C   UNL     1      46.225 232.776 323.409  0.00  0.00    +0.000 C 
ATOM     37  C   UNL     1      45.670 231.381 323.111  0.00  0.00    +0.000 C 
ATOM     38  C   UNL     1      45.113 229.984 322.814  0.00  0.00    +0.000 C 
ENDBRANCH  35  36
ENDBRANCH  33  34
ENDBRANCH  31  32
ENDBRANCH  17  30
BRANCH  16  39
ATOM     39  O   UNL     1      51.229 245.697 323.516  0.00  0.00    +0.000 OA
BRANCH  39  41
ATOM     40  O   UNL     1      51.375 247.429 325.019  0.00  0.00    +0.000 OA
ATOM     41  C   UNL     1      51.865 246.725 324.153  0.00  0.00    +0.000 C 
BRANCH  41  42
ATOM     42  C   UNL     1      53.225 246.899 323.612  0.00  0.00    +0.000 A 
ATOM     43  C   UNL     1      54.222 247.547 324.341  0.00  0.00    +0.000 A 
ATOM     44  C   UNL     1      53.501 246.394 322.342  0.00  0.00    +0.000 A 
ATOM     45  C   UNL     1      55.497 247.691 323.797  0.00  0.00    +0.000 A 
ATOM     46  C   UNL     1      54.775 246.538 321.801  0.00  0.00    +0.000 A 
ATOM     47  C   UNL     1      55.772 247.186 322.528  0.00  0.00    +0.000 A 
ENDBRANCH  41  42
ENDBRANCH  39  41
ENDBRANCH  16  39
BRANCH   9  48
ATOM     48  C   UNL     1      50.413 244.691 330.868  0.00  0.00    +0.000 C 
BRANCH  48  49
ATOM     49  O   UNL     1      50.959 244.721 332.080  0.00  0.00    +0.000 OA
ATOM     50  H   UNL     1      50.270 244.815 332.761  0.00  0.00    +0.000 HD
ENDBRANCH  48  49
ENDBRANCH   9  48
TORSDOF 12
ENDMDL
MODEL 4
REMARK VINA RESULT:      -5.4     29.537     33.803
REMARK  Name = 5358691_Yuanhuacine.pdbqt.pdb
REMARK  12 active torsions:
REMARK  status: ('A' for Active; 'I' for Inactive)
REMARK    1  A    between atoms: C_9  and  C_48
REMARK    2  A    between atoms: C_13  and  C_23
REMARK    3  A    between atoms: C_14  and  O_26
REMARK    4  A    between atoms: C_15  and  O_28
REMARK    5  A    between atoms: C_16  and  O_39
REMARK    6  A    between atoms: C_17  and  C_30
REMARK    7  A    between atoms: C_31  and  C_32
REMARK    8  A    between atoms: C_33  and  C_34
REMARK    9  A    between atoms: C_35  and  C_36
REMARK   10  A    between atoms: O_39  and  C_41
REMARK   11  A    between atoms: C_41  and  C_42
REMARK   12  A    between atoms: C_48  and  O_49
REMARK                            x       y       z     vdW  Elec       q    Type
REMARK                         _______ _______ _______ _____ _____    ______ ____
ROOT
ATOM      1  O   UNL     1      49.674 236.304 323.770  0.00  0.00    +0.000 OA
ATOM      2  O   UNL     1      48.541 239.442 322.709  0.00  0.00    +0.000 OA
ATOM      3  O   UNL     1      48.957 239.334 325.043  0.00  0.00    +0.000 OA
ATOM      4  O   UNL     1      47.397 240.823 324.263  0.00  0.00    +0.000 OA
ATOM      5  O   UNL     1      47.279 234.718 319.426  0.00  0.00    +0.000 OA
ATOM      6  C   UNL     1      47.768 237.625 324.125  0.00  0.00    +0.000 C 
ATOM      7  C   UNL     1      47.622 238.308 322.758  0.00  0.00    +0.000 C 
ATOM      8  C   UNL     1      48.453 236.391 324.390  0.00  0.00    +0.000 C 
ATOM      9  C   UNL     1      48.782 235.192 323.619  0.00  0.00    +0.000 C 
ATOM     10  C   UNL     1      47.718 238.699 325.124  0.00  0.00    +0.000 C 
ATOM     11  C   UNL     1      47.987 237.395 321.627  0.00  0.00    +0.000 C 
ATOM     12  C   UNL     1      46.165 238.846 322.624  0.00  0.00    +0.000 C 
ATOM     13  C   UNL     1      46.628 239.779 324.925  0.00  0.00    +0.000 C 
ATOM     14  C   UNL     1      47.405 236.004 321.522  0.00  0.00    +0.000 C 
ATOM     15  C   UNL     1      48.101 234.940 322.319  0.00  0.00    +0.000 C 
ATOM     16  C   UNL     1      45.620 239.368 323.866  0.00  0.00    +0.000 C 
ATOM     17  C   UNL     1      48.636 240.194 323.943  0.00  0.00    +0.000 C 
ATOM     18  C   UNL     1      48.480 237.774 320.352  0.00  0.00    +0.000 C 
ATOM     19  C   UNL     1      45.404 239.075 321.318  0.00  0.00    +0.000 C 
ATOM     20  C   UNL     1      47.616 235.755 319.992  0.00  0.00    +0.000 C 
ATOM     21  C   UNL     1      48.292 236.945 319.381  0.00  0.00    +0.000 C 
ATOM     22  C   UNL     1      49.083 236.957 318.113  0.00  0.00    +0.000 C 
ENDROOT
BRANCH  13  23
ATOM     23  C   UNL     1      46.067 240.220 326.298  0.00  0.00    +0.000 C 
ATOM     24  C   UNL     1      45.465 241.596 326.576  0.00  0.00    +0.000 C 
ATOM     25  C   UNL     1      46.304 239.555 327.447  0.00  0.00    +0.000 C 
ENDBRANCH  13  23
BRANCH  14  26
ATOM     26  O   UNL     1      46.040 235.993 321.883  0.00  0.00    +0.000 OA
ATOM     27  H   UNL     1      45.853 236.840 322.335  0.00  0.00    +0.000 HD
ENDBRANCH  14  26
BRANCH  15  28
ATOM     28  O   UNL     1      47.933 233.620 321.893  0.00  0.00    +0.000 OA
ATOM     29  H   UNL     1      48.539 233.336 321.176  0.00  0.00    +0.000 HD
ENDBRANCH  15  28
BRANCH  17  30
ATOM     30  C   UNL     1      49.672 241.211 323.796  0.00  0.00    +0.000 C 
ATOM     31  C   UNL     1      50.524 242.048 323.673  0.00  0.00    +0.000 C 
BRANCH  31  32
ATOM     32  C   UNL     1      51.610 243.116 323.514  0.00  0.00    +0.000 C 
ATOM     33  C   UNL     1      52.460 243.953 323.389  0.00  0.00    +0.000 C 
BRANCH  33  34
ATOM     34  C   UNL     1      53.546 245.022 323.227  0.00  0.00    +0.000 C 
ATOM     35  C   UNL     1      54.630 246.090 323.067  0.00  0.00    +0.000 C 
BRANCH  35  36
ATOM     36  C   UNL     1      55.717 247.158 322.905  0.00  0.00    +0.000 C 
ATOM     37  C   UNL     1      56.804 248.225 322.742  0.00  0.00    +0.000 C 
ATOM     38  C   UNL     1      57.890 249.293 322.578  0.00  0.00    +0.000 C 
ENDBRANCH  35  36
ENDBRANCH  33  34
ENDBRANCH  31  32
ENDBRANCH  17  30
BRANCH  16  39
ATOM     39  O   UNL     1      44.225 239.494 323.975  0.00  0.00    +0.000 OA
BRANCH  39  41
ATOM     40  O   UNL     1      43.175 239.194 325.997  0.00  0.00    +0.000 OA
ATOM     41  C   UNL     1      43.670 238.749 324.975  0.00  0.00    +0.000 C 
BRANCH  41  42
ATOM     42  C   UNL     1      43.790 237.312 324.669  0.00  0.00    +0.000 A 
ATOM     43  C   UNL     1      44.672 236.488 325.367  0.00  0.00    +0.000 A 
ATOM     44  C   UNL     1      42.991 236.784 323.655  0.00  0.00    +0.000 A 
ATOM     45  C   UNL     1      44.755 235.134 325.050  0.00  0.00    +0.000 A 
ATOM     46  C   UNL     1      43.076 235.430 323.341  0.00  0.00    +0.000 A 
ATOM     47  C   UNL     1      43.958 234.607 324.038  0.00  0.00    +0.000 A 
ENDBRANCH  41  42
ENDBRANCH  39  41
ENDBRANCH  16  39
BRANCH   9  48
ATOM     48  C   UNL     1      49.309 234.040 324.338  0.00  0.00    +0.000 C 
BRANCH  48  49
ATOM     49  O   UNL     1      49.785 232.984 324.992  0.00  0.00    +0.000 OA
ATOM     50  H   UNL     1      50.117 232.317 324.366  0.00  0.00    +0.000 HD
ENDBRANCH  48  49
ENDBRANCH   9  48
TORSDOF 12
ENDMDL
MODEL 5
REMARK VINA RESULT:      -5.3     15.147     19.366
REMARK  Name = 5358691_Yuanhuacine.pdbqt.pdb
REMARK  12 active torsions:
REMARK  status: ('A' for Active; 'I' for Inactive)
REMARK    1  A    between atoms: C_9  and  C_48
REMARK    2  A    between atoms: C_13  and  C_23
REMARK    3  A    between atoms: C_14  and  O_26
REMARK    4  A    between atoms: C_15  and  O_28
REMARK    5  A    between atoms: C_16  and  O_39
REMARK    6  A    between atoms: C_17  and  C_30
REMARK    7  A    between atoms: C_31  and  C_32
REMARK    8  A    between atoms: C_33  and  C_34
REMARK    9  A    between atoms: C_35  and  C_36
REMARK   10  A    between atoms: O_39  and  C_41
REMARK   11  A    between atoms: C_41  and  C_42
REMARK   12  A    between atoms: C_48  and  O_49
REMARK                            x       y       z     vdW  Elec       q    Type
REMARK                         _______ _______ _______ _____ _____    ______ ____
ROOT
ATOM      1  O   UNL     1      65.179 223.758 354.715  0.00  0.00    +0.000 OA
ATOM      2  O   UNL     1      63.120 226.585 354.562  0.00  0.00    +0.000 OA
ATOM      3  O   UNL     1      63.381 225.499 352.467  0.00  0.00    +0.000 OA
ATOM      4  O   UNL     1      62.939 227.749 352.502  0.00  0.00    +0.000 OA
ATOM      5  O   UNL     1      67.051 226.179 358.928  0.00  0.00    +0.000 OA
ATOM      6  C   UNL     1      65.269 225.864 353.685  0.00  0.00    +0.000 C 
ATOM      7  C   UNL     1      64.562 226.736 354.733  0.00  0.00    +0.000 C 
ATOM      8  C   UNL     1      65.914 224.603 353.923  0.00  0.00    +0.000 C 
ATOM      9  C   UNL     1      66.553 223.957 355.071  0.00  0.00    +0.000 C 
ATOM     10  C   UNL     1      64.611 226.152 352.405  0.00  0.00    +0.000 C 
ATOM     11  C   UNL     1      64.887 226.313 356.133  0.00  0.00    +0.000 C 
ATOM     12  C   UNL     1      64.938 228.226 354.473  0.00  0.00    +0.000 C 
ATOM     13  C   UNL     1      64.331 227.642 352.091  0.00  0.00    +0.000 C 
ATOM     14  C   UNL     1      66.317 226.107 356.579  0.00  0.00    +0.000 C 
ATOM     15  C   UNL     1      66.914 224.766 356.267  0.00  0.00    +0.000 C 
ATOM     16  C   UNL     1      65.049 228.562 353.063  0.00  0.00    +0.000 C 
ATOM     17  C   UNL     1      62.680 226.523 353.183  0.00  0.00    +0.000 C 
ATOM     18  C   UNL     1      64.077 226.487 357.284  0.00  0.00    +0.000 C 
ATOM     19  C   UNL     1      64.959 229.347 355.513  0.00  0.00    +0.000 C 
ATOM     20  C   UNL     1      66.127 226.265 358.124  0.00  0.00    +0.000 C 
ATOM     21  C   UNL     1      64.678 226.507 358.427  0.00  0.00    +0.000 C 
ATOM     22  C   UNL     1      63.995 226.252 359.730  0.00  0.00    +0.000 C 
ENDROOT
BRANCH  13  23
ATOM     23  C   UNL     1      64.540 227.911 350.582  0.00  0.00    +0.000 C 
ATOM     24  C   UNL     1      65.722 227.380 349.773  0.00  0.00    +0.000 C 
ATOM     25  C   UNL     1      63.871 228.860 349.895  0.00  0.00    +0.000 C 
ENDBRANCH  13  23
BRANCH  14  26
ATOM     26  O   UNL     1      67.168 227.097 356.040  0.00  0.00    +0.000 OA
ATOM     27  H   UNL     1      67.894 226.635 355.576  0.00  0.00    +0.000 HD
ENDBRANCH  14  26
BRANCH  15  28
ATOM     28  O   UNL     1      67.994 224.358 357.054  0.00  0.00    +0.000 OA
ATOM     29  H   UNL     1      67.752 223.996 357.933  0.00  0.00    +0.000 HD
ENDBRANCH  15  28
BRANCH  17  30
ATOM     30  C   UNL     1      61.247 226.248 353.158  0.00  0.00    +0.000 C 
ATOM     31  C   UNL     1      60.068 226.022 353.140  0.00  0.00    +0.000 C 
BRANCH  31  32
ATOM     32  C   UNL     1      58.565 225.734 353.117  0.00  0.00    +0.000 C 
ATOM     33  C   UNL     1      57.386 225.508 353.099  0.00  0.00    +0.000 C 
BRANCH  33  34
ATOM     34  C   UNL     1      55.882 225.219 353.074  0.00  0.00    +0.000 C 
ATOM     35  C   UNL     1      54.379 224.929 353.047  0.00  0.00    +0.000 C 
BRANCH  35  36
ATOM     36  C   UNL     1      52.875 224.638 353.021  0.00  0.00    +0.000 C 
ATOM     37  C   UNL     1      51.372 224.346 352.993  0.00  0.00    +0.000 C 
ATOM     38  C   UNL     1      49.868 224.053 352.965  0.00  0.00    +0.000 C 
ENDBRANCH  35  36
ENDBRANCH  33  34
ENDBRANCH  31  32
ENDBRANCH  17  30
BRANCH  16  39
ATOM     39  O   UNL     1      65.763 229.721 352.713  0.00  0.00    +0.000 OA
BRANCH  39  41
ATOM     40  O   UNL     1      67.735 228.736 353.362  0.00  0.00    +0.000 OA
ATOM     41  C   UNL     1      67.120 229.568 352.716  0.00  0.00    +0.000 C 
BRANCH  41  42
ATOM     42  C   UNL     1      67.752 230.585 351.857  0.00  0.00    +0.000 A 
ATOM     43  C   UNL     1      68.847 231.330 352.293  0.00  0.00    +0.000 A 
ATOM     44  C   UNL     1      67.228 230.790 350.582  0.00  0.00    +0.000 A 
ATOM     45  C   UNL     1      69.418 232.281 351.451  0.00  0.00    +0.000 A 
ATOM     46  C   UNL     1      67.801 231.741 349.742  0.00  0.00    +0.000 A 
ATOM     47  C   UNL     1      68.895 232.486 350.177  0.00  0.00    +0.000 A 
ENDBRANCH  41  42
ENDBRANCH  39  41
ENDBRANCH  16  39
BRANCH   9  48
ATOM     48  C   UNL     1      67.304 222.731 354.834  0.00  0.00    +0.000 C 
BRANCH  48  49
ATOM     49  O   UNL     1      67.994 221.616 354.617  0.00  0.00    +0.000 OA
ATOM     50  H   UNL     1      67.516 221.035 354.000  0.00  0.00    +0.000 HD
ENDBRANCH  48  49
ENDBRANCH   9  48
TORSDOF 12
ENDMDL
MODEL 6
REMARK VINA RESULT:      -5.2      4.319     11.164
REMARK  Name = 5358691_Yuanhuacine.pdbqt.pdb
REMARK  12 active torsions:
REMARK  status: ('A' for Active; 'I' for Inactive)
REMARK    1  A    between atoms: C_9  and  C_48
REMARK    2  A    between atoms: C_13  and  C_23
REMARK    3  A    between atoms: C_14  and  O_26
REMARK    4  A    between atoms: C_15  and  O_28
REMARK    5  A    between atoms: C_16  and  O_39
REMARK    6  A    between atoms: C_17  and  C_30
REMARK    7  A    between atoms: C_31  and  C_32
REMARK    8  A    between atoms: C_33  and  C_34
REMARK    9  A    between atoms: C_35  and  C_36
REMARK   10  A    between atoms: O_39  and  C_41
REMARK   11  A    between atoms: C_41  and  C_42
REMARK   12  A    between atoms: C_48  and  O_49
REMARK                            x       y       z     vdW  Elec       q    Type
REMARK                         _______ _______ _______ _____ _____    ______ ____
ROOT
ATOM      1  O   UNL     1      69.802 216.314 335.135  0.00  0.00    +0.000 OA
ATOM      2  O   UNL     1      67.373 218.738 335.830  0.00  0.00    +0.000 OA
ATOM      3  O   UNL     1      69.265 219.605 334.690  0.00  0.00    +0.000 OA
ATOM      4  O   UNL     1      68.055 221.000 336.048  0.00  0.00    +0.000 OA
ATOM      5  O   UNL     1      67.541 213.868 339.138  0.00  0.00    +0.000 OA
ATOM      6  C   UNL     1      69.665 218.240 336.467  0.00  0.00    +0.000 C 
ATOM      7  C   UNL     1      68.195 218.193 336.907  0.00  0.00    +0.000 C 
ATOM      8  C   UNL     1      70.457 217.128 336.024  0.00  0.00    +0.000 C 
ATOM      9  C   UNL     1      70.444 215.681 336.250  0.00  0.00    +0.000 C 
ATOM     10  C   UNL     1      69.888 219.591 335.937  0.00  0.00    +0.000 C 
ATOM     11  C   UNL     1      67.724 216.792 337.155  0.00  0.00    +0.000 C 
ATOM     12  C   UNL     1      68.023 219.096 338.165  0.00  0.00    +0.000 C 
ATOM     13  C   UNL     1      69.301 220.763 336.762  0.00  0.00    +0.000 C 
ATOM     14  C   UNL     1      68.510 215.844 338.033  0.00  0.00    +0.000 C 
ATOM     15  C   UNL     1      69.638 215.115 337.364  0.00  0.00    +0.000 C 
ATOM     16  C   UNL     1      68.833 220.303 338.131  0.00  0.00    +0.000 C 
ATOM     17  C   UNL     1      67.943 219.889 335.161  0.00  0.00    +0.000 C 
ATOM     18  C   UNL     1      66.395 216.309 337.048  0.00  0.00    +0.000 C 
ATOM     19  C   UNL     1      66.957 218.940 339.250  0.00  0.00    +0.000 C 
ATOM     20  C   UNL     1      67.368 214.842 338.409  0.00  0.00    +0.000 C 
ATOM     21  C   UNL     1      66.097 215.255 337.730  0.00  0.00    +0.000 C 
ATOM     22  C   UNL     1      64.930 214.372 337.430  0.00  0.00    +0.000 C 
ENDROOT
BRANCH  13  23
ATOM     23  C   UNL     1      70.264 221.972 336.716  0.00  0.00    +0.000 C 
ATOM     24  C   UNL     1      69.859 223.404 337.062  0.00  0.00    +0.000 C 
ATOM     25  C   UNL     1      71.466 221.945 336.103  0.00  0.00    +0.000 C 
ENDBRANCH  13  23
BRANCH  14  26
ATOM     26  O   UNL     1      69.032 216.509 339.164  0.00  0.00    +0.000 OA
ATOM     27  H   UNL     1      70.006 216.493 339.086  0.00  0.00    +0.000 HD
ENDBRANCH  14  26
BRANCH  15  28
ATOM     28  O   UNL     1      70.054 213.919 337.956  0.00  0.00    +0.000 OA
ATOM     29  H   UNL     1      70.639 214.024 338.736  0.00  0.00    +0.000 HD
ENDBRANCH  15  28
BRANCH  17  30
ATOM     30  C   UNL     1      67.087 220.252 334.036  0.00  0.00    +0.000 C 
ATOM     31  C   UNL     1      66.381 220.549 333.112  0.00  0.00    +0.000 C 
BRANCH  31  32
ATOM     32  C   UNL     1      65.480 220.928 331.934  0.00  0.00    +0.000 C 
ATOM     33  C   UNL     1      64.774 221.227 331.010  0.00  0.00    +0.000 C 
BRANCH  33  34
ATOM     34  C   UNL     1      63.873 221.610 329.831  0.00  0.00    +0.000 C 
ATOM     35  C   UNL     1      62.974 221.993 328.654  0.00  0.00    +0.000 C 
BRANCH  35  36
ATOM     36  C   UNL     1      62.074 222.378 327.474  0.00  0.00    +0.000 C 
ATOM     37  C   UNL     1      61.174 222.761 326.296  0.00  0.00    +0.000 C 
ATOM     38  C   UNL     1      60.273 223.144 325.117  0.00  0.00    +0.000 C 
ENDBRANCH  35  36
ENDBRANCH  33  34
ENDBRANCH  31  32
ENDBRANCH  17  30
BRANCH  16  39
ATOM     39  O   UNL     1      69.078 220.969 339.343  0.00  0.00    +0.000 OA
BRANCH  39  41
ATOM     40  O   UNL     1      70.012 219.466 340.809  0.00  0.00    +0.000 OA
ATOM     41  C   UNL     1      70.099 220.439 340.079  0.00  0.00    +0.000 C 
BRANCH  41  42
ATOM     42  C   UNL     1      71.325 221.238 339.905  0.00  0.00    +0.000 A 
ATOM     43  C   UNL     1      71.365 222.594 340.225  0.00  0.00    +0.000 A 
ATOM     44  C   UNL     1      72.462 220.602 339.407  0.00  0.00    +0.000 A 
ATOM     45  C   UNL     1      72.543 223.315 340.047  0.00  0.00    +0.000 A 
ATOM     46  C   UNL     1      73.639 221.324 339.231  0.00  0.00    +0.000 A 
ATOM     47  C   UNL     1      73.679 222.680 339.551  0.00  0.00    +0.000 A 
ENDBRANCH  41  42
ENDBRANCH  39  41
ENDBRANCH  16  39
BRANCH   9  48
ATOM     48  C   UNL     1      71.586 214.907 335.782  0.00  0.00    +0.000 C 
BRANCH  48  49
ATOM     49  O   UNL     1      72.633 214.204 335.357  0.00  0.00    +0.000 OA
ATOM     50  H   UNL     1      72.516 213.261 335.564  0.00  0.00    +0.000 HD
ENDBRANCH  48  49
ENDBRANCH   9  48
TORSDOF 12
ENDMDL
MODEL 7
REMARK VINA RESULT:      -5.0     17.345     23.096
REMARK  Name = 5358691_Yuanhuacine.pdbqt.pdb
REMARK  12 active torsions:
REMARK  status: ('A' for Active; 'I' for Inactive)
REMARK    1  A    between atoms: C_9  and  C_48
REMARK    2  A    between atoms: C_13  and  C_23
REMARK    3  A    between atoms: C_14  and  O_26
REMARK    4  A    between atoms: C_15  and  O_28
REMARK    5  A    between atoms: C_16  and  O_39
REMARK    6  A    between atoms: C_17  and  C_30
REMARK    7  A    between atoms: C_31  and  C_32
REMARK    8  A    between atoms: C_33  and  C_34
REMARK    9  A    between atoms: C_35  and  C_36
REMARK   10  A    between atoms: O_39  and  C_41
REMARK   11  A    between atoms: C_41  and  C_42
REMARK   12  A    between atoms: C_48  and  O_49
REMARK                            x       y       z     vdW  Elec       q    Type
REMARK                         _______ _______ _______ _____ _____    ______ ____
ROOT
ATOM      1  O   UNL     1      57.133 234.166 355.106  0.00  0.00    +0.000 OA
ATOM      2  O   UNL     1      59.366 231.551 355.763  0.00  0.00    +0.000 OA
ATOM      3  O   UNL     1      60.443 233.571 355.137  0.00  0.00    +0.000 OA
ATOM      4  O   UNL     1      61.490 231.577 354.705  0.00  0.00    +0.000 OA
ATOM      5  O   UNL     1      53.831 230.232 354.242  0.00  0.00    +0.000 OA
ATOM      6  C   UNL     1      58.676 232.906 353.867  0.00  0.00    +0.000 C 
ATOM      7  C   UNL     1      58.555 231.535 354.549  0.00  0.00    +0.000 C 
ATOM      8  C   UNL     1      57.688 233.948 353.870  0.00  0.00    +0.000 C 
ATOM      9  C   UNL     1      56.232 234.006 354.002  0.00  0.00    +0.000 C 
ATOM     10  C   UNL     1      60.111 233.217 353.831  0.00  0.00    +0.000 C 
ATOM     11  C   UNL     1      57.147 231.232 354.962  0.00  0.00    +0.000 C 
ATOM     12  C   UNL     1      59.125 230.450 353.586  0.00  0.00    +0.000 C 
ATOM     13  C   UNL     1      61.057 232.068 353.405  0.00  0.00    +0.000 C 
ATOM     14  C   UNL     1      55.995 231.380 353.993  0.00  0.00    +0.000 C 
ATOM     15  C   UNL     1      55.427 232.762 353.858  0.00  0.00    +0.000 C 
ATOM     16  C   UNL     1      60.286 230.893 352.831  0.00  0.00    +0.000 C 
ATOM     17  C   UNL     1      60.633 232.240 355.632  0.00  0.00    +0.000 C 
ATOM     18  C   UNL     1      56.735 230.389 356.026  0.00  0.00    +0.000 C 
ATOM     19  C   UNL     1      58.732 228.973 353.557  0.00  0.00    +0.000 C 
ATOM     20  C   UNL     1      54.957 230.438 354.688  0.00  0.00    +0.000 C 
ATOM     21  C   UNL     1      55.553 229.878 355.945  0.00  0.00    +0.000 C 
ATOM     22  C   UNL     1      54.797 229.341 357.116  0.00  0.00    +0.000 C 
ENDROOT
BRANCH  13  23
ATOM     23  C   UNL     1      62.219 232.632 352.553  0.00  0.00    +0.000 C 
ATOM     24  C   UNL     1      63.695 232.509 352.929  0.00  0.00    +0.000 C 
ATOM     25  C   UNL     1      62.046 233.524 351.556  0.00  0.00    +0.000 C 
ENDBRANCH  13  23
BRANCH  14  26
ATOM     26  O   UNL     1      56.351 230.928 352.704  0.00  0.00    +0.000 OA
ATOM     27  H   UNL     1      57.237 230.521 352.774  0.00  0.00    +0.000 HD
ENDBRANCH  14  26
BRANCH  15  28
ATOM     28  O   UNL     1      54.114 232.861 353.390  0.00  0.00    +0.000 OA
ATOM     29  H   UNL     1      54.021 233.254 352.496  0.00  0.00    +0.000 HD
ENDBRANCH  15  28
BRANCH  17  30
ATOM     30  C   UNL     1      61.280 232.288 356.940  0.00  0.00    +0.000 C 
ATOM     31  C   UNL     1      61.811 232.330 358.015  0.00  0.00    +0.000 C 
BRANCH  31  32
ATOM     32  C   UNL     1      62.488 232.384 359.387  0.00  0.00    +0.000 C 
ATOM     33  C   UNL     1      63.019 232.428 360.463  0.00  0.00    +0.000 C 
BRANCH  33  34
ATOM     34  C   UNL     1      63.697 232.486 361.836  0.00  0.00    +0.000 C 
ATOM     35  C   UNL     1      64.374 232.542 363.207  0.00  0.00    +0.000 C 
BRANCH  35  36
ATOM     36  C   UNL     1      65.054 232.598 364.580  0.00  0.00    +0.000 C 
ATOM     37  C   UNL     1      65.734 232.655 365.951  0.00  0.00    +0.000 C 
ATOM     38  C   UNL     1      66.415 232.712 367.322  0.00  0.00    +0.000 C 
ENDBRANCH  35  36
ENDBRANCH  33  34
ENDBRANCH  31  32
ENDBRANCH  17  30
BRANCH  16  39
ATOM     39  O   UNL     1      60.629 230.182 351.668  0.00  0.00    +0.000 OA
BRANCH  39  41
ATOM     40  O   UNL     1      62.138 228.793 352.706  0.00  0.00    +0.000 OA
ATOM     41  C   UNL     1      61.800 229.486 351.761  0.00  0.00    +0.000 C 
BRANCH  41  42
ATOM     42  C   UNL     1      62.632 229.724 350.567  0.00  0.00    +0.000 A 
ATOM     43  C   UNL     1      63.965 229.316 350.514  0.00  0.00    +0.000 A 
ATOM     44  C   UNL     1      62.053 230.372 349.477  0.00  0.00    +0.000 A 
ATOM     45  C   UNL     1      64.718 229.557 349.367  0.00  0.00    +0.000 A 
ATOM     46  C   UNL     1      62.808 230.611 348.332  0.00  0.00    +0.000 A 
ATOM     47  C   UNL     1      64.140 230.204 348.278  0.00  0.00    +0.000 A 
ENDBRANCH  41  42
ENDBRANCH  39  41
ENDBRANCH  16  39
BRANCH   9  48
ATOM     48  C   UNL     1      55.570 235.273 353.722  0.00  0.00    +0.000 C 
BRANCH  48  49
ATOM     49  O   UNL     1      54.968 236.430 353.460  0.00  0.00    +0.000 OA
ATOM     50  H   UNL     1      55.562 237.016 352.959  0.00  0.00    +0.000 HD
ENDBRANCH  48  49
ENDBRANCH   9  48
TORSDOF 12
ENDMDL
MODEL 8
REMARK VINA RESULT:      -5.0     16.334     21.638
REMARK  Name = 5358691_Yuanhuacine.pdbqt.pdb
REMARK  12 active torsions:
REMARK  status: ('A' for Active; 'I' for Inactive)
REMARK    1  A    between atoms: C_9  and  C_48
REMARK    2  A    between atoms: C_13  and  C_23
REMARK    3  A    between atoms: C_14  and  O_26
REMARK    4  A    between atoms: C_15  and  O_28
REMARK    5  A    between atoms: C_16  and  O_39
REMARK    6  A    between atoms: C_17  and  C_30
REMARK    7  A    between atoms: C_31  and  C_32
REMARK    8  A    between atoms: C_33  and  C_34
REMARK    9  A    between atoms: C_35  and  C_36
REMARK   10  A    between atoms: O_39  and  C_41
REMARK   11  A    between atoms: C_41  and  C_42
REMARK   12  A    between atoms: C_48  and  O_49
REMARK                            x       y       z     vdW  Elec       q    Type
REMARK                         _______ _______ _______ _____ _____    ______ ____
ROOT
ATOM      1  O   UNL     1      57.978 227.770 353.360  0.00  0.00    +0.000 OA
ATOM      2  O   UNL     1      60.266 230.180 354.461  0.00  0.00    +0.000 OA
ATOM      3  O   UNL     1      59.494 230.559 352.249  0.00  0.00    +0.000 OA
ATOM      4  O   UNL     1      61.569 231.331 352.846  0.00  0.00    +0.000 OA
ATOM      5  O   UNL     1      60.302 224.870 357.008  0.00  0.00    +0.000 OA
ATOM      6  C   UNL     1      60.146 228.441 352.767  0.00  0.00    +0.000 C 
ATOM      7  C   UNL     1      60.721 228.830 354.137  0.00  0.00    +0.000 C 
ATOM      8  C   UNL     1      59.047 227.549 352.529  0.00  0.00    +0.000 C 
ATOM      9  C   UNL     1      58.445 226.419 353.239  0.00  0.00    +0.000 C 
ATOM     10  C   UNL     1      60.412 229.578 351.877  0.00  0.00    +0.000 C 
ATOM     11  C   UNL     1      60.237 227.928 355.230  0.00  0.00    +0.000 C 
ATOM     12  C   UNL     1      62.276 228.843 354.038  0.00  0.00    +0.000 C 
ATOM     13  C   UNL     1      61.824 230.206 351.959  0.00  0.00    +0.000 C 
ATOM     14  C   UNL     1      60.314 226.423 355.097  0.00  0.00    +0.000 C 
ATOM     15  C   UNL     1      59.183 225.772 354.357  0.00  0.00    +0.000 C 
ATOM     16  C   UNL     1      62.775 229.339 352.765  0.00  0.00    +0.000 C 
ATOM     17  C   UNL     1      60.252 231.096 353.339  0.00  0.00    +0.000 C 
ATOM     18  C   UNL     1      60.101 228.252 356.605  0.00  0.00    +0.000 C 
ATOM     19  C   UNL     1      63.256 228.617 355.189  0.00  0.00    +0.000 C 
ATOM     20  C   UNL     1      60.262 226.032 356.611  0.00  0.00    +0.000 C 
ATOM     21  C   UNL     1      60.136 227.272 357.444  0.00  0.00    +0.000 C 
ATOM     22  C   UNL     1      59.597 227.350 358.835  0.00  0.00    +0.000 C 
ENDROOT
BRANCH  13  23
ATOM     23  C   UNL     1      62.290 230.640 350.550  0.00  0.00    +0.000 C 
ATOM     24  C   UNL     1      63.442 231.608 350.288  0.00  0.00    +0.000 C 
ATOM     25  C   UNL     1      61.563 230.441 349.431  0.00  0.00    +0.000 C 
ENDBRANCH  13  23
BRANCH  14  26
ATOM     26  O   UNL     1      61.522 226.026 354.483  0.00  0.00    +0.000 OA
ATOM     27  H   UNL     1      62.242 226.542 354.898  0.00  0.00    +0.000 HD
ENDBRANCH  14  26
BRANCH  15  28
ATOM     28  O   UNL     1      58.950 224.420 354.624  0.00  0.00    +0.000 OA
ATOM     29  H   UNL     1      58.055 224.099 354.382  0.00  0.00    +0.000 HD
ENDBRANCH  15  28
BRANCH  17  30
ATOM     30  C   UNL     1      59.664 232.360 353.772  0.00  0.00    +0.000 C 
ATOM     31  C   UNL     1      59.179 233.400 354.126  0.00  0.00    +0.000 C 
BRANCH  31  32
ATOM     32  C   UNL     1      58.559 234.725 354.577  0.00  0.00    +0.000 C 
ATOM     33  C   UNL     1      58.073 235.764 354.930  0.00  0.00    +0.000 C 
BRANCH  33  34
ATOM     34  C   UNL     1      57.451 237.090 355.378  0.00  0.00    +0.000 C 
ATOM     35  C   UNL     1      56.830 238.415 355.827  0.00  0.00    +0.000 C 
BRANCH  35  36
ATOM     36  C   UNL     1      56.210 239.742 356.277  0.00  0.00    +0.000 C 
ATOM     37  C   UNL     1      55.590 241.069 356.728  0.00  0.00    +0.000 C 
ATOM     38  C   UNL     1      54.972 242.396 357.179  0.00  0.00    +0.000 C 
ENDBRANCH  35  36
ENDBRANCH  33  34
ENDBRANCH  31  32
ENDBRANCH  17  30
BRANCH  16  39
ATOM     39  O   UNL     1      64.095 229.023 352.404  0.00  0.00    +0.000 OA
BRANCH  39  41
ATOM     40  O   UNL     1      63.975 227.977 350.361  0.00  0.00    +0.000 OA
ATOM     41  C   UNL     1      64.206 227.956 351.558  0.00  0.00    +0.000 C 
BRANCH  41  42
ATOM     42  C   UNL     1      64.606 226.750 352.305  0.00  0.00    +0.000 A 
ATOM     43  C   UNL     1      65.671 226.768 353.205  0.00  0.00    +0.000 A 
ATOM     44  C   UNL     1      63.886 225.575 352.094  0.00  0.00    +0.000 A 
ATOM     45  C   UNL     1      66.017 225.607 353.893  0.00  0.00    +0.000 A 
ATOM     46  C   UNL     1      64.234 224.416 352.783  0.00  0.00    +0.000 A 
ATOM     47  C   UNL     1      65.298 224.433 353.682  0.00  0.00    +0.000 A 
ENDBRANCH  41  42
ENDBRANCH  39  41
ENDBRANCH  16  39
BRANCH   9  48
ATOM     48  C   UNL     1      57.453 225.619 352.534  0.00  0.00    +0.000 C 
BRANCH  48  49
ATOM     49  O   UNL     1      56.542 224.893 351.891  0.00  0.00    +0.000 OA
ATOM     50  H   UNL     1      56.244 225.355 351.088  0.00  0.00    +0.000 HD
ENDBRANCH  48  49
ENDBRANCH   9  48
TORSDOF 12
ENDMDL
MODEL 9
REMARK VINA RESULT:      -5.0      4.408      5.553
REMARK  Name = 5358691_Yuanhuacine.pdbqt.pdb
REMARK  12 active torsions:
REMARK  status: ('A' for Active; 'I' for Inactive)
REMARK    1  A    between atoms: C_9  and  C_48
REMARK    2  A    between atoms: C_13  and  C_23
REMARK    3  A    between atoms: C_14  and  O_26
REMARK    4  A    between atoms: C_15  and  O_28
REMARK    5  A    between atoms: C_16  and  O_39
REMARK    6  A    between atoms: C_17  and  C_30
REMARK    7  A    between atoms: C_31  and  C_32
REMARK    8  A    between atoms: C_33  and  C_34
REMARK    9  A    between atoms: C_35  and  C_36
REMARK   10  A    between atoms: O_39  and  C_41
REMARK   11  A    between atoms: C_41  and  C_42
REMARK   12  A    between atoms: C_48  and  O_49
REMARK                            x       y       z     vdW  Elec       q    Type
REMARK                         _______ _______ _______ _____ _____    ______ ____
ROOT
ATOM      1  O   UNL     1      71.225 217.715 337.587  0.00  0.00    +0.000 OA
ATOM      2  O   UNL     1      67.812 218.427 337.915  0.00  0.00    +0.000 OA
ATOM      3  O   UNL     1      68.260 216.125 337.545  0.00  0.00    +0.000 OA
ATOM      4  O   UNL     1      66.245 216.985 336.867  0.00  0.00    +0.000 OA
ATOM      5  O   UNL     1      71.456 222.740 336.242  0.00  0.00    +0.000 OA
ATOM      6  C   UNL     1      69.334 217.616 336.202  0.00  0.00    +0.000 C 
ATOM      7  C   UNL     1      68.532 218.824 336.707  0.00  0.00    +0.000 C 
ATOM      8  C   UNL     1      70.750 217.419 336.334  0.00  0.00    +0.000 C 
ATOM      9  C   UNL     1      71.918 218.291 336.472  0.00  0.00    +0.000 C 
ATOM     10  C   UNL     1      68.404 216.480 336.204  0.00  0.00    +0.000 C 
ATOM     11  C   UNL     1      69.417 219.974 337.080  0.00  0.00    +0.000 C 
ATOM     12  C   UNL     1      67.491 219.220 335.618  0.00  0.00    +0.000 C 
ATOM     13  C   UNL     1      66.987 216.745 335.639  0.00  0.00    +0.000 C 
ATOM     14  C   UNL     1      70.486 220.479 336.138  0.00  0.00    +0.000 C 
ATOM     15  C   UNL     1      71.794 219.744 336.175  0.00  0.00    +0.000 C 
ATOM     16  C   UNL     1      66.912 218.082 334.923  0.00  0.00    +0.000 C 
ATOM     17  C   UNL     1      67.254 217.091 337.870  0.00  0.00    +0.000 C 
ATOM     18  C   UNL     1      69.139 220.989 338.031  0.00  0.00    +0.000 C 
ATOM     19  C   UNL     1      66.891 220.611 335.406  0.00  0.00    +0.000 C 
ATOM     20  C   UNL     1      70.666 221.925 336.710  0.00  0.00    +0.000 C 
ATOM     21  C   UNL     1      69.757 222.113 337.888  0.00  0.00    +0.000 C 
ATOM     22  C   UNL     1      69.928 223.113 338.983  0.00  0.00    +0.000 C 
ENDROOT
BRANCH  13  23
ATOM     23  C   UNL     1      66.490 215.502 334.864  0.00  0.00    +0.000 C 
ATOM     24  C   UNL     1      67.318 214.754 333.821  0.00  0.00    +0.000 C 
ATOM     25  C   UNL     1      65.196 215.125 334.814  0.00  0.00    +0.000 C 
ENDBRANCH  13  23
BRANCH  14  26
ATOM     26  O   UNL     1      70.028 220.485 334.802  0.00  0.00    +0.000 OA
ATOM     27  H   UNL     1      69.058 220.600 334.829  0.00  0.00    +0.000 HD
ENDBRANCH  14  26
BRANCH  15  28
ATOM     28  O   UNL     1      72.920 220.437 335.724  0.00  0.00    +0.000 OA
ATOM     29  H   UNL     1      73.593 220.627 336.412  0.00  0.00    +0.000 HD
ENDBRANCH  15  28
BRANCH  17  30
ATOM     30  C   UNL     1      66.675 216.779 339.173  0.00  0.00    +0.000 C 
ATOM     31  C   UNL     1      66.202 216.522 340.246  0.00  0.00    +0.000 C 
BRANCH  31  32
ATOM     32  C   UNL     1      65.599 216.195 341.615  0.00  0.00    +0.000 C 
ATOM     33  C   UNL     1      65.127 215.939 342.689  0.00  0.00    +0.000 C 
BRANCH  33  34
ATOM     34  C   UNL     1      64.528 215.611 344.060  0.00  0.00    +0.000 C 
ATOM     35  C   UNL     1      63.929 215.285 345.430  0.00  0.00    +0.000 C 
BRANCH  35  36
ATOM     36  C   UNL     1      63.327 214.959 346.801  0.00  0.00    +0.000 C 
ATOM     37  C   UNL     1      62.726 214.634 348.172  0.00  0.00    +0.000 C 
ATOM     38  C   UNL     1      62.123 214.309 349.542  0.00  0.00    +0.000 C 
ENDBRANCH  35  36
ENDBRANCH  33  34
ENDBRANCH  31  32
ENDBRANCH  17  30
BRANCH  16  39
ATOM     39  O   UNL     1      66.295 218.309 333.681  0.00  0.00    +0.000 OA
BRANCH  39  41
ATOM     40  O   UNL     1      68.192 217.837 332.472  0.00  0.00    +0.000 OA
ATOM     41  C   UNL     1      67.166 218.474 332.643  0.00  0.00    +0.000 C 
BRANCH  41  42
ATOM     42  C   UNL     1      66.718 219.573 331.768  0.00  0.00    +0.000 A 
ATOM     43  C   UNL     1      67.473 219.987 330.671  0.00  0.00    +0.000 A 
ATOM     44  C   UNL     1      65.506 220.197 332.061  0.00  0.00    +0.000 A 
ATOM     45  C   UNL     1      67.014 221.028 329.867  0.00  0.00    +0.000 A 
ATOM     46  C   UNL     1      65.049 221.236 331.255  0.00  0.00    +0.000 A 
ATOM     47  C   UNL     1      65.803 221.651 330.159  0.00  0.00    +0.000 A 
ENDBRANCH  41  42
ENDBRANCH  39  41
ENDBRANCH  16  39
BRANCH   9  48
ATOM     48  C   UNL     1      73.239 217.689 336.352  0.00  0.00    +0.000 C 
BRANCH  48  49
ATOM     49  O   UNL     1      74.442 217.133 336.245  0.00  0.00    +0.000 OA
ATOM     50  H   UNL     1      74.626 216.568 337.015  0.00  0.00    +0.000 HD
ENDBRANCH  48  49
ENDBRANCH   9  48
TORSDOF 12
ENDMDL
