MODEL 1
REMARK VINA RESULT:      -4.5      0.000      0.000
REMARK  Name = 5386_Tegafur.pdbqt.pdb
REMARK  1 active torsions:
REMARK  status: ('A' for Active; 'I' for Inactive)
REMARK    1  A    between atoms: N_4  and  C_12
REMARK                            x       y       z     vdW  Elec       q    Type
REMARK                         _______ _______ _______ _____ _____    ______ ____
ROOT
ATOM      1  F   UNL     1      58.742 225.047 326.520  0.00  0.00    +0.000 F 
ATOM      2  O   UNL     1      63.850 224.353 328.232  0.00  0.00    +0.000 OA
ATOM      3  O   UNL     1      59.429 223.142 328.495  0.00  0.00    +0.000 OA
ATOM      4  N   UNL     1      62.348 225.290 326.663  0.00  0.00    +0.000 N 
ATOM      5  N   UNL     1      61.646 223.721 328.264  0.00  0.00    +0.000 N 
ATOM      6  C   UNL     1      62.732 224.463 327.743  0.00  0.00    +0.000 C 
ATOM      7  C   UNL     1      61.051 225.263 326.295  0.00  0.00    +0.000 C 
ATOM      8  C   UNL     1      60.005 224.627 326.702  0.00  0.00    +0.000 C 
ATOM      9  C   UNL     1      60.297 223.759 327.888  0.00  0.00    +0.000 C 
ATOM     10  H   UNL     1      61.864 223.144 329.064  0.00  0.00    +0.000 HD
ENDROOT
BRANCH   4  12
ATOM     11  O   UNL     1      63.732 227.281 326.541  0.00  0.00    +0.000 OA
ATOM     12  C   UNL     1      63.209 226.106 325.988  0.00  0.00    +0.000 C 
ATOM     13  C   UNL     1      63.725 225.968 324.671  0.00  0.00    +0.000 C 
ATOM     14  C   UNL     1      64.686 226.989 324.060  0.00  0.00    +0.000 C 
ATOM     15  C   UNL     1      64.440 227.584 325.445  0.00  0.00    +0.000 C 
ENDBRANCH   4  12
TORSDOF 1
ENDMDL
MODEL 2
REMARK VINA RESULT:      -4.2     27.423     27.940
REMARK  Name = 5386_Tegafur.pdbqt.pdb
REMARK  1 active torsions:
REMARK  status: ('A' for Active; 'I' for Inactive)
REMARK    1  A    between atoms: N_4  and  C_12
REMARK                            x       y       z     vdW  Elec       q    Type
REMARK                         _______ _______ _______ _____ _____    ______ ____
ROOT
ATOM      1  F   UNL     1      52.575 239.902 346.694  0.00  0.00    +0.000 F 
ATOM      2  O   UNL     1      55.319 239.489 351.364  0.00  0.00    +0.000 OA
ATOM      3  O   UNL     1      51.836 238.079 348.726  0.00  0.00    +0.000 OA
ATOM      4  N   UNL     1      55.197 240.318 349.151  0.00  0.00    +0.000 N 
ATOM      5  N   UNL     1      53.648 238.755 349.975  0.00  0.00    +0.000 N 
ATOM      6  C   UNL     1      54.794 239.535 350.257  0.00  0.00    +0.000 C 
ATOM      7  C   UNL     1      54.460 240.221 348.026  0.00  0.00    +0.000 C 
ATOM      8  C   UNL     1      53.417 239.547 347.679  0.00  0.00    +0.000 C 
ATOM      9  C   UNL     1      52.876 238.721 348.807  0.00  0.00    +0.000 C 
ATOM     10  H   UNL     1      53.299 238.208 350.749  0.00  0.00    +0.000 HD
ENDROOT
BRANCH   4  12
ATOM     11  O   UNL     1      57.594 240.696 349.225  0.00  0.00    +0.000 OA
ATOM     12  C   UNL     1      56.273 241.157 349.166  0.00  0.00    +0.000 C 
ATOM     13  C   UNL     1      56.300 242.577 349.136  0.00  0.00    +0.000 C 
ATOM     14  C   UNL     1      57.608 243.370 349.167  0.00  0.00    +0.000 C 
ATOM     15  C   UNL     1      58.115 241.930 349.217  0.00  0.00    +0.000 C 
ENDBRANCH   4  12
TORSDOF 1
ENDMDL
MODEL 3
REMARK VINA RESULT:      -4.1     22.028     22.758
REMARK  Name = 5386_Tegafur.pdbqt.pdb
REMARK  1 active torsions:
REMARK  status: ('A' for Active; 'I' for Inactive)
REMARK    1  A    between atoms: N_4  and  C_12
REMARK                            x       y       z     vdW  Elec       q    Type
REMARK                         _______ _______ _______ _____ _____    ______ ____
ROOT
ATOM      1  F   UNL     1      52.603 248.358 330.028  0.00  0.00    +0.000 F 
ATOM      2  O   UNL     1      50.795 243.350 328.955  0.00  0.00    +0.000 OA
ATOM      3  O   UNL     1      50.455 247.189 331.449  0.00  0.00    +0.000 OA
ATOM      4  N   UNL     1      52.125 245.202 328.326  0.00  0.00    +0.000 N 
ATOM      5  N   UNL     1      50.605 245.319 330.114  0.00  0.00    +0.000 N 
ATOM      6  C   UNL     1      51.158 244.512 329.093  0.00  0.00    +0.000 C 
ATOM      7  C   UNL     1      52.380 246.483 328.664  0.00  0.00    +0.000 C 
ATOM      8  C   UNL     1      51.932 247.292 329.563  0.00  0.00    +0.000 C 
ATOM      9  C   UNL     1      50.935 246.634 330.468  0.00  0.00    +0.000 C 
ATOM     10  H   UNL     1      49.937 244.856 330.714  0.00  0.00    +0.000 HD
ENDROOT
BRANCH   4  12
ATOM     11  O   UNL     1      53.730 243.606 327.448  0.00  0.00    +0.000 OA
ATOM     12  C   UNL     1      52.806 244.645 327.283  0.00  0.00    +0.000 C 
ATOM     13  C   UNL     1      52.748 244.972 325.901  0.00  0.00    +0.000 C 
ATOM     14  C   UNL     1      53.594 244.244 324.855  0.00  0.00    +0.000 C 
ATOM     15  C   UNL     1      54.017 243.539 326.142  0.00  0.00    +0.000 C 
ENDBRANCH   4  12
TORSDOF 1
ENDMDL
MODEL 4
REMARK VINA RESULT:      -4.0     17.502     18.379
REMARK  Name = 5386_Tegafur.pdbqt.pdb
REMARK  1 active torsions:
REMARK  status: ('A' for Active; 'I' for Inactive)
REMARK    1  A    between atoms: N_4  and  C_12
REMARK                            x       y       z     vdW  Elec       q    Type
REMARK                         _______ _______ _______ _____ _____    ______ ____
ROOT
ATOM      1  F   UNL     1      68.044 240.516 337.190  0.00  0.00    +0.000 F 
ATOM      2  O   UNL     1      67.719 240.259 331.774  0.00  0.00    +0.000 OA
ATOM      3  O   UNL     1      69.750 238.867 335.649  0.00  0.00    +0.000 OA
ATOM      4  N   UNL     1      66.775 240.950 333.831  0.00  0.00    +0.000 N 
ATOM      5  N   UNL     1      68.643 239.527 333.741  0.00  0.00    +0.000 N 
ATOM      6  C   UNL     1      67.688 240.261 332.999  0.00  0.00    +0.000 C 
ATOM      7  C   UNL     1      66.936 240.820 335.163  0.00  0.00    +0.000 C 
ATOM      8  C   UNL     1      67.761 240.180 335.920  0.00  0.00    +0.000 C 
ATOM      9  C   UNL     1      68.810 239.458 335.130  0.00  0.00    +0.000 C 
ATOM     10  H   UNL     1      69.341 239.049 333.189  0.00  0.00    +0.000 HD
ENDROOT
BRANCH   4  12
ATOM     11  O   UNL     1      64.604 241.200 332.775  0.00  0.00    +0.000 OA
ATOM     12  C   UNL     1      65.759 241.731 333.360  0.00  0.00    +0.000 C 
ATOM     13  C   UNL     1      65.653 243.148 333.349  0.00  0.00    +0.000 C 
ATOM     14  C   UNL     1      64.435 243.870 332.771  0.00  0.00    +0.000 C 
ATOM     15  C   UNL     1      64.065 242.405 332.545  0.00  0.00    +0.000 C 
ENDBRANCH   4  12
TORSDOF 1
ENDMDL
MODEL 5
REMARK VINA RESULT:      -4.0     17.961     19.388
REMARK  Name = 5386_Tegafur.pdbqt.pdb
REMARK  1 active torsions:
REMARK  status: ('A' for Active; 'I' for Inactive)
REMARK    1  A    between atoms: N_4  and  C_12
REMARK                            x       y       z     vdW  Elec       q    Type
REMARK                         _______ _______ _______ _____ _____    ______ ____
ROOT
ATOM      1  F   UNL     1      67.278 245.669 330.769  0.00  0.00    +0.000 F 
ATOM      2  O   UNL     1      63.719 242.048 332.699  0.00  0.00    +0.000 OA
ATOM      3  O   UNL     1      64.503 245.855 330.256  0.00  0.00    +0.000 OA
ATOM      4  N   UNL     1      65.967 242.661 332.292  0.00  0.00    +0.000 N 
ATOM      5  N   UNL     1      64.169 243.894 331.415  0.00  0.00    +0.000 N 
ATOM      6  C   UNL     1      64.562 242.779 332.193  0.00  0.00    +0.000 C 
ATOM      7  C   UNL     1      66.711 243.593 331.660  0.00  0.00    +0.000 C 
ATOM      8  C   UNL     1      66.447 244.627 330.937  0.00  0.00    +0.000 C 
ATOM      9  C   UNL     1      64.974 244.873 330.816  0.00  0.00    +0.000 C 
ATOM     10  H   UNL     1      63.172 244.042 331.348  0.00  0.00    +0.000 HD
ENDROOT
BRANCH   4  12
ATOM     11  O   UNL     1      67.230 240.589 332.363  0.00  0.00    +0.000 OA
ATOM     12  C   UNL     1      66.599 241.672 332.988  0.00  0.00    +0.000 C 
ATOM     13  C   UNL     1      66.744 241.519 334.393  0.00  0.00    +0.000 C 
ATOM     14  C   UNL     1      67.485 240.333 335.013  0.00  0.00    +0.000 C 
ATOM     15  C   UNL     1      67.611 240.033 333.520  0.00  0.00    +0.000 C 
ENDBRANCH   4  12
TORSDOF 1
ENDMDL
MODEL 6
REMARK VINA RESULT:      -3.9     27.895     28.433
REMARK  Name = 5386_Tegafur.pdbqt.pdb
REMARK  1 active torsions:
REMARK  status: ('A' for Active; 'I' for Inactive)
REMARK    1  A    between atoms: N_4  and  C_12
REMARK                            x       y       z     vdW  Elec       q    Type
REMARK                         _______ _______ _______ _____ _____    ______ ____
ROOT
ATOM      1  F   UNL     1      56.350 242.251 352.259  0.00  0.00    +0.000 F 
ATOM      2  O   UNL     1      55.616 238.729 348.189  0.00  0.00    +0.000 OA
ATOM      3  O   UNL     1      56.598 239.456 352.615  0.00  0.00    +0.000 OA
ATOM      4  N   UNL     1      55.415 240.934 349.022  0.00  0.00    +0.000 N 
ATOM      5  N   UNL     1      56.014 239.136 350.411  0.00  0.00    +0.000 N 
ATOM      6  C   UNL     1      55.666 239.545 349.103  0.00  0.00    +0.000 C 
ATOM      7  C   UNL     1      55.542 241.650 350.158  0.00  0.00    +0.000 C 
ATOM      8  C   UNL     1      55.847 241.369 351.380  0.00  0.00    +0.000 C 
ATOM      9  C   UNL     1      56.186 239.921 351.559  0.00  0.00    +0.000 C 
ATOM     10  H   UNL     1      56.241 238.156 350.510  0.00  0.00    +0.000 HD
ENDROOT
BRANCH   4  12
ATOM     11  O   UNL     1      55.804 242.639 347.339  0.00  0.00    +0.000 OA
ATOM     12  C   UNL     1      55.063 241.577 347.871  0.00  0.00    +0.000 C 
ATOM     13  C   UNL     1      53.949 241.343 347.021  0.00  0.00    +0.000 C 
ATOM     14  C   UNL     1      53.697 242.171 345.760  0.00  0.00    +0.000 C 
ATOM     15  C   UNL     1      54.979 242.805 346.297  0.00  0.00    +0.000 C 
ENDBRANCH   4  12
TORSDOF 1
ENDMDL
MODEL 7
REMARK VINA RESULT:      -3.7     13.354     15.508
REMARK  Name = 5386_Tegafur.pdbqt.pdb
REMARK  1 active torsions:
REMARK  status: ('A' for Active; 'I' for Inactive)
REMARK    1  A    between atoms: N_4  and  C_12
REMARK                            x       y       z     vdW  Elec       q    Type
REMARK                         _______ _______ _______ _____ _____    ______ ____
ROOT
ATOM      1  F   UNL     1      56.641 214.500 339.828  0.00  0.00    +0.000 F 
ATOM      2  O   UNL     1      58.431 219.576 340.554  0.00  0.00    +0.000 OA
ATOM      3  O   UNL     1      57.872 215.339 342.232  0.00  0.00    +0.000 OA
ATOM      4  N   UNL     1      57.626 217.901 339.090  0.00  0.00    +0.000 N 
ATOM      5  N   UNL     1      58.211 217.424 341.316  0.00  0.00    +0.000 N 
ATOM      6  C   UNL     1      58.115 218.417 340.312  0.00  0.00    +0.000 C 
ATOM      7  C   UNL     1      57.326 216.586 339.052  0.00  0.00    +0.000 C 
ATOM      8  C   UNL     1      57.382 215.617 339.901  0.00  0.00    +0.000 C 
ATOM      9  C   UNL     1      57.839 216.075 341.253  0.00  0.00    +0.000 C 
ATOM     10  H   UNL     1      58.519 217.754 342.219  0.00  0.00    +0.000 HD
ENDROOT
BRANCH   4  12
ATOM     11  O   UNL     1      58.272 219.727 337.628  0.00  0.00    +0.000 OA
ATOM     12  C   UNL     1      57.440 218.654 337.968  0.00  0.00    +0.000 C 
ATOM     13  C   UNL     1      56.434 218.538 336.970  0.00  0.00    +0.000 C 
ATOM     14  C   UNL     1      56.367 219.480 335.767  0.00  0.00    +0.000 C 
ATOM     15  C   UNL     1      57.589 220.014 336.512  0.00  0.00    +0.000 C 
ENDBRANCH   4  12
TORSDOF 1
ENDMDL
MODEL 8
REMARK VINA RESULT:      -3.7     16.564     17.989
REMARK  Name = 5386_Tegafur.pdbqt.pdb
REMARK  1 active torsions:
REMARK  status: ('A' for Active; 'I' for Inactive)
REMARK    1  A    between atoms: N_4  and  C_12
REMARK                            x       y       z     vdW  Elec       q    Type
REMARK                         _______ _______ _______ _____ _____    ______ ____
ROOT
ATOM      1  F   UNL     1      67.429 241.357 334.824  0.00  0.00    +0.000 F 
ATOM      2  O   UNL     1      67.279 236.108 336.211  0.00  0.00    +0.000 OA
ATOM      3  O   UNL     1      68.211 239.301 333.046  0.00  0.00    +0.000 OA
ATOM      4  N   UNL     1      67.164 238.380 336.860  0.00  0.00    +0.000 N 
ATOM      5  N   UNL     1      67.814 237.743 334.694  0.00  0.00    +0.000 N 
ATOM      6  C   UNL     1      67.402 237.304 335.974  0.00  0.00    +0.000 C 
ATOM      7  C   UNL     1      67.352 239.626 336.381  0.00  0.00    +0.000 C 
ATOM      8  C   UNL     1      67.723 240.117 335.248  0.00  0.00    +0.000 C 
ATOM      9  C   UNL     1      67.948 239.053 334.216  0.00  0.00    +0.000 C 
ATOM     10  H   UNL     1      67.958 237.010 334.014  0.00  0.00    +0.000 HD
ENDROOT
BRANCH   4  12
ATOM     11  O   UNL     1      65.426 238.399 338.555  0.00  0.00    +0.000 OA
ATOM     12  C   UNL     1      66.756 238.223 338.153  0.00  0.00    +0.000 C 
ATOM     13  C   UNL     1      67.525 237.881 339.298  0.00  0.00    +0.000 C 
ATOM     14  C   UNL     1      66.902 237.753 340.690  0.00  0.00    +0.000 C 
ATOM     15  C   UNL     1      65.689 238.126 339.840  0.00  0.00    +0.000 C 
ENDBRANCH   4  12
TORSDOF 1
ENDMDL
MODEL 9
REMARK VINA RESULT:      -3.7     12.563     13.414
REMARK  Name = 5386_Tegafur.pdbqt.pdb
REMARK  1 active torsions:
REMARK  status: ('A' for Active; 'I' for Inactive)
REMARK    1  A    between atoms: N_4  and  C_12
REMARK                            x       y       z     vdW  Elec       q    Type
REMARK                         _______ _______ _______ _____ _____    ______ ____
ROOT
ATOM      1  F   UNL     1      61.907 216.033 334.299  0.00  0.00    +0.000 F 
ATOM      2  O   UNL     1      60.063 218.033 339.000  0.00  0.00    +0.000 OA
ATOM      3  O   UNL     1      63.545 216.254 336.594  0.00  0.00    +0.000 OA
ATOM      4  N   UNL     1      59.747 217.690 336.681  0.00  0.00    +0.000 N 
ATOM      5  N   UNL     1      61.795 217.224 337.734  0.00  0.00    +0.000 N 
ATOM      6  C   UNL     1      60.470 217.691 337.896  0.00  0.00    +0.000 C 
ATOM      7  C   UNL     1      60.394 217.257 335.579  0.00  0.00    +0.000 C 
ATOM      8  C   UNL     1      61.583 216.822 335.337  0.00  0.00    +0.000 C 
ATOM      9  C   UNL     1      62.417 216.732 336.579  0.00  0.00    +0.000 C 
ATOM     10  H   UNL     1      62.339 217.170 338.584  0.00  0.00    +0.000 HD
ENDROOT
BRANCH   4  12
ATOM     11  O   UNL     1      57.366 217.249 336.850  0.00  0.00    +0.000 OA
ATOM     12  C   UNL     1      58.448 218.093 336.569  0.00  0.00    +0.000 C 
ATOM     13  C   UNL     1      57.935 219.355 336.167  0.00  0.00    +0.000 C 
ATOM     14  C   UNL     1      56.433 219.638 336.090  0.00  0.00    +0.000 C 
ATOM     15  C   UNL     1      56.452 218.184 336.558  0.00  0.00    +0.000 C 
ENDBRANCH   4  12
TORSDOF 1
ENDMDL
