REMARK  Name = 5470187_Zerumbone.pdbqt.pdb
REMARK  0 active torsions:
REMARK  status: ('A' for Active; 'I' for Inactive)
REMARK                            x       y       z     vdW  Elec       q    Type
REMARK                         _______ _______ _______ _____ _____    ______ ____
ROOT
ATOM      1  O   UNL     1      -1.494  -3.517  -0.035  0.00  0.00    +0.000 OA
ATOM      2  C   UNL     1       2.401  -0.570  -0.172  0.00  0.00    +0.000 C 
ATOM      3  C   UNL     1       2.107   0.882  -0.122  0.00  0.00    +0.000 C 
ATOM      4  C   UNL     1       3.270  -0.977   1.042  0.00  0.00    +0.000 C 
ATOM      5  C   UNL     1       3.120  -0.908  -1.502  0.00  0.00    +0.000 C 
ATOM      6  C   UNL     1       1.079  -1.273  -0.116  0.00  0.00    +0.000 C 
ATOM      7  C   UNL     1       1.397   2.246  -0.052  0.00  0.00    +0.000 C 
ATOM      8  C   UNL     1       0.449   3.132   0.025  0.00  0.00    +0.000 C 
ATOM      9  C   UNL     1      -0.828   2.515   0.046  0.00  0.00    +0.000 C 
ATOM     10  C   UNL     1      -1.835   1.363   0.056  0.00  0.00    +0.000 C 
ATOM     11  C   UNL     1      -0.026  -1.756  -0.072  0.00  0.00    +0.000 C 
ATOM     12  C   UNL     1       0.675   4.419   0.747  0.00  0.00    +0.000 C 
ATOM     13  C   UNL     1      -2.362  -0.075   0.053  0.00  0.00    +0.000 C 
ATOM     14  C   UNL     1      -2.567  -1.360   0.042  0.00  0.00    +0.000 C 
ATOM     15  C   UNL     1      -1.386  -2.296  -0.021  0.00  0.00    +0.000 C 
ATOM     16  C   UNL     1      -4.002  -1.827   0.082  0.00  0.00    +0.000 C 
ENDROOT
TORSDOF 0
