MODEL 1
REMARK VINA RESULT:      -5.2      0.000      0.000
REMARK  Name = 5470187_Zerumbone.pdbqt.pdb
REMARK  0 active torsions:
REMARK  status: ('A' for Active; 'I' for Inactive)
REMARK                            x       y       z     vdW  Elec       q    Type
REMARK                         _______ _______ _______ _____ _____    ______ ____
ROOT
ATOM      1  O   UNL     1      57.011 216.777 332.235  0.00  0.00    +0.000 OA
ATOM      2  C   UNL     1      60.223 216.491 335.905  0.00  0.00    +0.000 C 
ATOM      3  C   UNL     1      59.916 217.326 337.091  0.00  0.00    +0.000 C 
ATOM      4  C   UNL     1      60.262 214.997 336.305  0.00  0.00    +0.000 C 
ATOM      5  C   UNL     1      61.577 216.934 335.296  0.00  0.00    +0.000 C 
ATOM      6  C   UNL     1      59.120 216.731 334.920  0.00  0.00    +0.000 C 
ATOM      7  C   UNL     1      59.256 218.301 338.083  0.00  0.00    +0.000 C 
ATOM      8  C   UNL     1      58.409 219.146 338.592  0.00  0.00    +0.000 C 
ATOM      9  C   UNL     1      57.361 219.432 337.681  0.00  0.00    +0.000 C 
ATOM     10  C   UNL     1      56.555 219.328 336.384  0.00  0.00    +0.000 C 
ATOM     11  C   UNL     1      58.196 216.985 334.186  0.00  0.00    +0.000 C 
ATOM     12  C   UNL     1      58.154 219.165 340.063  0.00  0.00    +0.000 C 
ATOM     13  C   UNL     1      56.159 218.860 334.981  0.00  0.00    +0.000 C 
ATOM     14  C   UNL     1      56.028 218.320 333.804  0.00  0.00    +0.000 C 
ATOM     15  C   UNL     1      57.061 217.329 333.328  0.00  0.00    +0.000 C 
ATOM     16  C   UNL     1      54.835 218.744 332.982  0.00  0.00    +0.000 C 
ENDROOT
TORSDOF 0
ENDMDL
MODEL 2
REMARK VINA RESULT:      -5.1     17.844     20.300
REMARK  Name = 5470187_Zerumbone.pdbqt.pdb
REMARK  0 active torsions:
REMARK  status: ('A' for Active; 'I' for Inactive)
REMARK                            x       y       z     vdW  Elec       q    Type
REMARK                         _______ _______ _______ _____ _____    ______ ____
ROOT
ATOM      1  O   UNL     1      76.238 222.129 346.289  0.00  0.00    +0.000 OA
ATOM      2  C   UNL     1      71.642 220.902 347.405  0.00  0.00    +0.000 C 
ATOM      3  C   UNL     1      70.905 221.877 348.243  0.00  0.00    +0.000 C 
ATOM      4  C   UNL     1      70.922 220.719 346.047  0.00  0.00    +0.000 C 
ATOM      5  C   UNL     1      71.752 219.552 348.156  0.00  0.00    +0.000 C 
ATOM      6  C   UNL     1      73.009 221.476 347.188  0.00  0.00    +0.000 C 
ATOM      7  C   UNL     1      70.511 223.103 349.087  0.00  0.00    +0.000 C 
ATOM      8  C   UNL     1      70.590 224.250 349.694  0.00  0.00    +0.000 C 
ATOM      9  C   UNL     1      71.881 224.820 349.546  0.00  0.00    +0.000 C 
ATOM     10  C   UNL     1      73.327 224.923 349.056  0.00  0.00    +0.000 C 
ATOM     11  C   UNL     1      74.085 222.009 347.068  0.00  0.00    +0.000 C 
ATOM     12  C   UNL     1      69.388 225.128 349.808  0.00  0.00    +0.000 C 
ATOM     13  C   UNL     1      74.620 224.543 348.330  0.00  0.00    +0.000 C 
ATOM     14  C   UNL     1      75.591 224.016 347.642  0.00  0.00    +0.000 C 
ATOM     15  C   UNL     1      75.376 222.691 346.955  0.00  0.00    +0.000 C 
ATOM     16  C   UNL     1      76.891 224.781 347.592  0.00  0.00    +0.000 C 
ENDROOT
TORSDOF 0
ENDMDL
MODEL 3
REMARK VINA RESULT:      -5.1     10.170     12.530
REMARK  Name = 5470187_Zerumbone.pdbqt.pdb
REMARK  0 active torsions:
REMARK  status: ('A' for Active; 'I' for Inactive)
REMARK                            x       y       z     vdW  Elec       q    Type
REMARK                         _______ _______ _______ _____ _____    ______ ____
ROOT
ATOM      1  O   UNL     1      66.830 219.093 336.719  0.00  0.00    +0.000 OA
ATOM      2  C   UNL     1      70.017 222.576 337.979  0.00  0.00    +0.000 C 
ATOM      3  C   UNL     1      70.678 222.393 339.293  0.00  0.00    +0.000 C 
ATOM      4  C   UNL     1      71.076 222.595 336.851  0.00  0.00    +0.000 C 
ATOM      5  C   UNL     1      69.199 223.891 337.989  0.00  0.00    +0.000 C 
ATOM      6  C   UNL     1      69.097 221.406 337.800  0.00  0.00    +0.000 C 
ATOM      7  C   UNL     1      71.121 221.849 340.663  0.00  0.00    +0.000 C 
ATOM      8  C   UNL     1      71.213 221.075 341.703  0.00  0.00    +0.000 C 
ATOM      9  C   UNL     1      70.333 219.967 341.597  0.00  0.00    +0.000 C 
ATOM     10  C   UNL     1      69.288 219.057 340.949  0.00  0.00    +0.000 C 
ATOM     11  C   UNL     1      68.381 220.437 337.741  0.00  0.00    +0.000 C 
ATOM     12  C   UNL     1      72.510 220.938 342.431  0.00  0.00    +0.000 C 
ATOM     13  C   UNL     1      68.299 218.535 339.903  0.00  0.00    +0.000 C 
ATOM     14  C   UNL     1      67.529 218.292 338.882  0.00  0.00    +0.000 C 
ATOM     15  C   UNL     1      67.526 219.249 337.716  0.00  0.00    +0.000 C 
ATOM     16  C   UNL     1      66.670 217.053 338.949  0.00  0.00    +0.000 C 
ENDROOT
TORSDOF 0
ENDMDL
MODEL 4
REMARK VINA RESULT:      -5.0      2.131      4.932
REMARK  Name = 5470187_Zerumbone.pdbqt.pdb
REMARK  0 active torsions:
REMARK  status: ('A' for Active; 'I' for Inactive)
REMARK                            x       y       z     vdW  Elec       q    Type
REMARK                         _______ _______ _______ _____ _____    ______ ____
ROOT
ATOM      1  O   UNL     1      58.620 216.155 329.705  0.00  0.00    +0.000 OA
ATOM      2  C   UNL     1      55.217 217.863 332.768  0.00  0.00    +0.000 C 
ATOM      3  C   UNL     1      55.717 218.330 334.083  0.00  0.00    +0.000 C 
ATOM      4  C   UNL     1      54.532 219.029 332.016  0.00  0.00    +0.000 C 
ATOM      5  C   UNL     1      54.231 216.687 332.976  0.00  0.00    +0.000 C 
ATOM      6  C   UNL     1      56.416 217.391 332.002  0.00  0.00    +0.000 C 
ATOM      7  C   UNL     1      56.612 218.696 335.281  0.00  0.00    +0.000 C 
ATOM      8  C   UNL     1      57.673 218.857 336.014  0.00  0.00    +0.000 C 
ATOM      9  C   UNL     1      58.834 218.392 335.343  0.00  0.00    +0.000 C 
ATOM     10  C   UNL     1      59.654 217.797 334.197  0.00  0.00    +0.000 C 
ATOM     11  C   UNL     1      57.432 217.030 331.461  0.00  0.00    +0.000 C 
ATOM     12  C   UNL     1      57.764 219.999 336.971  0.00  0.00    +0.000 C 
ATOM     13  C   UNL     1      59.965 217.198 332.822  0.00  0.00    +0.000 C 
ATOM     14  C   UNL     1      59.982 216.714 331.614  0.00  0.00    +0.000 C 
ATOM     15  C   UNL     1      58.689 216.600 330.846  0.00  0.00    +0.000 C 
ATOM     16  C   UNL     1      61.321 216.282 331.066  0.00  0.00    +0.000 C 
ENDROOT
TORSDOF 0
ENDMDL
MODEL 5
REMARK VINA RESULT:      -4.8      9.679     11.992
REMARK  Name = 5470187_Zerumbone.pdbqt.pdb
REMARK  0 active torsions:
REMARK  status: ('A' for Active; 'I' for Inactive)
REMARK                            x       y       z     vdW  Elec       q    Type
REMARK                         _______ _______ _______ _____ _____    ______ ____
ROOT
ATOM      1  O   UNL     1      70.281 223.748 337.006  0.00  0.00    +0.000 OA
ATOM      2  C   UNL     1      68.050 219.962 334.870  0.00  0.00    +0.000 C 
ATOM      3  C   UNL     1      67.757 218.809 335.755  0.00  0.00    +0.000 C 
ATOM      4  C   UNL     1      66.735 220.532 334.289  0.00  0.00    +0.000 C 
ATOM      5  C   UNL     1      69.006 219.514 333.736  0.00  0.00    +0.000 C 
ATOM      6  C   UNL     1      68.723 220.993 335.725  0.00  0.00    +0.000 C 
ATOM      7  C   UNL     1      67.639 217.867 336.967  0.00  0.00    +0.000 C 
ATOM      8  C   UNL     1      67.735 217.414 338.181  0.00  0.00    +0.000 C 
ATOM      9  C   UNL     1      68.398 218.342 339.023  0.00  0.00    +0.000 C 
ATOM     10  C   UNL     1      69.096 219.650 339.403  0.00  0.00    +0.000 C 
ATOM     11  C   UNL     1      69.261 221.762 336.482  0.00  0.00    +0.000 C 
ATOM     12  C   UNL     1      66.682 216.513 338.736  0.00  0.00    +0.000 C 
ATOM     13  C   UNL     1      69.682 221.056 339.243  0.00  0.00    +0.000 C 
ATOM     14  C   UNL     1      70.104 222.229 338.870  0.00  0.00    +0.000 C 
ATOM     15  C   UNL     1      69.913 222.661 337.437  0.00  0.00    +0.000 C 
ATOM     16  C   UNL     1      70.777 223.083 339.917  0.00  0.00    +0.000 C 
ENDROOT
TORSDOF 0
ENDMDL
MODEL 6
REMARK VINA RESULT:      -4.8     18.355     20.941
REMARK  Name = 5470187_Zerumbone.pdbqt.pdb
REMARK  0 active torsions:
REMARK  status: ('A' for Active; 'I' for Inactive)
REMARK                            x       y       z     vdW  Elec       q    Type
REMARK                         _______ _______ _______ _____ _____    ______ ____
ROOT
ATOM      1  O   UNL     1      67.084 233.588 349.424  0.00  0.00    +0.000 OA
ATOM      2  C   UNL     1      63.554 230.257 348.858  0.00  0.00    +0.000 C 
ATOM      3  C   UNL     1      63.823 228.930 349.461  0.00  0.00    +0.000 C 
ATOM      4  C   UNL     1      62.290 230.883 349.494  0.00  0.00    +0.000 C 
ATOM      5  C   UNL     1      63.381 230.105 347.326  0.00  0.00    +0.000 C 
ATOM      6  C   UNL     1      64.751 231.108 349.152  0.00  0.00    +0.000 C 
ATOM      7  C   UNL     1      64.470 227.746 350.201  0.00  0.00    +0.000 C 
ATOM      8  C   UNL     1      65.329 227.047 350.881  0.00  0.00    +0.000 C 
ATOM      9  C   UNL     1      66.499 227.800 351.155  0.00  0.00    +0.000 C 
ATOM     10  C   UNL     1      67.417 229.024 351.157  0.00  0.00    +0.000 C 
ATOM     11  C   UNL     1      65.755 231.719 349.428  0.00  0.00    +0.000 C 
ATOM     12  C   UNL     1      64.863 226.004 351.842  0.00  0.00    +0.000 C 
ATOM     13  C   UNL     1      67.892 230.456 350.888  0.00  0.00    +0.000 C 
ATOM     14  C   UNL     1      68.073 231.698 350.547  0.00  0.00    +0.000 C 
ATOM     15  C   UNL     1      66.991 232.419 349.782  0.00  0.00    +0.000 C 
ATOM     16  C   UNL     1      69.384 232.335 350.941  0.00  0.00    +0.000 C 
ENDROOT
TORSDOF 0
ENDMDL
MODEL 7
REMARK VINA RESULT:      -4.5     14.773     17.246
REMARK  Name = 5470187_Zerumbone.pdbqt.pdb
REMARK  0 active torsions:
REMARK  status: ('A' for Active; 'I' for Inactive)
REMARK                            x       y       z     vdW  Elec       q    Type
REMARK                         _______ _______ _______ _____ _____    ______ ____
ROOT
ATOM      1  O   UNL     1      76.318 222.351 343.497  0.00  0.00    +0.000 OA
ATOM      2  C   UNL     1      72.053 220.011 343.037  0.00  0.00    +0.000 C 
ATOM      3  C   UNL     1      71.169 220.499 341.952  0.00  0.00    +0.000 C 
ATOM      4  C   UNL     1      72.419 218.528 342.796  0.00  0.00    +0.000 C 
ATOM      5  C   UNL     1      71.343 220.188 344.403  0.00  0.00    +0.000 C 
ATOM      6  C   UNL     1      73.287 220.859 342.993  0.00  0.00    +0.000 C 
ATOM      7  C   UNL     1      70.577 221.279 340.764  0.00  0.00    +0.000 C 
ATOM      8  C   UNL     1      70.463 222.143 339.799  0.00  0.00    +0.000 C 
ATOM      9  C   UNL     1      71.596 222.994 339.738  0.00  0.00    +0.000 C 
ATOM     10  C   UNL     1      72.973 223.536 340.129  0.00  0.00    +0.000 C 
ATOM     11  C   UNL     1      74.242 221.591 342.889  0.00  0.00    +0.000 C 
ATOM     12  C   UNL     1      69.718 221.791 338.555  0.00  0.00    +0.000 C 
ATOM     13  C   UNL     1      74.299 223.658 340.884  0.00  0.00    +0.000 C 
ATOM     14  C   UNL     1      75.341 223.566 341.658  0.00  0.00    +0.000 C 
ATOM     15  C   UNL     1      75.375 222.503 342.728  0.00  0.00    +0.000 C 
ATOM     16  C   UNL     1      76.456 224.558 341.430  0.00  0.00    +0.000 C 
ENDROOT
TORSDOF 0
ENDMDL
MODEL 8
REMARK VINA RESULT:      -4.5      9.604     11.714
REMARK  Name = 5470187_Zerumbone.pdbqt.pdb
REMARK  0 active torsions:
REMARK  status: ('A' for Active; 'I' for Inactive)
REMARK                            x       y       z     vdW  Elec       q    Type
REMARK                         _______ _______ _______ _____ _____    ______ ____
ROOT
ATOM      1  O   UNL     1      61.863 220.450 330.149  0.00  0.00    +0.000 OA
ATOM      2  C   UNL     1      59.242 223.001 326.910  0.00  0.00    +0.000 C 
ATOM      3  C   UNL     1      59.946 224.138 326.270  0.00  0.00    +0.000 C 
ATOM      4  C   UNL     1      58.802 221.977 325.836  0.00  0.00    +0.000 C 
ATOM      5  C   UNL     1      58.019 223.528 327.701  0.00  0.00    +0.000 C 
ATOM      6  C   UNL     1      60.222 222.370 327.850  0.00  0.00    +0.000 C 
ATOM      7  C   UNL     1      60.999 225.182 325.856  0.00  0.00    +0.000 C 
ATOM      8  C   UNL     1      62.123 225.831 325.794  0.00  0.00    +0.000 C 
ATOM      9  C   UNL     1      63.077 225.290 326.694  0.00  0.00    +0.000 C 
ATOM     10  C   UNL     1      63.630 224.330 327.749  0.00  0.00    +0.000 C 
ATOM     11  C   UNL     1      61.072 221.928 328.585  0.00  0.00    +0.000 C 
ATOM     12  C   UNL     1      62.568 226.450 324.510  0.00  0.00    +0.000 C 
ATOM     13  C   UNL     1      63.672 223.158 328.734  0.00  0.00    +0.000 C 
ATOM     14  C   UNL     1      63.472 222.122 329.496  0.00  0.00    +0.000 C 
ATOM     15  C   UNL     1      62.132 221.430 329.464  0.00  0.00    +0.000 C 
ATOM     16  C   UNL     1      64.615 221.688 330.380  0.00  0.00    +0.000 C 
ENDROOT
TORSDOF 0
ENDMDL
MODEL 9
REMARK VINA RESULT:      -4.4     18.850     21.013
REMARK  Name = 5470187_Zerumbone.pdbqt.pdb
REMARK  0 active torsions:
REMARK  status: ('A' for Active; 'I' for Inactive)
REMARK                            x       y       z     vdW  Elec       q    Type
REMARK                         _______ _______ _______ _____ _____    ______ ____
ROOT
ATOM      1  O   UNL     1      62.080 230.934 353.262  0.00  0.00    +0.000 OA
ATOM      2  C   UNL     1      66.392 231.917 351.185  0.00  0.00    +0.000 C 
ATOM      3  C   UNL     1      66.492 231.601 349.740  0.00  0.00    +0.000 C 
ATOM      4  C   UNL     1      66.626 233.429 351.415  0.00  0.00    +0.000 C 
ATOM      5  C   UNL     1      67.424 231.072 351.973  0.00  0.00    +0.000 C 
ATOM      6  C   UNL     1      65.003 231.543 351.605  0.00  0.00    +0.000 C 
ATOM      7  C   UNL     1      66.190 231.149 348.300  0.00  0.00    +0.000 C 
ATOM      8  C   UNL     1      65.547 230.684 347.270  0.00  0.00    +0.000 C 
ATOM      9  C   UNL     1      64.234 230.283 347.626  0.00  0.00    +0.000 C 
ATOM     10  C   UNL     1      63.025 230.071 348.540  0.00  0.00    +0.000 C 
ATOM     11  C   UNL     1      63.871 231.210 351.857  0.00  0.00    +0.000 C 
ATOM     12  C   UNL     1      65.828 231.212 345.903  0.00  0.00    +0.000 C 
ATOM     13  C   UNL     1      62.176 230.090 349.815  0.00  0.00    +0.000 C 
ATOM     14  C   UNL     1      61.659 230.209 351.003  0.00  0.00    +0.000 C 
ATOM     15  C   UNL     1      62.492 230.789 352.117  0.00  0.00    +0.000 C 
ATOM     16  C   UNL     1      60.237 229.735 351.183  0.00  0.00    +0.000 C 
ENDROOT
TORSDOF 0
ENDMDL
