MODEL 1
REMARK VINA RESULT:      -4.9      0.000      0.000
REMARK  Name = 5azacytidine.pdbqt.pdb
REMARK  5 active torsions:
REMARK  status: ('A' for Active; 'I' for Inactive)
REMARK    1  A    between atoms: C2*_2  and  O2*_16
REMARK    2  A    between atoms: C3*_3  and  O3*_21
REMARK    3  A    between atoms: C4*_4  and  C5*_18
REMARK    4  A    between atoms: C1*_5  and  N_6
REMARK    5  A    between atoms: C5*_18  and  O5*_19
REMARK                            x       y       z     vdW  Elec       q    Type
REMARK                         _______ _______ _______ _____ _____    ______ ____
ROOT
ATOM      1  O4* UNL     1      53.608 241.508 347.908  0.00  0.00    +0.000 OA
ATOM      2  C2* UNL     1      54.827 240.292 349.443  0.00  0.00    +0.000 A 
ATOM      3  C3* UNL     1      55.728 241.132 348.714  0.00  0.00    +0.000 A 
ATOM      4  C4* UNL     1      54.954 241.888 347.772  0.00  0.00    +0.000 A 
ATOM      5  C1* UNL     1      53.505 240.521 348.912  0.00  0.00    +0.000 A 
ENDROOT
BRANCH   5   6
ATOM      6  N   UNL     1      52.312 239.931 349.203  0.00  0.00    +0.000 N 
ATOM      7  C   UNL     1      51.309 240.418 350.032  0.00  0.00    +0.000 A 
ATOM      8  O   UNL     1      51.397 241.473 350.657  0.00  0.00    +0.000 OA
ATOM      9  N   UNL     1      50.180 239.610 350.129  0.00  0.00    +0.000 NA
ATOM     10  C   UNL     1      50.113 238.479 349.472  0.00  0.00    +0.000 A 
ATOM     11  N   UNL     1      51.127 237.985 348.670  0.00  0.00    +0.000 NA
ATOM     12  C   UNL     1      52.003 238.754 348.662  0.00  0.00    +0.000 A 
ATOM     13  N   UNL     1      48.990 237.726 349.594  0.00  0.00    +0.000 N 
ATOM     14  H   UNL     1      49.129 236.738 349.428  0.00  0.00    +0.000 HD
ATOM     15  H   UNL     1      48.441 237.948 350.416  0.00  0.00    +0.000 HD
ENDBRANCH   5   6
BRANCH   2  16
ATOM     16  O2* UNL     1      55.272 239.106 349.958  0.00  0.00    +0.000 OA
ATOM     17  H2* UNL     1      54.827 238.883 350.805  0.00  0.00    +0.000 HD
ENDBRANCH   2  16
BRANCH   3  18
ATOM     18  O3* UNL     1      57.010 240.734 348.454  0.00  0.00    +0.000 OA
ATOM     19  H3* UNL     1      57.105 240.520 347.507  0.00  0.00    +0.000 HD
ENDBRANCH   3  18
BRANCH   4  20
ATOM     20  C5* UNL     1      55.422 242.628 346.670  0.00  0.00    +0.000 C 
BRANCH  20  21
ATOM     21  O5* UNL     1      55.873 243.329 345.634  0.00  0.00    +0.000 OA
ATOM     22  H5* UNL     1      56.474 242.782 345.098  0.00  0.00    +0.000 HD
ENDBRANCH  20  21
ENDBRANCH   4  20
TORSDOF 5
ENDMDL
MODEL 2
REMARK VINA RESULT:      -4.8     20.984     22.654
REMARK  Name = 5azacytidine.pdbqt.pdb
REMARK  5 active torsions:
REMARK  status: ('A' for Active; 'I' for Inactive)
REMARK    1  A    between atoms: C2*_2  and  O2*_16
REMARK    2  A    between atoms: C3*_3  and  O3*_21
REMARK    3  A    between atoms: C4*_4  and  C5*_18
REMARK    4  A    between atoms: C1*_5  and  N_6
REMARK    5  A    between atoms: C5*_18  and  O5*_19
REMARK                            x       y       z     vdW  Elec       q    Type
REMARK                         _______ _______ _______ _____ _____    ______ ____
ROOT
ATOM      1  O4* UNL     1      48.074 241.496 327.058  0.00  0.00    +0.000 OA
ATOM      2  C2* UNL     1      50.264 241.346 326.349  0.00  0.00    +0.000 A 
ATOM      3  C3* UNL     1      49.659 240.054 326.226  0.00  0.00    +0.000 A 
ATOM      4  C4* UNL     1      48.296 240.167 326.660  0.00  0.00    +0.000 A 
ATOM      5  C1* UNL     1      49.266 242.234 326.894  0.00  0.00    +0.000 A 
ENDROOT
BRANCH   5   6
ATOM      6  N   UNL     1      49.344 243.542 327.268  0.00  0.00    +0.000 N 
ATOM      7  C   UNL     1      49.650 244.043 328.527  0.00  0.00    +0.000 A 
ATOM      8  O   UNL     1      49.866 243.332 329.507  0.00  0.00    +0.000 OA
ATOM      9  N   UNL     1      49.681 245.432 328.618  0.00  0.00    +0.000 NA
ATOM     10  C   UNL     1      49.429 246.172 327.568  0.00  0.00    +0.000 A 
ATOM     11  N   UNL     1      49.095 245.668 326.323  0.00  0.00    +0.000 NA
ATOM     12  C   UNL     1      49.117 244.504 326.375  0.00  0.00    +0.000 A 
ATOM     13  N   UNL     1      49.474 247.522 327.703  0.00  0.00    +0.000 N 
ATOM     14  H   UNL     1      48.904 248.028 327.039  0.00  0.00    +0.000 HD
ATOM     15  H   UNL     1      49.391 247.836 328.663  0.00  0.00    +0.000 HD
ENDBRANCH   5   6
BRANCH   2  16
ATOM     16  O2* UNL     1      51.609 241.445 326.571  0.00  0.00    +0.000 OA
ATOM     17  H2* UNL     1      51.858 241.135 327.469  0.00  0.00    +0.000 HD
ENDBRANCH   2  16
BRANCH   3  18
ATOM     18  O3* UNL     1      50.391 238.912 326.403  0.00  0.00    +0.000 OA
ATOM     19  H3* UNL     1      49.991 238.181 325.895  0.00  0.00    +0.000 HD
ENDBRANCH   3  18
BRANCH   4  20
ATOM     20  C5* UNL     1      47.403 239.125 326.973  0.00  0.00    +0.000 C 
BRANCH  20  21
ATOM     21  O5* UNL     1      46.568 238.135 327.273  0.00  0.00    +0.000 OA
ATOM     22  H5* UNL     1      45.805 238.482 327.768  0.00  0.00    +0.000 HD
ENDBRANCH  20  21
ENDBRANCH   4  20
TORSDOF 5
ENDMDL
MODEL 3
REMARK VINA RESULT:      -4.7     25.338     26.627
REMARK  Name = 5azacytidine.pdbqt.pdb
REMARK  5 active torsions:
REMARK  status: ('A' for Active; 'I' for Inactive)
REMARK    1  A    between atoms: C2*_2  and  O2*_16
REMARK    2  A    between atoms: C3*_3  and  O3*_21
REMARK    3  A    between atoms: C4*_4  and  C5*_18
REMARK    4  A    between atoms: C1*_5  and  N_6
REMARK    5  A    between atoms: C5*_18  and  O5*_19
REMARK                            x       y       z     vdW  Elec       q    Type
REMARK                         _______ _______ _______ _____ _____    ______ ____
ROOT
ATOM      1  O4* UNL     1      46.799 234.427 323.246  0.00  0.00    +0.000 OA
ATOM      2  C2* UNL     1      48.835 233.495 323.801  0.00  0.00    +0.000 A 
ATOM      3  C3* UNL     1      47.898 232.435 323.580  0.00  0.00    +0.000 A 
ATOM      4  C4* UNL     1      46.642 233.030 323.225  0.00  0.00    +0.000 A 
ATOM      5  C1* UNL     1      48.127 234.738 323.611  0.00  0.00    +0.000 A 
ENDROOT
BRANCH   5   6
ATOM      6  N   UNL     1      48.532 236.029 323.769  0.00  0.00    +0.000 N 
ATOM      7  C   UNL     1      49.014 236.888 322.788  0.00  0.00    +0.000 A 
ATOM      8  O   UNL     1      49.171 236.559 321.614  0.00  0.00    +0.000 OA
ATOM      9  N   UNL     1      49.335 238.168 323.232  0.00  0.00    +0.000 NA
ATOM     10  C   UNL     1      49.180 238.493 324.491  0.00  0.00    +0.000 A 
ATOM     11  N   UNL     1      48.728 237.625 325.468  0.00  0.00    +0.000 NA
ATOM     12  C   UNL     1      48.483 236.599 324.971  0.00  0.00    +0.000 A 
ATOM     13  N   UNL     1      49.503 239.754 324.876  0.00  0.00    +0.000 N 
ATOM     14  H   UNL     1      49.757 239.842 325.851  0.00  0.00    +0.000 HD
ATOM     15  H   UNL     1      50.121 240.230 324.230  0.00  0.00    +0.000 HD
ENDBRANCH   5   6
BRANCH   2  16
ATOM     16  O2* UNL     1      49.876 233.309 324.668  0.00  0.00    +0.000 OA
ATOM     17  H2* UNL     1      49.647 232.683 325.389  0.00  0.00    +0.000 HD
ENDBRANCH   2  16
BRANCH   3  18
ATOM     18  O3* UNL     1      47.981 231.263 324.279  0.00  0.00    +0.000 OA
ATOM     19  H3* UNL     1      47.879 231.439 325.233  0.00  0.00    +0.000 HD
ENDBRANCH   3  18
BRANCH   4  20
ATOM     20  C5* UNL     1      45.377 232.413 323.186  0.00  0.00    +0.000 C 
BRANCH  20  21
ATOM     21  O5* UNL     1      44.179 231.838 323.143  0.00  0.00    +0.000 OA
ATOM     22  H5* UNL     1      43.941 231.500 324.024  0.00  0.00    +0.000 HD
ENDBRANCH  20  21
ENDBRANCH   4  20
TORSDOF 5
ENDMDL
MODEL 4
REMARK VINA RESULT:      -4.7     26.016     27.113
REMARK  Name = 5azacytidine.pdbqt.pdb
REMARK  5 active torsions:
REMARK  status: ('A' for Active; 'I' for Inactive)
REMARK    1  A    between atoms: C2*_2  and  O2*_16
REMARK    2  A    between atoms: C3*_3  and  O3*_21
REMARK    3  A    between atoms: C4*_4  and  C5*_18
REMARK    4  A    between atoms: C1*_5  and  N_6
REMARK    5  A    between atoms: C5*_18  and  O5*_19
REMARK                            x       y       z     vdW  Elec       q    Type
REMARK                         _______ _______ _______ _____ _____    ______ ____
ROOT
ATOM      1  O4* UNL     1      45.616 233.379 324.468  0.00  0.00    +0.000 OA
ATOM      2  C2* UNL     1      46.990 231.644 323.818  0.00  0.00    +0.000 A 
ATOM      3  C3* UNL     1      45.825 231.090 324.438  0.00  0.00    +0.000 A 
ATOM      4  C4* UNL     1      44.977 232.180 324.826  0.00  0.00    +0.000 A 
ATOM      5  C1* UNL     1      46.856 233.080 323.864  0.00  0.00    +0.000 A 
ENDROOT
BRANCH   5   6
ATOM      6  N   UNL     1      47.711 234.069 323.478  0.00  0.00    +0.000 N 
ATOM      7  C   UNL     1      49.030 234.247 323.877  0.00  0.00    +0.000 A 
ATOM      8  O   UNL     1      49.599 233.519 324.688  0.00  0.00    +0.000 OA
ATOM      9  N   UNL     1      49.677 235.338 323.303  0.00  0.00    +0.000 NA
ATOM     10  C   UNL     1      49.048 236.114 322.456  0.00  0.00    +0.000 A 
ATOM     11  N   UNL     1      47.725 235.949 322.086  0.00  0.00    +0.000 NA
ATOM     12  C   UNL     1      47.304 235.002 322.620  0.00  0.00    +0.000 A 
ATOM     13  N   UNL     1      49.721 237.163 321.919  0.00  0.00    +0.000 N 
ATOM     14  H   UNL     1      49.132 237.930 321.622  0.00  0.00    +0.000 HD
ATOM     15  H   UNL     1      50.540 237.435 322.450  0.00  0.00    +0.000 HD
ENDBRANCH   5   6
BRANCH   2  16
ATOM     16  O2* UNL     1      48.174 230.963 323.871  0.00  0.00    +0.000 OA
ATOM     17  H2* UNL     1      48.066 230.019 323.622  0.00  0.00    +0.000 HD
ENDBRANCH   2  16
BRANCH   3  18
ATOM     18  O3* UNL     1      45.891 229.925 325.151  0.00  0.00    +0.000 OA
ATOM     19  H3* UNL     1      46.230 229.208 324.584  0.00  0.00    +0.000 HD
ENDBRANCH   3  18
BRANCH   4  20
ATOM     20  C5* UNL     1      43.873 232.144 325.699  0.00  0.00    +0.000 C 
BRANCH  20  21
ATOM     21  O5* UNL     1      42.829 232.100 326.521  0.00  0.00    +0.000 OA
ATOM     22  H5* UNL     1      42.008 231.989 326.010  0.00  0.00    +0.000 HD
ENDBRANCH  20  21
ENDBRANCH   4  20
TORSDOF 5
ENDMDL
MODEL 5
REMARK VINA RESULT:      -4.6     27.808     28.927
REMARK  Name = 5azacytidine.pdbqt.pdb
REMARK  5 active torsions:
REMARK  status: ('A' for Active; 'I' for Inactive)
REMARK    1  A    between atoms: C2*_2  and  O2*_16
REMARK    2  A    between atoms: C3*_3  and  O3*_21
REMARK    3  A    between atoms: C4*_4  and  C5*_18
REMARK    4  A    between atoms: C1*_5  and  N_6
REMARK    5  A    between atoms: C5*_18  and  O5*_19
REMARK                            x       y       z     vdW  Elec       q    Type
REMARK                         _______ _______ _______ _____ _____    ______ ____
ROOT
ATOM      1  O4* UNL     1      62.450 221.870 328.311  0.00  0.00    +0.000 OA
ATOM      2  C2* UNL     1      63.802 223.265 329.553  0.00  0.00    +0.000 A 
ATOM      3  C3* UNL     1      63.622 222.046 330.281  0.00  0.00    +0.000 A 
ATOM      4  C4* UNL     1      62.789 221.185 329.490  0.00  0.00    +0.000 A 
ATOM      5  C1* UNL     1      63.043 223.150 328.332  0.00  0.00    +0.000 A 
ENDROOT
BRANCH   5   6
ATOM      6  N   UNL     1      62.821 224.048 327.331  0.00  0.00    +0.000 N 
ATOM      7  C   UNL     1      63.740 224.519 326.400  0.00  0.00    +0.000 A 
ATOM      8  O   UNL     1      64.924 224.190 326.389  0.00  0.00    +0.000 OA
ATOM      9  N   UNL     1      63.228 225.421 325.471  0.00  0.00    +0.000 NA
ATOM     10  C   UNL     1      61.968 225.774 325.512  0.00  0.00    +0.000 A 
ATOM     11  N   UNL     1      61.065 225.324 326.459  0.00  0.00    +0.000 NA
ATOM     12  C   UNL     1      61.609 224.572 327.164  0.00  0.00    +0.000 A 
ATOM     13  N   UNL     1      61.513 226.653 324.583  0.00  0.00    +0.000 N 
ATOM     14  H   UNL     1      60.708 227.190 324.875  0.00  0.00    +0.000 HD
ATOM     15  H   UNL     1      62.248 227.192 324.141  0.00  0.00    +0.000 HD
ENDBRANCH   5   6
BRANCH   2  16
ATOM     16  O2* UNL     1      64.028 224.431 330.231  0.00  0.00    +0.000 OA
ATOM     17  H2* UNL     1      64.629 224.300 330.997  0.00  0.00    +0.000 HD
ENDBRANCH   2  16
BRANCH   3  18
ATOM     18  O3* UNL     1      63.594 222.036 331.648  0.00  0.00    +0.000 OA
ATOM     19  H3* UNL     1      62.976 222.719 331.971  0.00  0.00    +0.000 HD
ENDBRANCH   3  18
BRANCH   4  20
ATOM     20  C5* UNL     1      62.125 220.014 329.902  0.00  0.00    +0.000 C 
BRANCH  20  21
ATOM     21  O5* UNL     1      61.506 218.903 330.288  0.00  0.00    +0.000 OA
ATOM     22  H5* UNL     1      61.482 218.264 329.555  0.00  0.00    +0.000 HD
ENDBRANCH  20  21
ENDBRANCH   4  20
TORSDOF 5
ENDMDL
MODEL 6
REMARK VINA RESULT:      -4.5     27.919     28.360
REMARK  Name = 5azacytidine.pdbqt.pdb
REMARK  5 active torsions:
REMARK  status: ('A' for Active; 'I' for Inactive)
REMARK    1  A    between atoms: C2*_2  and  O2*_16
REMARK    2  A    between atoms: C3*_3  and  O3*_21
REMARK    3  A    between atoms: C4*_4  and  C5*_18
REMARK    4  A    between atoms: C1*_5  and  N_6
REMARK    5  A    between atoms: C5*_18  and  O5*_19
REMARK                            x       y       z     vdW  Elec       q    Type
REMARK                         _______ _______ _______ _____ _____    ______ ____
ROOT
ATOM      1  O4* UNL     1      63.870 224.327 327.560  0.00  0.00    +0.000 OA
ATOM      2  C2* UNL     1      61.585 224.036 327.679  0.00  0.00    +0.000 A 
ATOM      3  C3* UNL     1      61.861 225.062 326.720  0.00  0.00    +0.000 A 
ATOM      4  C4* UNL     1      63.285 225.223 326.649  0.00  0.00    +0.000 A 
ATOM      5  C1* UNL     1      62.853 223.601 328.214  0.00  0.00    +0.000 A 
ENDROOT
BRANCH   5   6
ATOM      6  N   UNL     1      63.145 222.705 329.199  0.00  0.00    +0.000 N 
ATOM      7  C   UNL     1      62.424 221.569 329.548  0.00  0.00    +0.000 A 
ATOM      8  O   UNL     1      61.370 221.241 329.007  0.00  0.00    +0.000 OA
ATOM      9  N   UNL     1      62.971 220.819 330.585  0.00  0.00    +0.000 NA
ATOM     10  C   UNL     1      64.084 221.196 331.162  0.00  0.00    +0.000 A 
ATOM     11  N   UNL     1      64.783 222.344 330.830  0.00  0.00    +0.000 NA
ATOM     12  C   UNL     1      64.233 222.871 329.947  0.00  0.00    +0.000 A 
ATOM     13  N   UNL     1      64.582 220.431 332.167  0.00  0.00    +0.000 N 
ATOM     14  H   UNL     1      65.164 220.932 332.825  0.00  0.00    +0.000 HD
ATOM     15  H   UNL     1      63.896 219.816 332.586  0.00  0.00    +0.000 HD
ENDBRANCH   5   6
BRANCH   2  16
ATOM     16  O2* UNL     1      60.405 224.054 328.370  0.00  0.00    +0.000 OA
ATOM     17  H2* UNL     1      59.632 224.159 327.773  0.00  0.00    +0.000 HD
ENDBRANCH   2  16
BRANCH   3  18
ATOM     18  O3* UNL     1      60.997 226.106 326.535  0.00  0.00    +0.000 OA
ATOM     19  H3* UNL     1      61.133 226.495 325.651  0.00  0.00    +0.000 HD
ENDBRANCH   3  18
BRANCH   4  20
ATOM     20  C5* UNL     1      64.004 226.281 326.061  0.00  0.00    +0.000 C 
BRANCH  20  21
ATOM     21  O5* UNL     1      64.685 227.284 325.515  0.00  0.00    +0.000 OA
ATOM     22  H5* UNL     1      64.203 227.633 324.745  0.00  0.00    +0.000 HD
ENDBRANCH  20  21
ENDBRANCH   4  20
TORSDOF 5
ENDMDL
MODEL 7
REMARK VINA RESULT:      -4.5     22.672     24.711
REMARK  Name = 5azacytidine.pdbqt.pdb
REMARK  5 active torsions:
REMARK  status: ('A' for Active; 'I' for Inactive)
REMARK    1  A    between atoms: C2*_2  and  O2*_16
REMARK    2  A    between atoms: C3*_3  and  O3*_21
REMARK    3  A    between atoms: C4*_4  and  C5*_18
REMARK    4  A    between atoms: C1*_5  and  N_6
REMARK    5  A    between atoms: C5*_18  and  O5*_19
REMARK                            x       y       z     vdW  Elec       q    Type
REMARK                         _______ _______ _______ _____ _____    ______ ____
ROOT
ATOM      1  O4* UNL     1      51.279 242.827 325.184  0.00  0.00    +0.000 OA
ATOM      2  C2* UNL     1      53.154 242.950 326.521  0.00  0.00    +0.000 A 
ATOM      3  C3* UNL     1      52.068 242.452 327.310  0.00  0.00    +0.000 A 
ATOM      4  C4* UNL     1      50.914 242.371 326.462  0.00  0.00    +0.000 A 
ATOM      5  C1* UNL     1      52.639 243.203 325.197  0.00  0.00    +0.000 A 
ENDROOT
BRANCH   5   6
ATOM      6  N   UNL     1      53.233 243.743 324.096  0.00  0.00    +0.000 N 
ATOM      7  C   UNL     1      53.777 245.016 323.970  0.00  0.00    +0.000 A 
ATOM      8  O   UNL     1      53.756 245.855 324.867  0.00  0.00    +0.000 OA
ATOM      9  N   UNL     1      54.343 245.294 322.729  0.00  0.00    +0.000 NA
ATOM     10  C   UNL     1      54.338 244.393 321.778  0.00  0.00    +0.000 A 
ATOM     11  N   UNL     1      53.768 243.137 321.901  0.00  0.00    +0.000 NA
ATOM     12  C   UNL     1      53.344 243.025 322.981  0.00  0.00    +0.000 A 
ATOM     13  N   UNL     1      54.905 244.708 320.587  0.00  0.00    +0.000 N 
ATOM     14  H   UNL     1      54.538 244.190 319.799  0.00  0.00    +0.000 HD
ATOM     15  H   UNL     1      55.001 245.705 320.434  0.00  0.00    +0.000 HD
ENDBRANCH   5   6
BRANCH   2  16
ATOM     16  O2* UNL     1      54.159 243.657 327.122  0.00  0.00    +0.000 OA
ATOM     17  H2* UNL     1      55.043 243.274 326.929  0.00  0.00    +0.000 HD
ENDBRANCH   2  16
BRANCH   3  18
ATOM     18  O3* UNL     1      51.977 242.736 328.645  0.00  0.00    +0.000 OA
ATOM     19  H3* UNL     1      52.079 243.695 328.787  0.00  0.00    +0.000 HD
ENDBRANCH   3  18
BRANCH   4  20
ATOM     20  C5* UNL     1      49.571 242.202 326.850  0.00  0.00    +0.000 C 
BRANCH  20  21
ATOM     21  O5* UNL     1      48.305 242.036 327.222  0.00  0.00    +0.000 OA
ATOM     22  H5* UNL     1      47.759 241.808 326.450  0.00  0.00    +0.000 HD
ENDBRANCH  20  21
ENDBRANCH   4  20
TORSDOF 5
ENDMDL
MODEL 8
REMARK VINA RESULT:      -4.4     28.205     29.137
REMARK  Name = 5azacytidine.pdbqt.pdb
REMARK  5 active torsions:
REMARK  status: ('A' for Active; 'I' for Inactive)
REMARK    1  A    between atoms: C2*_2  and  O2*_16
REMARK    2  A    between atoms: C3*_3  and  O3*_21
REMARK    3  A    between atoms: C4*_4  and  C5*_18
REMARK    4  A    between atoms: C1*_5  and  N_6
REMARK    5  A    between atoms: C5*_18  and  O5*_19
REMARK                            x       y       z     vdW  Elec       q    Type
REMARK                         _______ _______ _______ _____ _____    ______ ____
ROOT
ATOM      1  O4* UNL     1      62.384 222.667 326.679  0.00  0.00    +0.000 OA
ATOM      2  C2* UNL     1      61.388 224.516 327.632  0.00  0.00    +0.000 A 
ATOM      3  C3* UNL     1      62.797 224.587 327.873  0.00  0.00    +0.000 A 
ATOM      4  C4* UNL     1      63.402 223.437 327.266  0.00  0.00    +0.000 A 
ATOM      5  C1* UNL     1      61.140 223.296 326.902  0.00  0.00    +0.000 A 
ENDROOT
BRANCH   5   6
ATOM      6  N   UNL     1      59.974 222.723 326.490  0.00  0.00    +0.000 N 
ATOM      7  C   UNL     1      59.140 223.152 325.465  0.00  0.00    +0.000 A 
ATOM      8  O   UNL     1      59.347 224.164 324.798  0.00  0.00    +0.000 OA
ATOM      9  N   UNL     1      58.019 222.356 325.246  0.00  0.00    +0.000 NA
ATOM     10  C   UNL     1      57.804 221.293 325.980  0.00  0.00    +0.000 A 
ATOM     11  N   UNL     1      58.624 220.888 327.020  0.00  0.00    +0.000 NA
ATOM     12  C   UNL     1      59.526 221.623 327.091  0.00  0.00    +0.000 A 
ATOM     13  N   UNL     1      56.700 220.546 325.728  0.00  0.00    +0.000 N 
ATOM     14  H   UNL     1      56.362 220.017 326.521  0.00  0.00    +0.000 HD
ATOM     15  H   UNL     1      55.984 221.042 325.211  0.00  0.00    +0.000 HD
ENDBRANCH   5   6
BRANCH   2  16
ATOM     16  O2* UNL     1      60.518 225.093 328.516  0.00  0.00    +0.000 OA
ATOM     17  H2* UNL     1      60.661 224.771 329.433  0.00  0.00    +0.000 HD
ENDBRANCH   2  16
BRANCH   3  18
ATOM     18  O3* UNL     1      63.289 225.155 329.016  0.00  0.00    +0.000 OA
ATOM     19  H3* UNL     1      64.204 225.458 328.866  0.00  0.00    +0.000 HD
ENDBRANCH   3  18
BRANCH   4  20
ATOM     20  C5* UNL     1      64.703 222.940 327.471  0.00  0.00    +0.000 C 
BRANCH  20  21
ATOM     21  O5* UNL     1      65.935 222.476 327.656  0.00  0.00    +0.000 OA
ATOM     22  H5* UNL     1      65.901 221.600 328.079  0.00  0.00    +0.000 HD
ENDBRANCH  20  21
ENDBRANCH   4  20
TORSDOF 5
ENDMDL
MODEL 9
REMARK VINA RESULT:      -4.3     24.794     26.137
REMARK  Name = 5azacytidine.pdbqt.pdb
REMARK  5 active torsions:
REMARK  status: ('A' for Active; 'I' for Inactive)
REMARK    1  A    between atoms: C2*_2  and  O2*_16
REMARK    2  A    between atoms: C3*_3  and  O3*_21
REMARK    3  A    between atoms: C4*_4  and  C5*_18
REMARK    4  A    between atoms: C1*_5  and  N_6
REMARK    5  A    between atoms: C5*_18  and  O5*_19
REMARK                            x       y       z     vdW  Elec       q    Type
REMARK                         _______ _______ _______ _____ _____    ______ ____
ROOT
ATOM      1  O4* UNL     1      47.663 236.668 325.174  0.00  0.00    +0.000 OA
ATOM      2  C2* UNL     1      49.510 237.401 324.004  0.00  0.00    +0.000 A 
ATOM      3  C3* UNL     1      49.250 238.328 325.064  0.00  0.00    +0.000 A 
ATOM      4  C4* UNL     1      48.106 237.852 325.788  0.00  0.00    +0.000 A 
ATOM      5  C1* UNL     1      48.494 236.379 324.071  0.00  0.00    +0.000 A 
ENDROOT
BRANCH   5   6
ATOM      6  N   UNL     1      48.244 235.314 323.259  0.00  0.00    +0.000 N 
ATOM      7  C   UNL     1      47.952 235.339 321.901  0.00  0.00    +0.000 A 
ATOM      8  O   UNL     1      47.846 236.375 321.247  0.00  0.00    +0.000 OA
ATOM      9  N   UNL     1      47.762 234.090 321.316  0.00  0.00    +0.000 NA
ATOM     10  C   UNL     1      47.859 232.998 322.032  0.00  0.00    +0.000 A 
ATOM     11  N   UNL     1      48.121 232.981 323.391  0.00  0.00    +0.000 NA
ATOM     12  C   UNL     1      48.272 234.079 323.755  0.00  0.00    +0.000 A 
ATOM     13  N   UNL     1      47.670 231.803 321.418  0.00  0.00    +0.000 N 
ATOM     14  H   UNL     1      47.355 231.063 322.030  0.00  0.00    +0.000 HD
ATOM     15  H   UNL     1      47.168 231.873 320.540  0.00  0.00    +0.000 HD
ENDBRANCH   5   6
BRANCH   2  16
ATOM     16  O2* UNL     1      50.112 237.837 322.856  0.00  0.00    +0.000 OA
ATOM     17  H2* UNL     1      49.761 237.379 322.061  0.00  0.00    +0.000 HD
ENDBRANCH   2  16
BRANCH   3  18
ATOM     18  O3* UNL     1      49.523 239.660 324.920  0.00  0.00    +0.000 OA
ATOM     19  H3* UNL     1      49.765 240.043 325.783  0.00  0.00    +0.000 HD
ENDBRANCH   3  18
BRANCH   4  20
ATOM     20  C5* UNL     1      47.325 238.558 326.723  0.00  0.00    +0.000 C 
BRANCH  20  21
ATOM     21  O5* UNL     1      46.588 239.216 327.613  0.00  0.00    +0.000 OA
ATOM     22  H5* UNL     1      45.854 239.670 327.165  0.00  0.00    +0.000 HD
ENDBRANCH  20  21
ENDBRANCH   4  20
TORSDOF 5
ENDMDL
