MODEL 1
REMARK VINA RESULT:      -5.5      0.000      0.000
REMARK  Name = 60953_Capecitabine.pdbqt.pdb
REMARK  6 active torsions:
REMARK  status: ('A' for Active; 'I' for Inactive)
REMARK    1  A    between atoms: N_4  and  C_16
REMARK    2  A    between atoms: C_11  and  O_23
REMARK    3  A    between atoms: C_14  and  O_19
REMARK    4  A    between atoms: C_15  and  O_21
REMARK    5  A    between atoms: O_23  and  C_24
REMARK    6  A    between atoms: C_25  and  C_26
REMARK                            x       y       z     vdW  Elec       q    Type
REMARK                         _______ _______ _______ _____ _____    ______ ____
ROOT
ATOM      1  F   UNL     1      71.081 220.248 335.463  0.00  0.00    +0.000 F 
ATOM      2  O   UNL     1      70.046 223.284 339.754  0.00  0.00    +0.000 OA
ATOM      3  O   UNL     1      66.688 220.696 337.785  0.00  0.00    +0.000 OA
ATOM      4  N   UNL     1      71.528 222.692 338.065  0.00  0.00    +0.000 N 
ATOM      5  N   UNL     1      69.260 221.908 338.101  0.00  0.00    +0.000 NA
ATOM      6  N   UNL     1      68.536 220.457 336.392  0.00  0.00    +0.000 N 
ATOM      7  C   UNL     1      71.634 221.986 336.921  0.00  0.00    +0.000 C 
ATOM      8  C   UNL     1      70.263 222.676 338.708  0.00  0.00    +0.000 C 
ATOM      9  C   UNL     1      70.780 221.295 336.250  0.00  0.00    +0.000 C 
ATOM     10  C   UNL     1      69.482 221.260 336.996  0.00  0.00    +0.000 C 
ATOM     11  C   UNL     1      67.249 220.211 336.814  0.00  0.00    +0.000 C 
ATOM     12  H   UNL     1      68.795 219.958 335.553  0.00  0.00    +0.000 HD
ENDROOT
BRANCH   4  16
ATOM     13  O   UNL     1      73.157 223.161 339.793  0.00  0.00    +0.000 OA
ATOM     14  C   UNL     1      73.429 224.404 337.869  0.00  0.00    +0.000 A 
ATOM     15  C   UNL     1      74.412 224.826 338.820  0.00  0.00    +0.000 A 
ATOM     16  C   UNL     1      72.631 223.379 338.500  0.00  0.00    +0.000 A 
ATOM     17  C   UNL     1      74.237 224.033 340.006  0.00  0.00    +0.000 A 
ATOM     18  C   UNL     1      74.796 224.192 341.377  0.00  0.00    +0.000 C 
BRANCH  14  19
ATOM     19  O   UNL     1      72.977 225.290 336.932  0.00  0.00    +0.000 OA
ATOM     20  H   UNL     1      73.053 224.934 336.018  0.00  0.00    +0.000 HD
ENDBRANCH  14  19
BRANCH  15  21
ATOM     21  O   UNL     1      74.879 226.114 338.830  0.00  0.00    +0.000 OA
ATOM     22  H   UNL     1      75.855 226.123 338.801  0.00  0.00    +0.000 HD
ENDBRANCH  15  21
ENDBRANCH   4  16
BRANCH  11  23
ATOM     23  O   UNL     1      66.673 219.325 335.947  0.00  0.00    +0.000 OA
BRANCH  23  24
ATOM     24  C   UNL     1      66.438 219.786 334.720  0.00  0.00    +0.000 C 
ATOM     25  C   UNL     1      66.164 220.316 333.309  0.00  0.00    +0.000 C 
BRANCH  25  26
ATOM     26  C   UNL     1      65.889 220.845 331.898  0.00  0.00    +0.000 C 
ATOM     27  C   UNL     1      65.609 221.378 330.491  0.00  0.00    +0.000 C 
ATOM     28  C   UNL     1      65.321 221.921 329.087  0.00  0.00    +0.000 C 
ENDBRANCH  25  26
ENDBRANCH  23  24
ENDBRANCH  11  23
TORSDOF 6
ENDMDL
MODEL 2
REMARK VINA RESULT:      -5.5     29.521     31.536
REMARK  Name = 60953_Capecitabine.pdbqt.pdb
REMARK  6 active torsions:
REMARK  status: ('A' for Active; 'I' for Inactive)
REMARK    1  A    between atoms: N_4  and  C_16
REMARK    2  A    between atoms: C_11  and  O_23
REMARK    3  A    between atoms: C_14  and  O_19
REMARK    4  A    between atoms: C_15  and  O_21
REMARK    5  A    between atoms: O_23  and  C_24
REMARK    6  A    between atoms: C_25  and  C_26
REMARK                            x       y       z     vdW  Elec       q    Type
REMARK                         _______ _______ _______ _____ _____    ______ ____
ROOT
ATOM      1  F   UNL     1      50.654 243.132 321.752  0.00  0.00    +0.000 F 
ATOM      2  O   UNL     1      51.612 242.165 326.934  0.00  0.00    +0.000 OA
ATOM      3  O   UNL     1      54.717 244.480 324.315  0.00  0.00    +0.000 OA
ATOM      4  N   UNL     1      50.287 241.779 325.065  0.00  0.00    +0.000 N 
ATOM      5  N   UNL     1      52.366 242.968 324.926  0.00  0.00    +0.000 NA
ATOM      6  N   UNL     1      53.053 243.806 322.835  0.00  0.00    +0.000 N 
ATOM      7  C   UNL     1      50.215 241.977 323.734  0.00  0.00    +0.000 C 
ATOM      8  C   UNL     1      51.435 242.289 325.724  0.00  0.00    +0.000 C 
ATOM      9  C   UNL     1      51.020 242.533 322.898  0.00  0.00    +0.000 C 
ATOM     10  C   UNL     1      52.185 243.106 323.646  0.00  0.00    +0.000 C 
ATOM     11  C   UNL     1      54.214 244.449 323.202  0.00  0.00    +0.000 C 
ATOM     12  H   UNL     1      52.826 243.898 321.854  0.00  0.00    +0.000 HD
ENDROOT
BRANCH   4  16
ATOM     13  O   UNL     1      48.082 241.746 326.064  0.00  0.00    +0.000 OA
ATOM     14  C   UNL     1      49.148 239.701 326.051  0.00  0.00    +0.000 A 
ATOM     15  C   UNL     1      47.893 239.550 326.722  0.00  0.00    +0.000 A 
ATOM     16  C   UNL     1      49.267 241.088 325.667  0.00  0.00    +0.000 A 
ATOM     17  C   UNL     1      47.237 240.829 326.709  0.00  0.00    +0.000 A 
ATOM     18  C   UNL     1      46.046 241.322 327.456  0.00  0.00    +0.000 C 
BRANCH  14  19
ATOM     19  O   UNL     1      50.190 238.882 326.384  0.00  0.00    +0.000 OA
ATOM     20  H   UNL     1      50.286 238.781 327.357  0.00  0.00    +0.000 HD
ENDBRANCH  14  19
BRANCH  15  21
ATOM     21  O   UNL     1      47.731 238.624 327.719  0.00  0.00    +0.000 OA
ATOM     22  H   UNL     1      48.558 238.125 327.858  0.00  0.00    +0.000 HD
ENDBRANCH  15  21
ENDBRANCH   4  16
BRANCH  11  23
ATOM     23  O   UNL     1      54.742 245.053 322.095  0.00  0.00    +0.000 OA
BRANCH  23  24
ATOM     24  C   UNL     1      55.449 246.158 322.320  0.00  0.00    +0.000 C 
ATOM     25  C   UNL     1      56.260 247.432 322.579  0.00  0.00    +0.000 C 
BRANCH  25  26
ATOM     26  C   UNL     1      57.069 248.706 322.839  0.00  0.00    +0.000 C 
ATOM     27  C   UNL     1      57.884 249.976 323.098  0.00  0.00    +0.000 C 
ATOM     28  C   UNL     1      58.711 251.242 323.352  0.00  0.00    +0.000 C 
ENDBRANCH  25  26
ENDBRANCH  23  24
ENDBRANCH  11  23
TORSDOF 6
ENDMDL
MODEL 3
REMARK VINA RESULT:      -5.3     29.192     30.399
REMARK  Name = 60953_Capecitabine.pdbqt.pdb
REMARK  6 active torsions:
REMARK  status: ('A' for Active; 'I' for Inactive)
REMARK    1  A    between atoms: N_4  and  C_16
REMARK    2  A    between atoms: C_11  and  O_23
REMARK    3  A    between atoms: C_14  and  O_19
REMARK    4  A    between atoms: C_15  and  O_21
REMARK    5  A    between atoms: O_23  and  C_24
REMARK    6  A    between atoms: C_25  and  C_26
REMARK                            x       y       z     vdW  Elec       q    Type
REMARK                         _______ _______ _______ _____ _____    ______ ____
ROOT
ATOM      1  F   UNL     1      44.427 238.153 325.514  0.00  0.00    +0.000 F 
ATOM      2  O   UNL     1      49.536 237.284 324.158  0.00  0.00    +0.000 OA
ATOM      3  O   UNL     1      46.365 233.860 323.869  0.00  0.00    +0.000 OA
ATOM      4  N   UNL     1      47.961 238.695 325.119  0.00  0.00    +0.000 N 
ATOM      5  N   UNL     1      47.437 236.436 324.504  0.00  0.00    +0.000 NA
ATOM      6  N   UNL     1      45.243 235.649 324.846  0.00  0.00    +0.000 N 
ATOM      7  C   UNL     1      46.683 238.757 325.542  0.00  0.00    +0.000 C 
ATOM      8  C   UNL     1      48.392 237.460 324.572  0.00  0.00    +0.000 C 
ATOM      9  C   UNL     1      45.741 237.880 325.577  0.00  0.00    +0.000 C 
ATOM     10  C   UNL     1      46.224 236.615 324.937  0.00  0.00    +0.000 C 
ATOM     11  C   UNL     1      45.356 234.383 324.318  0.00  0.00    +0.000 C 
ATOM     12  H   UNL     1      44.315 235.876 325.174  0.00  0.00    +0.000 HD
ENDROOT
BRANCH   4  16
ATOM     13  O   UNL     1      48.623 240.905 324.384  0.00  0.00    +0.000 OA
ATOM     14  C   UNL     1      49.786 240.127 326.218  0.00  0.00    +0.000 A 
ATOM     15  C   UNL     1      50.319 241.405 325.856  0.00  0.00    +0.000 A 
ATOM     16  C   UNL     1      48.742 239.812 325.271  0.00  0.00    +0.000 A 
ATOM     17  C   UNL     1      49.575 241.880 324.721  0.00  0.00    +0.000 A 
ATOM     18  C   UNL     1      49.839 243.008 323.784  0.00  0.00    +0.000 C 
BRANCH  14  19
ATOM     19  O   UNL     1      50.593 239.213 326.835  0.00  0.00    +0.000 OA
ATOM     20  H   UNL     1      50.979 238.571 326.200  0.00  0.00    +0.000 HD
ENDBRANCH  14  19
BRANCH  15  21
ATOM     21  O   UNL     1      51.635 241.712 326.084  0.00  0.00    +0.000 OA
ATOM     22  H   UNL     1      51.927 242.426 325.485  0.00  0.00    +0.000 HD
ENDBRANCH  15  21
ENDBRANCH   4  16
BRANCH  11  23
ATOM     23  O   UNL     1      44.133 233.776 324.387  0.00  0.00    +0.000 OA
BRANCH  23  24
ATOM     24  C   UNL     1      43.608 233.670 325.606  0.00  0.00    +0.000 C 
ATOM     25  C   UNL     1      43.003 233.546 327.009  0.00  0.00    +0.000 C 
BRANCH  25  26
ATOM     26  C   UNL     1      42.398 233.420 328.410  0.00  0.00    +0.000 C 
ATOM     27  C   UNL     1      41.792 233.301 329.811  0.00  0.00    +0.000 C 
ATOM     28  C   UNL     1      41.178 233.193 331.211  0.00  0.00    +0.000 C 
ENDBRANCH  25  26
ENDBRANCH  23  24
ENDBRANCH  11  23
TORSDOF 6
ENDMDL
MODEL 4
REMARK VINA RESULT:      -5.3      2.408      9.320
REMARK  Name = 60953_Capecitabine.pdbqt.pdb
REMARK  6 active torsions:
REMARK  status: ('A' for Active; 'I' for Inactive)
REMARK    1  A    between atoms: N_4  and  C_16
REMARK    2  A    between atoms: C_11  and  O_23
REMARK    3  A    between atoms: C_14  and  O_19
REMARK    4  A    between atoms: C_15  and  O_21
REMARK    5  A    between atoms: O_23  and  C_24
REMARK    6  A    between atoms: C_25  and  C_26
REMARK                            x       y       z     vdW  Elec       q    Type
REMARK                         _______ _______ _______ _____ _____    ______ ____
ROOT
ATOM      1  F   UNL     1      69.895 223.538 339.467  0.00  0.00    +0.000 F 
ATOM      2  O   UNL     1      70.499 220.454 335.129  0.00  0.00    +0.000 OA
ATOM      3  O   UNL     1      73.818 223.497 336.384  0.00  0.00    +0.000 OA
ATOM      4  N   UNL     1      69.109 221.234 336.819  0.00  0.00    +0.000 N 
ATOM      5  N   UNL     1      71.290 222.159 336.436  0.00  0.00    +0.000 NA
ATOM      6  N   UNL     1      72.054 223.879 337.853  0.00  0.00    +0.000 N 
ATOM      7  C   UNL     1      69.022 222.142 337.812  0.00  0.00    +0.000 C 
ATOM      8  C   UNL     1      70.308 221.232 336.060  0.00  0.00    +0.000 C 
ATOM      9  C   UNL     1      69.826 223.064 338.212  0.00  0.00    +0.000 C 
ATOM     10  C   UNL     1      71.096 222.984 337.422  0.00  0.00    +0.000 C 
ATOM     11  C   UNL     1      73.321 224.065 337.345  0.00  0.00    +0.000 C 
ATOM     12  H   UNL     1      71.841 224.465 338.648  0.00  0.00    +0.000 HD
ENDROOT
BRANCH   4  16
ATOM     13  O   UNL     1      67.304 220.464 335.401  0.00  0.00    +0.000 OA
ATOM     14  C   UNL     1      67.408 219.420 337.455  0.00  0.00    +0.000 A 
ATOM     15  C   UNL     1      66.267 218.918 336.752  0.00  0.00    +0.000 A 
ATOM     16  C   UNL     1      68.035 220.409 336.609  0.00  0.00    +0.000 A 
ATOM     17  C   UNL     1      66.225 219.569 335.472  0.00  0.00    +0.000 A 
ATOM     18  C   UNL     1      65.151 219.626 334.441  0.00  0.00    +0.000 C 
BRANCH  14  19
ATOM     19  O   UNL     1      67.399 219.443 338.821  0.00  0.00    +0.000 OA
ATOM     20  H   UNL     1      67.761 218.615 339.209  0.00  0.00    +0.000 HD
ENDBRANCH  14  19
BRANCH  15  21
ATOM     21  O   UNL     1      65.151 218.496 337.427  0.00  0.00    +0.000 OA
ATOM     22  H   UNL     1      64.692 217.798 336.922  0.00  0.00    +0.000 HD
ENDBRANCH  15  21
ENDBRANCH   4  16
BRANCH  11  23
ATOM     23  O   UNL     1      73.950 225.019 338.094  0.00  0.00    +0.000 OA
BRANCH  23  24
ATOM     24  C   UNL     1      74.283 224.658 339.331  0.00  0.00    +0.000 C 
ATOM     25  C   UNL     1      74.668 224.243 340.755  0.00  0.00    +0.000 C 
BRANCH  25  26
ATOM     26  C   UNL     1      75.055 223.828 342.178  0.00  0.00    +0.000 C 
ATOM     27  C   UNL     1      75.440 223.420 343.602  0.00  0.00    +0.000 C 
ATOM     28  C   UNL     1      75.819 223.021 345.033  0.00  0.00    +0.000 C 
ENDBRANCH  25  26
ENDBRANCH  23  24
ENDBRANCH  11  23
TORSDOF 6
ENDMDL
MODEL 5
REMARK VINA RESULT:      -5.2      4.368     10.406
REMARK  Name = 60953_Capecitabine.pdbqt.pdb
REMARK  6 active torsions:
REMARK  status: ('A' for Active; 'I' for Inactive)
REMARK    1  A    between atoms: N_4  and  C_16
REMARK    2  A    between atoms: C_11  and  O_23
REMARK    3  A    between atoms: C_14  and  O_19
REMARK    4  A    between atoms: C_15  and  O_21
REMARK    5  A    between atoms: O_23  and  C_24
REMARK    6  A    between atoms: C_25  and  C_26
REMARK                            x       y       z     vdW  Elec       q    Type
REMARK                         _______ _______ _______ _____ _____    ______ ____
ROOT
ATOM      1  F   UNL     1      74.466 223.860 341.459  0.00  0.00    +0.000 F 
ATOM      2  O   UNL     1      73.469 224.073 336.199  0.00  0.00    +0.000 OA
ATOM      3  O   UNL     1      77.014 226.484 338.064  0.00  0.00    +0.000 OA
ATOM      4  N   UNL     1      72.780 223.401 338.314  0.00  0.00    +0.000 N 
ATOM      5  N   UNL     1      74.676 224.836 337.989  0.00  0.00    +0.000 NA
ATOM      6  N   UNL     1      75.897 225.542 339.876  0.00  0.00    +0.000 N 
ATOM      7  C   UNL     1      73.057 223.523 339.628  0.00  0.00    +0.000 C 
ATOM      8  C   UNL     1      73.625 224.105 337.418  0.00  0.00    +0.000 C 
ATOM      9  C   UNL     1      73.949 224.196 340.264  0.00  0.00    +0.000 C 
ATOM     10  C   UNL     1      74.850 224.873 339.277  0.00  0.00    +0.000 C 
ATOM     11  C   UNL     1      76.896 226.264 339.261  0.00  0.00    +0.000 C 
ATOM     12  H   UNL     1      75.985 225.496 340.881  0.00  0.00    +0.000 HD
ENDROOT
BRANCH   4  16
ATOM     13  O   UNL     1      71.824 221.232 337.823  0.00  0.00    +0.000 OA
ATOM     14  C   UNL     1      70.347 222.991 337.609  0.00  0.00    +0.000 A 
ATOM     15  C   UNL     1      69.672 221.787 337.231  0.00  0.00    +0.000 A 
ATOM     16  C   UNL     1      71.704 222.634 337.953  0.00  0.00    +0.000 A 
ATOM     17  C   UNL     1      70.602 220.701 337.382  0.00  0.00    +0.000 A 
ATOM     18  C   UNL     1      70.537 219.289 336.913  0.00  0.00    +0.000 C 
BRANCH  14  19
ATOM     19  O   UNL     1      69.960 224.180 337.059  0.00  0.00    +0.000 OA
ATOM     20  H   UNL     1      70.471 224.939 337.419  0.00  0.00    +0.000 HD
ENDBRANCH  14  19
BRANCH  15  21
ATOM     21  O   UNL     1      68.669 221.803 336.297  0.00  0.00    +0.000 OA
ATOM     22  H   UNL     1      67.993 222.467 336.534  0.00  0.00    +0.000 HD
ENDBRANCH  15  21
ENDBRANCH   4  16
BRANCH  11  23
ATOM     23  O   UNL     1      77.752 226.723 340.222  0.00  0.00    +0.000 OA
BRANCH  23  24
ATOM     24  C   UNL     1      77.915 228.043 340.270  0.00  0.00    +0.000 C 
ATOM     25  C   UNL     1      78.103 229.563 340.328  0.00  0.00    +0.000 C 
BRANCH  25  26
ATOM     26  C   UNL     1      78.290 231.081 340.387  0.00  0.00    +0.000 C 
ATOM     27  C   UNL     1      78.470 232.601 340.444  0.00  0.00    +0.000 C 
ATOM     28  C   UNL     1      78.638 234.123 340.501  0.00  0.00    +0.000 C 
ENDBRANCH  25  26
ENDBRANCH  23  24
ENDBRANCH  11  23
TORSDOF 6
ENDMDL
MODEL 6
REMARK VINA RESULT:      -5.2     29.699     30.819
REMARK  Name = 60953_Capecitabine.pdbqt.pdb
REMARK  6 active torsions:
REMARK  status: ('A' for Active; 'I' for Inactive)
REMARK    1  A    between atoms: N_4  and  C_16
REMARK    2  A    between atoms: C_11  and  O_23
REMARK    3  A    between atoms: C_14  and  O_19
REMARK    4  A    between atoms: C_15  and  O_21
REMARK    5  A    between atoms: O_23  and  C_24
REMARK    6  A    between atoms: C_25  and  C_26
REMARK                            x       y       z     vdW  Elec       q    Type
REMARK                         _______ _______ _______ _____ _____    ______ ____
ROOT
ATOM      1  F   UNL     1      52.636 242.257 326.955  0.00  0.00    +0.000 F 
ATOM      2  O   UNL     1      50.535 246.834 328.782  0.00  0.00    +0.000 OA
ATOM      3  O   UNL     1      53.392 246.819 325.081  0.00  0.00    +0.000 OA
ATOM      4  N   UNL     1      50.894 244.561 329.100  0.00  0.00    +0.000 N 
ATOM      5  N   UNL     1      51.967 245.784 327.336  0.00  0.00    +0.000 NA
ATOM      6  N   UNL     1      53.391 244.626 325.859  0.00  0.00    +0.000 N 
ATOM      7  C   UNL     1      51.574 243.499 328.623  0.00  0.00    +0.000 C 
ATOM      8  C   UNL     1      51.098 245.798 328.435  0.00  0.00    +0.000 C 
ATOM      9  C   UNL     1      52.427 243.377 327.667  0.00  0.00    +0.000 C 
ATOM     10  C   UNL     1      52.564 244.691 326.962  0.00  0.00    +0.000 C 
ATOM     11  C   UNL     1      53.729 245.648 324.999  0.00  0.00    +0.000 C 
ATOM     12  H   UNL     1      53.791 243.732 325.611  0.00  0.00    +0.000 HD
ENDROOT
BRANCH   4  16
ATOM     13  O   UNL     1      48.765 243.889 330.037  0.00  0.00    +0.000 OA
ATOM     14  C   UNL     1      50.305 244.607 331.597  0.00  0.00    +0.000 A 
ATOM     15  C   UNL     1      49.082 244.305 332.277  0.00  0.00    +0.000 A 
ATOM     16  C   UNL     1      50.085 244.369 330.189  0.00  0.00    +0.000 A 
ATOM     17  C   UNL     1      48.140 243.847 331.293  0.00  0.00    +0.000 A 
ATOM     18  C   UNL     1      46.668 243.632 331.377  0.00  0.00    +0.000 C 
BRANCH  14  19
ATOM     19  O   UNL     1      51.145 245.552 332.115  0.00  0.00    +0.000 OA
ATOM     20  H   UNL     1      51.137 246.383 331.591  0.00  0.00    +0.000 HD
ENDBRANCH  14  19
BRANCH  15  21
ATOM     21  O   UNL     1      48.724 244.974 333.418  0.00  0.00    +0.000 OA
ATOM     22  H   UNL     1      48.276 245.812 333.195  0.00  0.00    +0.000 HD
ENDBRANCH  15  21
ENDBRANCH   4  16
BRANCH  11  23
ATOM     23  O   UNL     1      54.535 245.138 324.020  0.00  0.00    +0.000 OA
BRANCH  23  24
ATOM     24  C   UNL     1      54.026 244.127 323.319  0.00  0.00    +0.000 C 
ATOM     25  C   UNL     1      53.443 242.961 322.514  0.00  0.00    +0.000 C 
BRANCH  25  26
ATOM     26  C   UNL     1      52.862 241.796 321.708  0.00  0.00    +0.000 C 
ATOM     27  C   UNL     1      52.280 240.635 320.896  0.00  0.00    +0.000 C 
ATOM     28  C   UNL     1      51.702 239.479 320.073  0.00  0.00    +0.000 C 
ENDBRANCH  25  26
ENDBRANCH  23  24
ENDBRANCH  11  23
TORSDOF 6
ENDMDL
MODEL 7
REMARK VINA RESULT:      -5.1      6.155     11.242
REMARK  Name = 60953_Capecitabine.pdbqt.pdb
REMARK  6 active torsions:
REMARK  status: ('A' for Active; 'I' for Inactive)
REMARK    1  A    between atoms: N_4  and  C_16
REMARK    2  A    between atoms: C_11  and  O_23
REMARK    3  A    between atoms: C_14  and  O_19
REMARK    4  A    between atoms: C_15  and  O_21
REMARK    5  A    between atoms: O_23  and  C_24
REMARK    6  A    between atoms: C_25  and  C_26
REMARK                            x       y       z     vdW  Elec       q    Type
REMARK                         _______ _______ _______ _____ _____    ______ ____
ROOT
ATOM      1  F   UNL     1      62.238 220.149 331.636  0.00  0.00    +0.000 F 
ATOM      2  O   UNL     1      66.546 222.439 329.423  0.00  0.00    +0.000 OA
ATOM      3  O   UNL     1      66.923 219.909 333.336  0.00  0.00    +0.000 OA
ATOM      4  N   UNL     1      64.234 222.216 329.471  0.00  0.00    +0.000 N 
ATOM      5  N   UNL     1      65.640 221.261 331.165  0.00  0.00    +0.000 NA
ATOM      6  N   UNL     1      64.640 220.021 332.900  0.00  0.00    +0.000 N 
ATOM      7  C   UNL     1      63.215 221.695 330.184  0.00  0.00    +0.000 C 
ATOM      8  C   UNL     1      65.541 222.008 329.983  0.00  0.00    +0.000 C 
ATOM      9  C   UNL     1      63.181 221.044 331.293  0.00  0.00    +0.000 C 
ATOM     10  C   UNL     1      64.582 220.799 331.762  0.00  0.00    +0.000 C 
ATOM     11  C   UNL     1      65.763 219.616 333.586  0.00  0.00    +0.000 C 
ATOM     12  H   UNL     1      63.775 219.670 333.287  0.00  0.00    +0.000 HD
ENDROOT
BRANCH   4  16
ATOM     13  O   UNL     1      64.287 222.423 327.060  0.00  0.00    +0.000 OA
ATOM     14  C   UNL     1      63.287 224.197 328.142  0.00  0.00    +0.000 A 
ATOM     15  C   UNL     1      63.306 224.478 326.739  0.00  0.00    +0.000 A 
ATOM     16  C   UNL     1      63.929 222.917 328.334  0.00  0.00    +0.000 A 
ATOM     17  C   UNL     1      63.920 223.358 326.080  0.00  0.00    +0.000 A 
ATOM     18  C   UNL     1      64.422 223.202 324.686  0.00  0.00    +0.000 C 
BRANCH  14  19
ATOM     19  O   UNL     1      63.307 225.231 329.035  0.00  0.00    +0.000 OA
ATOM     20  H   UNL     1      63.854 225.027 329.826  0.00  0.00    +0.000 HD
ENDBRANCH  14  19
BRANCH  15  21
ATOM     21  O   UNL     1      63.383 225.766 326.278  0.00  0.00    +0.000 OA
ATOM     22  H   UNL     1      63.752 226.353 326.965  0.00  0.00    +0.000 HD
ENDBRANCH  15  21
ENDBRANCH   4  16
BRANCH  11  23
ATOM     23  O   UNL     1      65.371 218.823 334.627  0.00  0.00    +0.000 OA
BRANCH  23  24
ATOM     24  C   UNL     1      66.091 218.932 335.742  0.00  0.00    +0.000 C 
ATOM     25  C   UNL     1      66.918 219.056 337.025  0.00  0.00    +0.000 C 
BRANCH  25  26
ATOM     26  C   UNL     1      67.744 219.179 338.309  0.00  0.00    +0.000 C 
ATOM     27  C   UNL     1      68.574 219.296 339.590  0.00  0.00    +0.000 C 
ATOM     28  C   UNL     1      69.415 219.409 340.867  0.00  0.00    +0.000 C 
ENDBRANCH  25  26
ENDBRANCH  23  24
ENDBRANCH  11  23
TORSDOF 6
ENDMDL
MODEL 8
REMARK VINA RESULT:      -5.1     30.913     32.147
REMARK  Name = 60953_Capecitabine.pdbqt.pdb
REMARK  6 active torsions:
REMARK  status: ('A' for Active; 'I' for Inactive)
REMARK    1  A    between atoms: N_4  and  C_16
REMARK    2  A    between atoms: C_11  and  O_23
REMARK    3  A    between atoms: C_14  and  O_19
REMARK    4  A    between atoms: C_15  and  O_21
REMARK    5  A    between atoms: O_23  and  C_24
REMARK    6  A    between atoms: C_25  and  C_26
REMARK                            x       y       z     vdW  Elec       q    Type
REMARK                         _______ _______ _______ _____ _____    ______ ____
ROOT
ATOM      1  F   UNL     1      44.698 241.366 334.668  0.00  0.00    +0.000 F 
ATOM      2  O   UNL     1      46.145 243.719 330.078  0.00  0.00    +0.000 OA
ATOM      3  O   UNL     1      42.314 241.049 330.296  0.00  0.00    +0.000 OA
ATOM      4  N   UNL     1      46.680 243.174 332.272  0.00  0.00    +0.000 N 
ATOM      5  N   UNL     1      44.741 242.282 331.176  0.00  0.00    +0.000 NA
ATOM      6  N   UNL     1      43.318 240.846 332.386  0.00  0.00    +0.000 N 
ATOM      7  C   UNL     1      46.282 242.438 333.329  0.00  0.00    +0.000 C 
ATOM      8  C   UNL     1      45.879 243.097 331.104  0.00  0.00    +0.000 C 
ATOM      9  C   UNL     1      45.298 241.625 333.494  0.00  0.00    +0.000 C 
ATOM     10  C   UNL     1      44.451 241.622 332.259  0.00  0.00    +0.000 C 
ATOM     11  C   UNL     1      42.338 240.628 331.443  0.00  0.00    +0.000 C 
ATOM     12  H   UNL     1      43.143 240.391 333.271  0.00  0.00    +0.000 HD
ENDROOT
BRANCH   4  16
ATOM     13  O   UNL     1      47.919 244.950 333.355  0.00  0.00    +0.000 OA
ATOM     14  C   UNL     1      49.075 243.877 331.673  0.00  0.00    +0.000 A 
ATOM     15  C   UNL     1      49.895 244.935 332.178  0.00  0.00    +0.000 A 
ATOM     16  C   UNL     1      47.827 243.913 332.400  0.00  0.00    +0.000 A 
ATOM     17  C   UNL     1      49.165 245.584 333.233  0.00  0.00    +0.000 A 
ATOM     18  C   UNL     1      49.409 246.873 333.938  0.00  0.00    +0.000 C 
BRANCH  14  19
ATOM     19  O   UNL     1      49.219 243.477 330.374  0.00  0.00    +0.000 OA
ATOM     20  H   UNL     1      49.480 242.531 330.305  0.00  0.00    +0.000 HD
ENDBRANCH  14  19
BRANCH  15  21
ATOM     21  O   UNL     1      50.795 245.579 331.370  0.00  0.00    +0.000 OA
ATOM     22  H   UNL     1      50.679 245.301 330.441  0.00  0.00    +0.000 HD
ENDBRANCH  15  21
ENDBRANCH   4  16
BRANCH  11  23
ATOM     23  O   UNL     1      41.374 239.834 331.999  0.00  0.00    +0.000 OA
BRANCH  23  24
ATOM     24  C   UNL     1      41.716 239.209 333.123  0.00  0.00    +0.000 C 
ATOM     25  C   UNL     1      42.112 238.492 334.418  0.00  0.00    +0.000 C 
BRANCH  25  26
ATOM     26  C   UNL     1      42.509 237.776 335.712  0.00  0.00    +0.000 C 
ATOM     27  C   UNL     1      42.909 237.066 337.009  0.00  0.00    +0.000 C 
ATOM     28  C   UNL     1      43.309 236.367 338.312  0.00  0.00    +0.000 C 
ENDBRANCH  25  26
ENDBRANCH  23  24
ENDBRANCH  11  23
TORSDOF 6
ENDMDL
MODEL 9
REMARK VINA RESULT:      -5.0      2.437      9.204
REMARK  Name = 60953_Capecitabine.pdbqt.pdb
REMARK  6 active torsions:
REMARK  status: ('A' for Active; 'I' for Inactive)
REMARK    1  A    between atoms: N_4  and  C_16
REMARK    2  A    between atoms: C_11  and  O_23
REMARK    3  A    between atoms: C_14  and  O_19
REMARK    4  A    between atoms: C_15  and  O_21
REMARK    5  A    between atoms: O_23  and  C_24
REMARK    6  A    between atoms: C_25  and  C_26
REMARK                            x       y       z     vdW  Elec       q    Type
REMARK                         _______ _______ _______ _____ _____    ______ ____
ROOT
ATOM      1  F   UNL     1      69.496 223.962 339.468  0.00  0.00    +0.000 F 
ATOM      2  O   UNL     1      70.723 219.366 337.006  0.00  0.00    +0.000 OA
ATOM      3  O   UNL     1      73.872 221.574 339.665  0.00  0.00    +0.000 OA
ATOM      4  N   UNL     1      69.224 221.118 337.282  0.00  0.00    +0.000 N 
ATOM      5  N   UNL     1      71.412 221.149 338.265  0.00  0.00    +0.000 NA
ATOM      6  N   UNL     1      72.033 222.997 339.588  0.00  0.00    +0.000 N 
ATOM      7  C   UNL     1      69.075 222.332 337.850  0.00  0.00    +0.000 C 
ATOM      8  C   UNL     1      70.471 220.472 337.479  0.00  0.00    +0.000 C 
ATOM      9  C   UNL     1      69.875 223.066 338.541  0.00  0.00    +0.000 C 
ATOM     10  C   UNL     1      71.152 222.318 338.772  0.00  0.00    +0.000 C 
ATOM     11  C   UNL     1      73.286 222.594 339.993  0.00  0.00    +0.000 C 
ATOM     12  H   UNL     1      71.745 223.887 339.972  0.00  0.00    +0.000 HD
ENDROOT
BRANCH   4  16
ATOM     13  O   UNL     1      68.184 220.696 335.137  0.00  0.00    +0.000 OA
ATOM     14  C   UNL     1      66.934 220.007 336.948  0.00  0.00    +0.000 A 
ATOM     15  C   UNL     1      66.179 219.757 335.759  0.00  0.00    +0.000 A 
ATOM     16  C   UNL     1      68.179 220.622 336.547  0.00  0.00    +0.000 A 
ATOM     17  C   UNL     1      66.977 220.179 334.641  0.00  0.00    +0.000 A 
ATOM     18  C   UNL     1      66.620 220.385 333.209  0.00  0.00    +0.000 C 
BRANCH  14  19
ATOM     19  O   UNL     1      66.279 220.249 338.122  0.00  0.00    +0.000 OA
ATOM     20  H   UNL     1      66.652 221.020 338.604  0.00  0.00    +0.000 HD
ENDBRANCH  14  19
BRANCH  15  21
ATOM     21  O   UNL     1      64.809 219.793 335.771  0.00  0.00    +0.000 OA
ATOM     22  H   UNL     1      64.493 220.572 336.268  0.00  0.00    +0.000 HD
ENDBRANCH  15  21
ENDBRANCH   4  16
BRANCH  11  23
ATOM     23  O   UNL     1      73.796 223.547 340.831  0.00  0.00    +0.000 OA
BRANCH  23  24
ATOM     24  C   UNL     1      74.846 224.221 340.369  0.00  0.00    +0.000 C 
ATOM     25  C   UNL     1      76.054 225.000 339.836  0.00  0.00    +0.000 C 
BRANCH  25  26
ATOM     26  C   UNL     1      77.260 225.777 339.302  0.00  0.00    +0.000 C 
ATOM     27  C   UNL     1      78.471 226.550 338.770  0.00  0.00    +0.000 C 
ATOM     28  C   UNL     1      79.689 227.312 338.237  0.00  0.00    +0.000 C 
ENDBRANCH  25  26
ENDBRANCH  23  24
ENDBRANCH  11  23
TORSDOF 6
ENDMDL
