MODEL 1
REMARK VINA RESULT:      -5.3      0.000      0.000
REMARK  Name = 6223_Gliotoxin.pdbqt.pdb
REMARK  3 active torsions:
REMARK  status: ('A' for Active; 'I' for Inactive)
REMARK    1  A    between atoms: C_10  and  C_21
REMARK    2  A    between atoms: C_14  and  O_19
REMARK    3  A    between atoms: C_21  and  O_22
REMARK                            x       y       z     vdW  Elec       q    Type
REMARK                         _______ _______ _______ _____ _____    ______ ____
ROOT
ATOM      1  S   UNL     1      62.323 223.172 323.529  0.00  0.00    +0.000 S 
ATOM      2  S   UNL     1      64.056 224.253 323.827  0.00  0.00    +0.000 S 
ATOM      3  O   UNL     1      62.744 225.988 326.727  0.00  0.00    +0.000 OA
ATOM      4  O   UNL     1      60.575 225.828 321.941  0.00  0.00    +0.000 OA
ATOM      5  N   UNL     1      61.268 225.006 325.265  0.00  0.00    +0.000 N 
ATOM      6  N   UNL     1      62.434 226.416 323.257  0.00  0.00    +0.000 N 
ATOM      7  C   UNL     1      61.080 224.460 323.885  0.00  0.00    +0.000 C 
ATOM      8  C   UNL     1      60.178 224.706 326.084  0.00  0.00    +0.000 A 
ATOM      9  C   UNL     1      59.724 223.924 323.971  0.00  0.00    +0.000 C 
ATOM     10  C   UNL     1      63.354 225.909 324.327  0.00  0.00    +0.000 C 
ATOM     11  C   UNL     1      59.113 224.081 325.223  0.00  0.00    +0.000 A 
ATOM     12  C   UNL     1      62.448 225.668 325.578  0.00  0.00    +0.000 C 
ATOM     13  C   UNL     1      61.288 225.635 322.927  0.00  0.00    +0.000 C 
ATOM     14  C   UNL     1      60.121 224.562 327.557  0.00  0.00    +0.000 A 
ATOM     15  C   UNL     1      58.351 223.245 325.867  0.00  0.00    +0.000 A 
ATOM     16  C   UNL     1      59.095 223.637 327.957  0.00  0.00    +0.000 A 
ATOM     17  C   UNL     1      62.863 227.591 322.499  0.00  0.00    +0.000 C 
ATOM     18  C   UNL     1      58.274 222.977 327.378  0.00  0.00    +0.000 A 
ENDROOT
BRANCH  14  19
ATOM     19  O   UNL     1      61.189 224.811 328.370  0.00  0.00    +0.000 OA
ATOM     20  H   UNL     1      61.583 225.696 328.226  0.00  0.00    +0.000 HD
ENDBRANCH  14  19
BRANCH  10  21
ATOM     21  C   UNL     1      64.481 226.819 324.664  0.00  0.00    +0.000 C 
BRANCH  21  22
ATOM     22  O   UNL     1      65.496 227.627 324.983  0.00  0.00    +0.000 OA
ATOM     23  H   UNL     1      66.347 227.150 324.964  0.00  0.00    +0.000 HD
ENDBRANCH  21  22
ENDBRANCH  10  21
TORSDOF 3
ENDMDL
MODEL 2
REMARK VINA RESULT:      -5.1     24.986     27.007
REMARK  Name = 6223_Gliotoxin.pdbqt.pdb
REMARK  3 active torsions:
REMARK  status: ('A' for Active; 'I' for Inactive)
REMARK    1  A    between atoms: C_10  and  C_21
REMARK    2  A    between atoms: C_14  and  O_19
REMARK    3  A    between atoms: C_21  and  O_22
REMARK                            x       y       z     vdW  Elec       q    Type
REMARK                         _______ _______ _______ _____ _____    ______ ____
ROOT
ATOM      1  S   UNL     1      61.730 231.948 351.634  0.00  0.00    +0.000 S 
ATOM      2  S   UNL     1      61.479 231.095 353.497  0.00  0.00    +0.000 S 
ATOM      3  O   UNL     1      63.602 228.257 352.736  0.00  0.00    +0.000 OA
ATOM      4  O   UNL     1      59.390 229.825 350.008  0.00  0.00    +0.000 OA
ATOM      5  N   UNL     1      62.722 229.477 350.998  0.00  0.00    +0.000 N 
ATOM      6  N   UNL     1      60.255 229.075 352.062  0.00  0.00    +0.000 N 
ATOM      7  C   UNL     1      61.664 230.453 350.590  0.00  0.00    +0.000 C 
ATOM      8  C   UNL     1      63.668 229.299 349.987  0.00  0.00    +0.000 A 
ATOM      9  C   UNL     1      62.041 230.720 349.204  0.00  0.00    +0.000 C 
ATOM     10  C   UNL     1      61.370 229.287 353.043  0.00  0.00    +0.000 C 
ATOM     11  C   UNL     1      63.182 230.033 348.767  0.00  0.00    +0.000 A 
ATOM     12  C   UNL     1      62.680 228.925 352.272  0.00  0.00    +0.000 C 
ATOM     13  C   UNL     1      60.324 229.748 350.808  0.00  0.00    +0.000 C 
ATOM     14  C   UNL     1      65.089 228.890 350.091  0.00  0.00    +0.000 A 
ATOM     15  C   UNL     1      64.144 230.459 348.001  0.00  0.00    +0.000 A 
ATOM     16  C   UNL     1      65.877 229.448 349.027  0.00  0.00    +0.000 A 
ATOM     17  C   UNL     1      59.084 228.330 352.523  0.00  0.00    +0.000 C 
ATOM     18  C   UNL     1      65.647 230.147 348.075  0.00  0.00    +0.000 A 
ENDROOT
BRANCH  14  19
ATOM     19  O   UNL     1      65.670 228.520 351.270  0.00  0.00    +0.000 OA
ATOM     20  H   UNL     1      66.460 229.053 351.493  0.00  0.00    +0.000 HD
ENDBRANCH  14  19
BRANCH  10  21
ATOM     21  C   UNL     1      61.261 228.491 354.295  0.00  0.00    +0.000 C 
BRANCH  21  22
ATOM     22  O   UNL     1      61.148 227.787 355.423  0.00  0.00    +0.000 OA
ATOM     23  H   UNL     1      61.616 226.933 355.356  0.00  0.00    +0.000 HD
ENDBRANCH  21  22
ENDBRANCH  10  21
TORSDOF 3
ENDMDL
MODEL 3
REMARK VINA RESULT:      -4.8     14.808     16.557
REMARK  Name = 6223_Gliotoxin.pdbqt.pdb
REMARK  3 active torsions:
REMARK  status: ('A' for Active; 'I' for Inactive)
REMARK    1  A    between atoms: C_10  and  C_21
REMARK    2  A    between atoms: C_14  and  O_19
REMARK    3  A    between atoms: C_21  and  O_22
REMARK                            x       y       z     vdW  Elec       q    Type
REMARK                         _______ _______ _______ _____ _____    ______ ____
ROOT
ATOM      1  S   UNL     1      70.231 218.260 337.752  0.00  0.00    +0.000 S 
ATOM      2  S   UNL     1      69.357 218.607 335.914  0.00  0.00    +0.000 S 
ATOM      3  O   UNL     1      69.188 222.193 336.417  0.00  0.00    +0.000 OA
ATOM      4  O   UNL     1      67.196 218.501 339.586  0.00  0.00    +0.000 OA
ATOM      5  N   UNL     1      69.433 220.830 338.251  0.00  0.00    +0.000 N 
ATOM      6  N   UNL     1      67.223 219.472 337.443  0.00  0.00    +0.000 N 
ATOM      7  C   UNL     1      69.289 219.438 338.779  0.00  0.00    +0.000 C 
ATOM      8  C   UNL     1      70.108 221.650 339.157  0.00  0.00    +0.000 A 
ATOM      9  C   UNL     1      69.845 219.581 340.122  0.00  0.00    +0.000 C 
ATOM     10  C   UNL     1      68.137 219.951 336.355  0.00  0.00    +0.000 C 
ATOM     11  C   UNL     1      70.299 220.871 340.430  0.00  0.00    +0.000 A 
ATOM     12  C   UNL     1      68.953 221.127 336.982  0.00  0.00    +0.000 C 
ATOM     13  C   UNL     1      67.799 219.098 338.692  0.00  0.00    +0.000 C 
ATOM     14  C   UNL     1      70.915 222.866 338.901  0.00  0.00    +0.000 A 
ATOM     15  C   UNL     1      71.361 221.222 341.097  0.00  0.00    +0.000 A 
ATOM     16  C   UNL     1      71.950 223.027 339.885  0.00  0.00    +0.000 A 
ATOM     17  C   UNL     1      65.819 219.253 337.097  0.00  0.00    +0.000 C 
ATOM     18  C   UNL     1      72.295 222.419 340.864  0.00  0.00    +0.000 A 
ENDROOT
BRANCH  14  19
ATOM     19  O   UNL     1      71.034 223.432 337.665  0.00  0.00    +0.000 OA
ATOM     20  H   UNL     1      70.745 224.367 337.640  0.00  0.00    +0.000 HD
ENDBRANCH  14  19
BRANCH  10  21
ATOM     21  C   UNL     1      67.450 220.393 335.112  0.00  0.00    +0.000 C 
BRANCH  21  22
ATOM     22  O   UNL     1      66.818 220.794 334.006  0.00  0.00    +0.000 OA
ATOM     23  H   UNL     1      67.437 220.880 333.257  0.00  0.00    +0.000 HD
ENDBRANCH  21  22
ENDBRANCH  10  21
TORSDOF 3
ENDMDL
MODEL 4
REMARK VINA RESULT:      -4.8     14.107     15.737
REMARK  Name = 6223_Gliotoxin.pdbqt.pdb
REMARK  3 active torsions:
REMARK  status: ('A' for Active; 'I' for Inactive)
REMARK    1  A    between atoms: C_10  and  C_21
REMARK    2  A    between atoms: C_14  and  O_19
REMARK    3  A    between atoms: C_21  and  O_22
REMARK                            x       y       z     vdW  Elec       q    Type
REMARK                         _______ _______ _______ _____ _____    ______ ____
ROOT
ATOM      1  S   UNL     1      70.569 218.934 336.733  0.00  0.00    +0.000 S 
ATOM      2  S   UNL     1      70.708 218.451 338.735  0.00  0.00    +0.000 S 
ATOM      3  O   UNL     1      67.197 219.096 339.368  0.00  0.00    +0.000 OA
ATOM      4  O   UNL     1      70.654 222.448 337.258  0.00  0.00    +0.000 OA
ATOM      5  N   UNL     1      68.168 220.005 337.493  0.00  0.00    +0.000 N 
ATOM      6  N   UNL     1      70.058 221.113 339.100  0.00  0.00    +0.000 N 
ATOM      7  C   UNL     1      69.456 220.377 336.831  0.00  0.00    +0.000 C 
ATOM      8  C   UNL     1      67.093 220.109 336.610  0.00  0.00    +0.000 A 
ATOM      9  C   UNL     1      68.987 220.815 335.519  0.00  0.00    +0.000 C 
ATOM     10  C   UNL     1      69.586 219.742 339.485  0.00  0.00    +0.000 C 
ATOM     11  C   UNL     1      67.600 220.733 335.338  0.00  0.00    +0.000 A 
ATOM     12  C   UNL     1      68.184 219.579 338.815  0.00  0.00    +0.000 C 
ATOM     13  C   UNL     1      70.100 221.447 337.716  0.00  0.00    +0.000 C 
ATOM     14  C   UNL     1      65.795 219.392 336.620  0.00  0.00    +0.000 A 
ATOM     15  C   UNL     1      66.938 220.363 334.279  0.00  0.00    +0.000 A 
ATOM     16  C   UNL     1      65.271 219.235 335.291  0.00  0.00    +0.000 A 
ATOM     17  C   UNL     1      70.610 221.958 340.159  0.00  0.00    +0.000 C 
ATOM     18  C   UNL     1      65.630 219.562 334.190  0.00  0.00    +0.000 A 
ENDROOT
BRANCH  14  19
ATOM     19  O   UNL     1      65.425 218.542 337.621  0.00  0.00    +0.000 OA
ATOM     20  H   UNL     1      66.095 218.467 338.330  0.00  0.00    +0.000 HD
ENDBRANCH  14  19
BRANCH  10  21
ATOM     21  C   UNL     1      69.499 219.499 340.950  0.00  0.00    +0.000 C 
BRANCH  21  22
ATOM     22  O   UNL     1      69.408 219.269 342.262  0.00  0.00    +0.000 OA
ATOM     23  H   UNL     1      68.478 219.275 342.559  0.00  0.00    +0.000 HD
ENDBRANCH  21  22
ENDBRANCH  10  21
TORSDOF 3
ENDMDL
MODEL 5
REMARK VINA RESULT:      -4.6     18.471     19.792
REMARK  Name = 6223_Gliotoxin.pdbqt.pdb
REMARK  3 active torsions:
REMARK  status: ('A' for Active; 'I' for Inactive)
REMARK    1  A    between atoms: C_10  and  C_21
REMARK    2  A    between atoms: C_14  and  O_19
REMARK    3  A    between atoms: C_21  and  O_22
REMARK                            x       y       z     vdW  Elec       q    Type
REMARK                         _______ _______ _______ _____ _____    ______ ____
ROOT
ATOM      1  S   UNL     1      68.560 244.482 331.681  0.00  0.00    +0.000 S 
ATOM      2  S   UNL     1      67.903 243.662 333.457  0.00  0.00    +0.000 S 
ATOM      3  O   UNL     1      67.819 240.288 332.132  0.00  0.00    +0.000 OA
ATOM      4  O   UNL     1      65.358 244.485 330.141  0.00  0.00    +0.000 OA
ATOM      5  N   UNL     1      67.812 242.055 330.661  0.00  0.00    +0.000 N 
ATOM      6  N   UNL     1      65.651 243.045 331.977  0.00  0.00    +0.000 N 
ATOM      7  C   UNL     1      67.559 243.520 330.497  0.00  0.00    +0.000 C 
ATOM      8  C   UNL     1      68.417 241.512 329.527  0.00  0.00    +0.000 A 
ATOM      9  C   UNL     1      67.973 243.728 329.112  0.00  0.00    +0.000 C 
ATOM     10  C   UNL     1      66.696 242.384 332.827  0.00  0.00    +0.000 C 
ATOM     11  C   UNL     1      68.440 242.577 328.463  0.00  0.00    +0.000 A 
ATOM     12  C   UNL     1      67.484 241.440 331.863  0.00  0.00    +0.000 C 
ATOM     13  C   UNL     1      66.076 243.735 330.805  0.00  0.00    +0.000 C 
ATOM     14  C   UNL     1      69.293 240.323 329.406  0.00  0.00    +0.000 A 
ATOM     15  C   UNL     1      69.436 242.459 327.633  0.00  0.00    +0.000 A 
ATOM     16  C   UNL     1      70.222 240.461 328.318  0.00  0.00    +0.000 A 
ATOM     17  C   UNL     1      64.285 243.088 332.498  0.00  0.00    +0.000 C 
ATOM     18  C   UNL     1      70.436 241.301 327.484  0.00  0.00    +0.000 A 
ENDROOT
BRANCH  14  19
ATOM     19  O   UNL     1      69.567 239.493 330.455  0.00  0.00    +0.000 OA
ATOM     20  H   UNL     1      70.304 238.875 330.274  0.00  0.00    +0.000 HD
ENDBRANCH  14  19
BRANCH  10  21
ATOM     21  C   UNL     1      66.164 241.622 333.989  0.00  0.00    +0.000 C 
BRANCH  21  22
ATOM     22  O   UNL     1      65.695 240.922 335.025  0.00  0.00    +0.000 OA
ATOM     23  H   UNL     1      66.372 240.313 335.376  0.00  0.00    +0.000 HD
ENDBRANCH  21  22
ENDBRANCH  10  21
TORSDOF 3
ENDMDL
MODEL 6
REMARK VINA RESULT:      -4.5      4.305      4.919
REMARK  Name = 6223_Gliotoxin.pdbqt.pdb
REMARK  3 active torsions:
REMARK  status: ('A' for Active; 'I' for Inactive)
REMARK    1  A    between atoms: C_10  and  C_21
REMARK    2  A    between atoms: C_14  and  O_19
REMARK    3  A    between atoms: C_21  and  O_22
REMARK                            x       y       z     vdW  Elec       q    Type
REMARK                         _______ _______ _______ _____ _____    ______ ____
ROOT
ATOM      1  S   UNL     1      62.639 220.003 328.994  0.00  0.00    +0.000 S 
ATOM      2  S   UNL     1      64.584 220.661 329.212  0.00  0.00    +0.000 S 
ATOM      3  O   UNL     1      63.888 223.910 327.762  0.00  0.00    +0.000 OA
ATOM      4  O   UNL     1      62.961 219.237 325.538  0.00  0.00    +0.000 OA
ATOM      5  N   UNL     1      62.433 222.179 327.346  0.00  0.00    +0.000 N 
ATOM      6  N   UNL     1      64.543 220.721 326.449  0.00  0.00    +0.000 N 
ATOM      7  C   UNL     1      62.253 220.694 327.349  0.00  0.00    +0.000 C 
ATOM      8  C   UNL     1      61.221 222.839 327.143  0.00  0.00    +0.000 A 
ATOM      9  C   UNL     1      60.837 220.577 327.010  0.00  0.00    +0.000 C 
ATOM     10  C   UNL     1      64.811 221.615 327.623  0.00  0.00    +0.000 C 
ATOM     11  C   UNL     1      60.179 221.801 326.822  0.00  0.00    +0.000 A 
ATOM     12  C   UNL     1      63.696 222.709 327.578  0.00  0.00    +0.000 C 
ATOM     13  C   UNL     1      63.247 220.140 326.327  0.00  0.00    +0.000 C 
ATOM     14  C   UNL     1      60.809 224.199 327.562  0.00  0.00    +0.000 A 
ATOM     15  C   UNL     1      58.978 222.142 327.188  0.00  0.00    +0.000 A 
ATOM     16  C   UNL     1      59.391 224.274 327.789  0.00  0.00    +0.000 A 
ATOM     17  C   UNL     1      65.679 220.363 325.600  0.00  0.00    +0.000 C 
ATOM     18  C   UNL     1      58.474 223.500 327.701  0.00  0.00    +0.000 A 
ENDROOT
BRANCH  14  19
ATOM     19  O   UNL     1      61.659 225.079 328.168  0.00  0.00    +0.000 OA
ATOM     20  H   UNL     1      62.326 225.452 327.556  0.00  0.00    +0.000 HD
ENDBRANCH  14  19
BRANCH  10  21
ATOM     21  C   UNL     1      66.160 222.241 327.635  0.00  0.00    +0.000 C 
BRANCH  21  22
ATOM     22  O   UNL     1      67.366 222.816 327.634  0.00  0.00    +0.000 OA
ATOM     23  H   UNL     1      67.629 223.085 326.734  0.00  0.00    +0.000 HD
ENDBRANCH  21  22
ENDBRANCH  10  21
TORSDOF 3
ENDMDL
MODEL 7
REMARK VINA RESULT:      -4.3     14.039     16.423
REMARK  Name = 6223_Gliotoxin.pdbqt.pdb
REMARK  3 active torsions:
REMARK  status: ('A' for Active; 'I' for Inactive)
REMARK    1  A    between atoms: C_10  and  C_21
REMARK    2  A    between atoms: C_14  and  O_19
REMARK    3  A    between atoms: C_21  and  O_22
REMARK                            x       y       z     vdW  Elec       q    Type
REMARK                         _______ _______ _______ _____ _____    ______ ____
ROOT
ATOM      1  S   UNL     1      59.601 214.554 336.641  0.00  0.00    +0.000 S 
ATOM      2  S   UNL     1      59.637 213.556 338.447  0.00  0.00    +0.000 S 
ATOM      3  O   UNL     1      58.328 216.386 340.297  0.00  0.00    +0.000 OA
ATOM      4  O   UNL     1      62.600 216.367 337.233  0.00  0.00    +0.000 OA
ATOM      5  N   UNL     1      59.276 216.755 338.235  0.00  0.00    +0.000 N 
ATOM      6  N   UNL     1      61.507 215.478 339.116  0.00  0.00    +0.000 N 
ATOM      7  C   UNL     1      60.176 216.201 337.177  0.00  0.00    +0.000 C 
ATOM      8  C   UNL     1      58.610 217.897 337.790  0.00  0.00    +0.000 A 
ATOM      9  C   UNL     1      60.042 217.210 336.130  0.00  0.00    +0.000 C 
ATOM     10  C   UNL     1      60.197 214.922 339.591  0.00  0.00    +0.000 C 
ATOM     11  C   UNL     1      59.175 218.266 336.445  0.00  0.00    +0.000 A 
ATOM     12  C   UNL     1      59.170 216.091 339.451  0.00  0.00    +0.000 C 
ATOM     13  C   UNL     1      61.559 216.064 337.818  0.00  0.00    +0.000 C 
ATOM     14  C   UNL     1      57.309 218.458 338.228  0.00  0.00    +0.000 A 
ATOM     15  C   UNL     1      58.321 218.875 335.673  0.00  0.00    +0.000 A 
ATOM     16  C   UNL     1      56.657 219.169 337.163  0.00  0.00    +0.000 A 
ATOM     17  C   UNL     1      62.686 215.228 339.944  0.00  0.00    +0.000 C 
ATOM     18  C   UNL     1      56.928 219.424 336.020  0.00  0.00    +0.000 A 
ENDROOT
BRANCH  14  19
ATOM     19  O   UNL     1      56.588 217.938 339.264  0.00  0.00    +0.000 OA
ATOM     20  H   UNL     1      56.539 216.960 339.246  0.00  0.00    +0.000 HD
ENDBRANCH  14  19
BRANCH  10  21
ATOM     21  C   UNL     1      60.210 214.398 340.983  0.00  0.00    +0.000 C 
BRANCH  21  22
ATOM     22  O   UNL     1      60.220 213.910 342.226  0.00  0.00    +0.000 OA
ATOM     23  H   UNL     1      59.319 213.687 342.526  0.00  0.00    +0.000 HD
ENDBRANCH  21  22
ENDBRANCH  10  21
TORSDOF 3
ENDMDL
MODEL 8
REMARK VINA RESULT:      -4.3     25.034     26.246
REMARK  Name = 6223_Gliotoxin.pdbqt.pdb
REMARK  3 active torsions:
REMARK  status: ('A' for Active; 'I' for Inactive)
REMARK    1  A    between atoms: C_10  and  C_21
REMARK    2  A    between atoms: C_14  and  O_19
REMARK    3  A    between atoms: C_21  and  O_22
REMARK                            x       y       z     vdW  Elec       q    Type
REMARK                         _______ _______ _______ _____ _____    ______ ____
ROOT
ATOM      1  S   UNL     1      59.154 251.959 333.721  0.00  0.00    +0.000 S 
ATOM      2  S   UNL     1      60.123 251.159 335.359  0.00  0.00    +0.000 S 
ATOM      3  O   UNL     1      61.290 248.251 333.536  0.00  0.00    +0.000 OA
ATOM      4  O   UNL     1      56.304 249.854 333.995  0.00  0.00    +0.000 OA
ATOM      5  N   UNL     1      59.519 249.449 332.691  0.00  0.00    +0.000 N 
ATOM      6  N   UNL     1      58.263 249.135 335.080  0.00  0.00    +0.000 N 
ATOM      7  C   UNL     1      58.442 250.440 333.002  0.00  0.00    +0.000 C 
ATOM      8  C   UNL     1      59.622 249.223 331.318  0.00  0.00    +0.000 A 
ATOM      9  C   UNL     1      57.868 250.662 331.678  0.00  0.00    +0.000 C 
ATOM     10  C   UNL     1      59.747 249.344 335.137  0.00  0.00    +0.000 C 
ATOM     11  C   UNL     1      58.480 249.937 330.646  0.00  0.00    +0.000 A 
ATOM     12  C   UNL     1      60.283 248.931 333.729  0.00  0.00    +0.000 C 
ATOM     13  C   UNL     1      57.533 249.774 334.037  0.00  0.00    +0.000 C 
ATOM     14  C   UNL     1      60.792 248.781 330.523  0.00  0.00    +0.000 A 
ATOM     15  C   UNL     1      58.751 250.320 329.432  0.00  0.00    +0.000 A 
ATOM     16  C   UNL     1      60.741 249.293 329.181  0.00  0.00    +0.000 A 
ATOM     17  C   UNL     1      57.637 248.430 336.198  0.00  0.00    +0.000 C 
ATOM     18  C   UNL     1      59.968 249.973 328.559  0.00  0.00    +0.000 A 
ENDROOT
BRANCH  14  19
ATOM     19  O   UNL     1      61.983 248.427 331.089  0.00  0.00    +0.000 OA
ATOM     20  H   UNL     1      62.099 247.458 331.165  0.00  0.00    +0.000 HD
ENDBRANCH  14  19
BRANCH  10  21
ATOM     21  C   UNL     1      60.444 248.582 336.208  0.00  0.00    +0.000 C 
BRANCH  21  22
ATOM     22  O   UNL     1      61.055 247.902 337.181  0.00  0.00    +0.000 OA
ATOM     23  H   UNL     1      61.990 247.729 336.959  0.00  0.00    +0.000 HD
ENDBRANCH  21  22
ENDBRANCH  10  21
TORSDOF 3
ENDMDL
MODEL 9
REMARK VINA RESULT:      -4.2     27.075     28.257
REMARK  Name = 6223_Gliotoxin.pdbqt.pdb
REMARK  3 active torsions:
REMARK  status: ('A' for Active; 'I' for Inactive)
REMARK    1  A    between atoms: C_10  and  C_21
REMARK    2  A    between atoms: C_14  and  O_19
REMARK    3  A    between atoms: C_21  and  O_22
REMARK                            x       y       z     vdW  Elec       q    Type
REMARK                         _______ _______ _______ _____ _____    ______ ____
ROOT
ATOM      1  S   UNL     1      42.251 232.380 346.938  0.00  0.00    +0.000 S 
ATOM      2  S   UNL     1      42.793 230.478 347.530  0.00  0.00    +0.000 S 
ATOM      3  O   UNL     1      46.343 231.154 347.241  0.00  0.00    +0.000 OA
ATOM      4  O   UNL     1      42.732 231.770 343.470  0.00  0.00    +0.000 OA
ATOM      5  N   UNL     1      44.864 232.521 346.134  0.00  0.00    +0.000 N 
ATOM      6  N   UNL     1      43.808 230.307 344.965  0.00  0.00    +0.000 N 
ATOM      7  C   UNL     1      43.470 232.658 345.608  0.00  0.00    +0.000 C 
ATOM      8  C   UNL     1      45.552 233.733 346.071  0.00  0.00    +0.000 A 
ATOM      9  C   UNL     1      43.477 234.039 345.133  0.00  0.00    +0.000 C 
ATOM     10  C   UNL     1      44.240 230.157 346.393  0.00  0.00    +0.000 C 
ATOM     11  C   UNL     1      44.689 234.716 345.326  0.00  0.00    +0.000 A 
ATOM     12  C   UNL     1      45.281 231.296 346.638  0.00  0.00    +0.000 C 
ATOM     13  C   UNL     1      43.305 231.572 344.543  0.00  0.00    +0.000 C 
ATOM     14  C   UNL     1      46.682 234.216 346.900  0.00  0.00    +0.000 A 
ATOM     15  C   UNL     1      44.881 235.952 345.687  0.00  0.00    +0.000 A 
ATOM     16  C   UNL     1      46.672 235.648 347.020  0.00  0.00    +0.000 A 
ATOM     17  C   UNL     1      43.768 229.099 344.142  0.00  0.00    +0.000 C 
ATOM     18  C   UNL     1      45.977 236.533 346.595  0.00  0.00    +0.000 A 
ENDROOT
BRANCH  14  19
ATOM     19  O   UNL     1      47.297 233.441 347.840  0.00  0.00    +0.000 OA
ATOM     20  H   UNL     1      47.518 233.931 348.658  0.00  0.00    +0.000 HD
ENDBRANCH  14  19
BRANCH  10  21
ATOM     21  C   UNL     1      44.823 228.831 346.733  0.00  0.00    +0.000 C 
BRANCH  21  22
ATOM     22  O   UNL     1      45.356 227.649 347.053  0.00  0.00    +0.000 OA
ATOM     23  H   UNL     1      46.255 227.753 347.418  0.00  0.00    +0.000 HD
ENDBRANCH  21  22
ENDBRANCH  10  21
TORSDOF 3
ENDMDL
