MODEL 1
REMARK VINA RESULT:      -5.2      0.000      0.000
REMARK  Name = 6256_Trifluridine.pdbqt.pdb
REMARK  5 active torsions:
REMARK  status: ('A' for Active; 'I' for Inactive)
REMARK    1  A    between atoms: N_3  and  C1*_11
REMARK    2  A    between atoms: C_7  and  C_23
REMARK    3  A    between atoms: C3*_12  and  O3*_15
REMARK    4  A    between atoms: C4*_14  and  C5*_17
REMARK    5  A    between atoms: C5*_17  and  O5*_18
REMARK                            x       y       z     vdW  Elec       q    Type
REMARK                         _______ _______ _______ _____ _____    ______ ____
ROOT
ATOM      1  O   UNL     1      49.121 243.028 328.536  0.00  0.00    +0.000 OA
ATOM      2  O   UNL     1      53.048 245.304 327.857  0.00  0.00    +0.000 OA
ATOM      3  N   UNL     1      50.452 242.421 326.673  0.00  0.00    +0.000 N 
ATOM      4  N   UNL     1      51.101 244.125 328.148  0.00  0.00    +0.000 N 
ATOM      5  C   UNL     1      51.609 242.743 326.061  0.00  0.00    +0.000 A 
ATOM      6  C   UNL     1      50.118 243.155 327.834  0.00  0.00    +0.000 A 
ATOM      7  C   UNL     1      52.555 243.601 326.266  0.00  0.00    +0.000 A 
ATOM      8  C   UNL     1      52.291 244.424 327.473  0.00  0.00    +0.000 A 
ATOM      9  H   UNL     1      50.907 244.679 328.970  0.00  0.00    +0.000 HD
ENDROOT
BRANCH   3  11
ATOM     10  O4* UNL     1      49.952 240.075 326.368  0.00  0.00    +0.000 OA
ATOM     11  C1* UNL     1      49.677 241.428 326.147  0.00  0.00    +0.000 A 
ATOM     12  C3* UNL     1      48.087 240.258 325.008  0.00  0.00    +0.000 A 
ATOM     13  C2* UNL     1      48.549 241.550 325.312  0.00  0.00    +0.000 A 
ATOM     14  C4* UNL     1      48.982 239.343 325.671  0.00  0.00    +0.000 A 
BRANCH  12  15
ATOM     15  O3* UNL     1      47.476 239.917 323.834  0.00  0.00    +0.000 OA
ATOM     16  H3* UNL     1      48.046 239.337 323.300  0.00  0.00    +0.000 HD
ENDBRANCH  12  15
BRANCH  14  17
ATOM     17  C5* UNL     1      49.065 237.947 325.501  0.00  0.00    +0.000 C 
BRANCH  17  18
ATOM     18  O5* UNL     1      49.146 236.630 325.338  0.00  0.00    +0.000 OA
ATOM     19  H5* UNL     1      49.975 236.398 324.884  0.00  0.00    +0.000 HD
ENDBRANCH  17  18
ENDBRANCH  14  17
ENDBRANCH   3  11
BRANCH   7  23
ATOM     20  F   UNL     1      54.898 243.468 326.136  0.00  0.00    +0.000 F 
ATOM     21  F   UNL     1      53.767 243.207 324.300  0.00  0.00    +0.000 F 
ATOM     22  F   UNL     1      53.921 245.181 325.189  0.00  0.00    +0.000 F 
ATOM     23  C   UNL     1      53.773 243.868 325.491  0.00  0.00    +0.000 C 
ENDBRANCH   7  23
TORSDOF 5
ENDMDL
MODEL 2
REMARK VINA RESULT:      -4.8     12.453     14.643
REMARK  Name = 6256_Trifluridine.pdbqt.pdb
REMARK  5 active torsions:
REMARK  status: ('A' for Active; 'I' for Inactive)
REMARK    1  A    between atoms: N_3  and  C1*_11
REMARK    2  A    between atoms: C_7  and  C_23
REMARK    3  A    between atoms: C3*_12  and  O3*_15
REMARK    4  A    between atoms: C4*_14  and  C5*_17
REMARK    5  A    between atoms: C5*_17  and  O5*_18
REMARK                            x       y       z     vdW  Elec       q    Type
REMARK                         _______ _______ _______ _____ _____    ______ ____
ROOT
ATOM      1  O   UNL     1      63.714 240.942 317.422  0.00  0.00    +0.000 OA
ATOM      2  O   UNL     1      59.822 238.728 316.414  0.00  0.00    +0.000 OA
ATOM      3  N   UNL     1      62.407 240.114 319.216  0.00  0.00    +0.000 N 
ATOM      4  N   UNL     1      61.760 239.819 316.981  0.00  0.00    +0.000 N 
ATOM      5  C   UNL     1      61.264 239.442 319.457  0.00  0.00    +0.000 A 
ATOM      6  C   UNL     1      62.732 240.353 317.861  0.00  0.00    +0.000 A 
ATOM      7  C   UNL     1      60.325 238.926 318.734  0.00  0.00    +0.000 A 
ATOM      8  C   UNL     1      60.581 239.128 317.285  0.00  0.00    +0.000 A 
ATOM      9  H   UNL     1      61.946 239.966 315.999  0.00  0.00    +0.000 HD
ENDROOT
BRANCH   3  11
ATOM     10  O4* UNL     1      64.438 239.988 320.522  0.00  0.00    +0.000 OA
ATOM     11  C1* UNL     1      63.171 240.525 320.269  0.00  0.00    +0.000 A 
ATOM     12  C3* UNL     1      63.940 241.558 322.150  0.00  0.00    +0.000 A 
ATOM     13  C2* UNL     1      62.854 241.475 321.260  0.00  0.00    +0.000 A 
ATOM     14  C4* UNL     1      64.922 240.614 321.678  0.00  0.00    +0.000 A 
BRANCH  12  15
ATOM     15  O3* UNL     1      63.821 241.843 323.481  0.00  0.00    +0.000 OA
ATOM     16  H3* UNL     1      63.833 242.804 323.634  0.00  0.00    +0.000 HD
ENDBRANCH  12  15
BRANCH  14  17
ATOM     17  C5* UNL     1      66.084 240.179 322.345  0.00  0.00    +0.000 C 
BRANCH  17  18
ATOM     18  O5* UNL     1      67.179 239.766 322.977  0.00  0.00    +0.000 OA
ATOM     19  H5* UNL     1      67.968 239.952 322.439  0.00  0.00    +0.000 HD
ENDBRANCH  17  18
ENDBRANCH  14  17
ENDBRANCH   3  11
BRANCH   7  23
ATOM     20  F   UNL     1      59.063 236.942 318.701  0.00  0.00    +0.000 F 
ATOM     21  F   UNL     1      58.972 238.169 320.490  0.00  0.00    +0.000 F 
ATOM     22  F   UNL     1      57.977 238.841 318.682  0.00  0.00    +0.000 F 
ATOM     23  C   UNL     1      59.097 238.227 319.136  0.00  0.00    +0.000 C 
ENDBRANCH   7  23
TORSDOF 5
ENDMDL
MODEL 3
REMARK VINA RESULT:      -4.7      1.068      2.019
REMARK  Name = 6256_Trifluridine.pdbqt.pdb
REMARK  5 active torsions:
REMARK  status: ('A' for Active; 'I' for Inactive)
REMARK    1  A    between atoms: N_3  and  C1*_11
REMARK    2  A    between atoms: C_7  and  C_23
REMARK    3  A    between atoms: C3*_12  and  O3*_15
REMARK    4  A    between atoms: C4*_14  and  C5*_17
REMARK    5  A    between atoms: C5*_17  and  O5*_18
REMARK                            x       y       z     vdW  Elec       q    Type
REMARK                         _______ _______ _______ _____ _____    ______ ____
ROOT
ATOM      1  O   UNL     1      49.165 243.230 328.774  0.00  0.00    +0.000 OA
ATOM      2  O   UNL     1      53.093 245.402 327.820  0.00  0.00    +0.000 OA
ATOM      3  N   UNL     1      50.404 242.512 326.888  0.00  0.00    +0.000 N 
ATOM      4  N   UNL     1      51.142 244.273 328.249  0.00  0.00    +0.000 N 
ATOM      5  C   UNL     1      51.538 242.785 326.212  0.00  0.00    +0.000 A 
ATOM      6  C   UNL     1      50.132 243.306 328.025  0.00  0.00    +0.000 A 
ATOM      7  C   UNL     1      52.505 243.635 326.334  0.00  0.00    +0.000 A 
ATOM      8  C   UNL     1      52.306 244.519 327.511  0.00  0.00    +0.000 A 
ATOM      9  H   UNL     1      50.993 244.868 329.052  0.00  0.00    +0.000 HD
ENDROOT
BRANCH   3  11
ATOM     10  O4* UNL     1      48.291 241.752 325.989  0.00  0.00    +0.000 OA
ATOM     11  C1* UNL     1      49.592 241.509 326.444  0.00  0.00    +0.000 A 
ATOM     12  C3* UNL     1      48.723 239.480 325.875  0.00  0.00    +0.000 A 
ATOM     13  C2* UNL     1      49.861 240.127 326.387  0.00  0.00    +0.000 A 
ATOM     14  C4* UNL     1      47.744 240.512 325.637  0.00  0.00    +0.000 A 
BRANCH  12  15
ATOM     15  O3* UNL     1      48.341 238.214 326.217  0.00  0.00    +0.000 OA
ATOM     16  H3* UNL     1      47.534 238.228 326.762  0.00  0.00    +0.000 HD
ENDBRANCH  12  15
BRANCH  14  17
ATOM     17  C5* UNL     1      46.380 240.347 325.329  0.00  0.00    +0.000 C 
BRANCH  17  18
ATOM     18  O5* UNL     1      45.093 240.191 325.033  0.00  0.00    +0.000 OA
ATOM     19  H5* UNL     1      44.585 240.968 325.323  0.00  0.00    +0.000 HD
ENDBRANCH  17  18
ENDBRANCH  14  17
ENDBRANCH   3  11
BRANCH   7  23
ATOM     20  F   UNL     1      53.881 245.148 325.176  0.00  0.00    +0.000 F 
ATOM     21  F   UNL     1      54.831 243.443 326.129  0.00  0.00    +0.000 F 
ATOM     22  F   UNL     1      53.641 243.142 324.338  0.00  0.00    +0.000 F 
ATOM     23  C   UNL     1      53.693 243.844 325.497  0.00  0.00    +0.000 C 
ENDBRANCH   7  23
TORSDOF 5
ENDMDL
MODEL 4
REMARK VINA RESULT:      -4.6      7.364     10.417
REMARK  Name = 6256_Trifluridine.pdbqt.pdb
REMARK  5 active torsions:
REMARK  status: ('A' for Active; 'I' for Inactive)
REMARK    1  A    between atoms: N_3  and  C1*_11
REMARK    2  A    between atoms: C_7  and  C_23
REMARK    3  A    between atoms: C3*_12  and  O3*_15
REMARK    4  A    between atoms: C4*_14  and  C5*_17
REMARK    5  A    between atoms: C5*_17  and  O5*_18
REMARK                            x       y       z     vdW  Elec       q    Type
REMARK                         _______ _______ _______ _____ _____    ______ ____
ROOT
ATOM      1  O   UNL     1      44.993 236.749 324.514  0.00  0.00    +0.000 OA
ATOM      2  O   UNL     1      43.795 232.351 323.974  0.00  0.00    +0.000 OA
ATOM      3  N   UNL     1      46.708 235.172 324.087  0.00  0.00    +0.000 N 
ATOM      4  N   UNL     1      44.456 234.535 324.228  0.00  0.00    +0.000 N 
ATOM      5  C   UNL     1      46.890 233.855 323.867  0.00  0.00    +0.000 A 
ATOM      6  C   UNL     1      45.379 235.606 324.295  0.00  0.00    +0.000 A 
ATOM      7  C   UNL     1      46.125 232.816 323.791  0.00  0.00    +0.000 A 
ATOM      8  C   UNL     1      44.699 233.175 323.998  0.00  0.00    +0.000 A 
ATOM      9  H   UNL     1      43.490 234.793 324.372  0.00  0.00    +0.000 HD
ENDROOT
BRANCH   3  11
ATOM     10  O4* UNL     1      48.133 236.756 325.231  0.00  0.00    +0.000 OA
ATOM     11  C1* UNL     1      47.794 235.999 324.105  0.00  0.00    +0.000 A 
ATOM     12  C3* UNL     1      49.649 237.195 323.536  0.00  0.00    +0.000 A 
ATOM     13  C2* UNL     1      48.705 236.266 323.064  0.00  0.00    +0.000 A 
ATOM     14  C4* UNL     1      49.273 237.498 324.894  0.00  0.00    +0.000 A 
BRANCH  12  15
ATOM     15  O3* UNL     1      50.266 238.128 322.752  0.00  0.00    +0.000 OA
ATOM     16  H3* UNL     1      49.633 238.545 322.142  0.00  0.00    +0.000 HD
ENDBRANCH  12  15
BRANCH  14  17
ATOM     17  C5* UNL     1      49.778 238.524 325.717  0.00  0.00    +0.000 C 
BRANCH  17  18
ATOM     18  O5* UNL     1      50.258 239.492 326.492  0.00  0.00    +0.000 OA
ATOM     19  H5* UNL     1      51.215 239.596 326.346  0.00  0.00    +0.000 HD
ENDBRANCH  17  18
ENDBRANCH  14  17
ENDBRANCH   3  11
BRANCH   7  23
ATOM     20  F   UNL     1      45.874 230.900 322.452  0.00  0.00    +0.000 F 
ATOM     21  F   UNL     1      47.804 231.232 323.391  0.00  0.00    +0.000 F 
ATOM     22  F   UNL     1      46.116 230.612 324.608  0.00  0.00    +0.000 F 
ATOM     23  C   UNL     1      46.464 231.405 323.565  0.00  0.00    +0.000 C 
ENDBRANCH   7  23
TORSDOF 5
ENDMDL
MODEL 5
REMARK VINA RESULT:      -4.6     28.761     30.200
REMARK  Name = 6256_Trifluridine.pdbqt.pdb
REMARK  5 active torsions:
REMARK  status: ('A' for Active; 'I' for Inactive)
REMARK    1  A    between atoms: N_3  and  C1*_11
REMARK    2  A    between atoms: C_7  and  C_23
REMARK    3  A    between atoms: C3*_12  and  O3*_15
REMARK    4  A    between atoms: C4*_14  and  C5*_17
REMARK    5  A    between atoms: C5*_17  and  O5*_18
REMARK                            x       y       z     vdW  Elec       q    Type
REMARK                         _______ _______ _______ _____ _____    ______ ____
ROOT
ATOM      1  O   UNL     1      68.935 217.619 339.036  0.00  0.00    +0.000 OA
ATOM      2  O   UNL     1      71.497 221.201 340.329  0.00  0.00    +0.000 OA
ATOM      3  N   UNL     1      68.380 219.754 338.174  0.00  0.00    +0.000 N 
ATOM      4  N   UNL     1      70.184 219.449 339.640  0.00  0.00    +0.000 N 
ATOM      5  C   UNL     1      68.775 221.041 338.227  0.00  0.00    +0.000 A 
ATOM      6  C   UNL     1      69.123 218.826 338.938  0.00  0.00    +0.000 A 
ATOM      7  C   UNL     1      69.712 221.696 338.831  0.00  0.00    +0.000 A 
ATOM      8  C   UNL     1      70.552 220.799 339.664  0.00  0.00    +0.000 A 
ATOM      9  H   UNL     1      70.746 218.827 340.204  0.00  0.00    +0.000 HD
ENDROOT
BRANCH   3  11
ATOM     10  O4* UNL     1      67.134 219.911 336.107  0.00  0.00    +0.000 OA
ATOM     11  C1* UNL     1      67.301 219.421 337.406  0.00  0.00    +0.000 A 
ATOM     12  C3* UNL     1      65.331 218.563 336.647  0.00  0.00    +0.000 A 
ATOM     13  C2* UNL     1      66.203 218.606 337.748  0.00  0.00    +0.000 A 
ATOM     14  C4* UNL     1      65.924 219.392 335.628  0.00  0.00    +0.000 A 
BRANCH  12  15
ATOM     15  O3* UNL     1      63.974 218.434 336.747  0.00  0.00    +0.000 OA
ATOM     16  H3* UNL     1      63.558 219.288 336.962  0.00  0.00    +0.000 HD
ENDBRANCH  12  15
BRANCH  14  17
ATOM     17  C5* UNL     1      65.333 219.834 334.429  0.00  0.00    +0.000 C 
BRANCH  17  18
ATOM     18  O5* UNL     1      64.772 220.249 333.297  0.00  0.00    +0.000 OA
ATOM     19  H5* UNL     1      63.878 219.875 333.208  0.00  0.00    +0.000 HD
ENDBRANCH  17  18
ENDBRANCH  14  17
ENDBRANCH   3  11
BRANCH   7  23
ATOM     20  F   UNL     1      70.128 223.652 340.067  0.00  0.00    +0.000 F 
ATOM     21  F   UNL     1      71.209 223.385 338.203  0.00  0.00    +0.000 F 
ATOM     22  F   UNL     1      69.091 223.859 338.151  0.00  0.00    +0.000 F 
ATOM     23  C   UNL     1      70.021 223.132 338.818  0.00  0.00    +0.000 C 
ENDBRANCH   7  23
TORSDOF 5
ENDMDL
MODEL 6
REMARK VINA RESULT:      -4.5     15.958     18.406
REMARK  Name = 6256_Trifluridine.pdbqt.pdb
REMARK  5 active torsions:
REMARK  status: ('A' for Active; 'I' for Inactive)
REMARK    1  A    between atoms: N_3  and  C1*_11
REMARK    2  A    between atoms: C_7  and  C_23
REMARK    3  A    between atoms: C3*_12  and  O3*_15
REMARK    4  A    between atoms: C4*_14  and  C5*_17
REMARK    5  A    between atoms: C5*_17  and  O5*_18
REMARK                            x       y       z     vdW  Elec       q    Type
REMARK                         _______ _______ _______ _____ _____    ______ ____
ROOT
ATOM      1  O   UNL     1      68.145 240.316 333.926  0.00  0.00    +0.000 OA
ATOM      2  O   UNL     1      67.589 238.682 338.179  0.00  0.00    +0.000 OA
ATOM      3  N   UNL     1      66.238 241.012 335.147  0.00  0.00    +0.000 N 
ATOM      4  N   UNL     1      67.815 239.538 336.062  0.00  0.00    +0.000 N 
ATOM      5  C   UNL     1      65.641 240.847 336.344  0.00  0.00    +0.000 A 
ATOM      6  C   UNL     1      67.446 240.311 334.933  0.00  0.00    +0.000 A 
ATOM      7  C   UNL     1      65.894 240.172 337.417  0.00  0.00    +0.000 A 
ATOM      8  C   UNL     1      67.154 239.397 337.288  0.00  0.00    +0.000 A 
ATOM      9  H   UNL     1      68.673 239.015 335.959  0.00  0.00    +0.000 HD
ENDROOT
BRANCH   3  11
ATOM     10  O4* UNL     1      65.940 243.195 334.148  0.00  0.00    +0.000 OA
ATOM     11  C1* UNL     1      65.654 241.828 334.220  0.00  0.00    +0.000 A 
ATOM     12  C3* UNL     1      64.374 242.660 332.529  0.00  0.00    +0.000 A 
ATOM     13  C2* UNL     1      64.694 241.494 333.245  0.00  0.00    +0.000 A 
ATOM     14  C4* UNL     1      65.158 243.720 333.112  0.00  0.00    +0.000 A 
BRANCH  12  15
ATOM     15  O3* UNL     1      63.148 242.912 331.980  0.00  0.00    +0.000 OA
ATOM     16  H3* UNL     1      62.975 242.321 331.227  0.00  0.00    +0.000 HD
ENDBRANCH  12  15
BRANCH  14  17
ATOM     17  C5* UNL     1      65.035 245.105 332.884  0.00  0.00    +0.000 C 
BRANCH  17  18
ATOM     18  O5* UNL     1      64.914 246.411 332.669  0.00  0.00    +0.000 OA
ATOM     19  H5* UNL     1      64.695 246.580 331.736  0.00  0.00    +0.000 HD
ENDBRANCH  17  18
ENDBRANCH  14  17
ENDBRANCH   3  11
BRANCH   7  23
ATOM     20  F   UNL     1      64.795 238.779 338.959  0.00  0.00    +0.000 F 
ATOM     21  F   UNL     1      65.843 240.517 339.734  0.00  0.00    +0.000 F 
ATOM     22  F   UNL     1      63.986 240.787 338.643  0.00  0.00    +0.000 F 
ATOM     23  C   UNL     1      65.130 240.061 338.666  0.00  0.00    +0.000 C 
ENDBRANCH   7  23
TORSDOF 5
ENDMDL
MODEL 7
REMARK VINA RESULT:      -4.3     16.659     19.074
REMARK  Name = 6256_Trifluridine.pdbqt.pdb
REMARK  5 active torsions:
REMARK  status: ('A' for Active; 'I' for Inactive)
REMARK    1  A    between atoms: N_3  and  C1*_11
REMARK    2  A    between atoms: C_7  and  C_23
REMARK    3  A    between atoms: C3*_12  and  O3*_15
REMARK    4  A    between atoms: C4*_14  and  C5*_17
REMARK    5  A    between atoms: C5*_17  and  O5*_18
REMARK                            x       y       z     vdW  Elec       q    Type
REMARK                         _______ _______ _______ _____ _____    ______ ____
ROOT
ATOM      1  O   UNL     1      68.301 239.613 334.272  0.00  0.00    +0.000 OA
ATOM      2  O   UNL     1      67.224 237.396 338.144  0.00  0.00    +0.000 OA
ATOM      3  N   UNL     1      66.710 240.606 335.718  0.00  0.00    +0.000 N 
ATOM      4  N   UNL     1      67.727 238.555 336.228  0.00  0.00    +0.000 N 
ATOM      5  C   UNL     1      66.083 240.393 336.892  0.00  0.00    +0.000 A 
ATOM      6  C   UNL     1      67.631 239.620 335.299  0.00  0.00    +0.000 A 
ATOM      7  C   UNL     1      66.100 239.467 337.794  0.00  0.00    +0.000 A 
ATOM      8  C   UNL     1      67.047 238.379 337.439  0.00  0.00    +0.000 A 
ATOM      9  H   UNL     1      68.373 237.822 335.973  0.00  0.00    +0.000 HD
ENDROOT
BRANCH   3  11
ATOM     10  O4* UNL     1      65.385 241.781 334.071  0.00  0.00    +0.000 OA
ATOM     11  C1* UNL     1      66.423 241.736 335.007  0.00  0.00    +0.000 A 
ATOM     12  C3* UNL     1      66.447 243.838 334.127  0.00  0.00    +0.000 A 
ATOM     13  C2* UNL     1      67.083 242.980 335.042  0.00  0.00    +0.000 A 
ATOM     14  C4* UNL     1      65.390 243.069 333.521  0.00  0.00    +0.000 A 
BRANCH  12  15
ATOM     15  O3* UNL     1      67.084 244.828 333.433  0.00  0.00    +0.000 OA
ATOM     16  H3* UNL     1      66.551 245.642 333.418  0.00  0.00    +0.000 HD
ENDBRANCH  12  15
BRANCH  14  17
ATOM     17  C5* UNL     1      64.611 243.415 332.399  0.00  0.00    +0.000 C 
BRANCH  17  18
ATOM     18  O5* UNL     1      63.879 243.743 331.338  0.00  0.00    +0.000 OA
ATOM     19  H5* UNL     1      63.740 242.964 330.772  0.00  0.00    +0.000 HD
ENDBRANCH  17  18
ENDBRANCH  14  17
ENDBRANCH   3  11
BRANCH   7  23
ATOM     20  F   UNL     1      64.412 240.332 339.182  0.00  0.00    +0.000 F 
ATOM     21  F   UNL     1      64.641 238.175 339.094  0.00  0.00    +0.000 F 
ATOM     22  F   UNL     1      66.123 239.365 340.142  0.00  0.00    +0.000 F 
ATOM     23  C   UNL     1      65.333 239.346 339.041  0.00  0.00    +0.000 C 
ENDBRANCH   7  23
TORSDOF 5
ENDMDL
MODEL 8
REMARK VINA RESULT:      -4.1     22.315     24.272
REMARK  Name = 6256_Trifluridine.pdbqt.pdb
REMARK  5 active torsions:
REMARK  status: ('A' for Active; 'I' for Inactive)
REMARK    1  A    between atoms: N_3  and  C1*_11
REMARK    2  A    between atoms: C_7  and  C_23
REMARK    3  A    between atoms: C3*_12  and  O3*_15
REMARK    4  A    between atoms: C4*_14  and  C5*_17
REMARK    5  A    between atoms: C5*_17  and  O5*_18
REMARK                            x       y       z     vdW  Elec       q    Type
REMARK                         _______ _______ _______ _____ _____    ______ ____
ROOT
ATOM      1  O   UNL     1      49.384 216.448 333.455  0.00  0.00    +0.000 OA
ATOM      2  O   UNL     1      53.939 216.254 332.921  0.00  0.00    +0.000 OA
ATOM      3  N   UNL     1      50.481 218.342 332.548  0.00  0.00    +0.000 N 
ATOM      4  N   UNL     1      51.661 216.409 333.157  0.00  0.00    +0.000 N 
ATOM      5  C   UNL     1      51.709 218.779 332.208  0.00  0.00    +0.000 A 
ATOM      6  C   UNL     1      50.393 217.036 333.081  0.00  0.00    +0.000 A 
ATOM      7  C   UNL     1      52.906 218.291 332.242  0.00  0.00    +0.000 A 
ATOM      8  C   UNL     1      52.915 216.911 332.791  0.00  0.00    +0.000 A 
ATOM      9  H   UNL     1      51.653 215.472 333.533  0.00  0.00    +0.000 HD
ENDROOT
BRANCH   3  11
ATOM     10  O4* UNL     1      48.820 219.363 331.117  0.00  0.00    +0.000 OA
ATOM     11  C1* UNL     1      49.409 219.168 332.371  0.00  0.00    +0.000 A 
ATOM     12  C3* UNL     1      47.711 220.656 332.685  0.00  0.00    +0.000 A 
ATOM     13  C2* UNL     1      48.747 219.959 333.331  0.00  0.00    +0.000 A 
ATOM     14  C4* UNL     1      47.775 220.278 331.296  0.00  0.00    +0.000 A 
BRANCH  12  15
ATOM     15  O3* UNL     1      47.271 221.895 333.057  0.00  0.00    +0.000 OA
ATOM     16  H3* UNL     1      46.774 221.852 333.893  0.00  0.00    +0.000 HD
ENDBRANCH  12  15
BRANCH  14  17
ATOM     17  C5* UNL     1      47.089 220.864 330.214  0.00  0.00    +0.000 C 
BRANCH  17  18
ATOM     18  O5* UNL     1      46.439 221.418 329.195  0.00  0.00    +0.000 OA
ATOM     19  H5* UNL     1      46.960 222.151 328.822  0.00  0.00    +0.000 HD
ENDBRANCH  17  18
ENDBRANCH  14  17
ENDBRANCH   3  11
BRANCH   7  23
ATOM     20  F   UNL     1      54.906 218.105 331.020  0.00  0.00    +0.000 F 
ATOM     21  F   UNL     1      54.005 220.074 331.191  0.00  0.00    +0.000 F 
ATOM     22  F   UNL     1      54.970 219.186 332.921  0.00  0.00    +0.000 F 
ATOM     23  C   UNL     1      54.186 218.898 331.854  0.00  0.00    +0.000 C 
ENDBRANCH   7  23
TORSDOF 5
ENDMDL
MODEL 9
REMARK VINA RESULT:      -4.1     29.693     30.749
REMARK  Name = 6256_Trifluridine.pdbqt.pdb
REMARK  5 active torsions:
REMARK  status: ('A' for Active; 'I' for Inactive)
REMARK    1  A    between atoms: N_3  and  C1*_11
REMARK    2  A    between atoms: C_7  and  C_23
REMARK    3  A    between atoms: C3*_12  and  O3*_15
REMARK    4  A    between atoms: C4*_14  and  C5*_17
REMARK    5  A    between atoms: C5*_17  and  O5*_18
REMARK                            x       y       z     vdW  Elec       q    Type
REMARK                         _______ _______ _______ _____ _____    ______ ____
ROOT
ATOM      1  O   UNL     1      72.549 221.317 335.029  0.00  0.00    +0.000 OA
ATOM      2  O   UNL     1      75.273 225.003 334.787  0.00  0.00    +0.000 OA
ATOM      3  N   UNL     1      72.296 222.999 336.677  0.00  0.00    +0.000 N 
ATOM      4  N   UNL     1      73.878 223.189 334.957  0.00  0.00    +0.000 N 
ATOM      5  C   UNL     1      72.801 224.194 337.043  0.00  0.00    +0.000 A 
ATOM      6  C   UNL     1      72.855 222.394 335.529  0.00  0.00    +0.000 A 
ATOM      7  C   UNL     1      73.721 224.984 336.595  0.00  0.00    +0.000 A 
ATOM      8  C   UNL     1      74.370 224.429 335.380  0.00  0.00    +0.000 A 
ATOM      9  H   UNL     1      74.312 222.798 334.133  0.00  0.00    +0.000 HD
ENDROOT
BRANCH   3  11
ATOM     10  O4* UNL     1      71.536 221.859 338.671  0.00  0.00    +0.000 OA
ATOM     11  C1* UNL     1      71.296 222.444 337.423  0.00  0.00    +0.000 A 
ATOM     12  C3* UNL     1      69.285 221.670 338.165  0.00  0.00    +0.000 A 
ATOM     13  C2* UNL     1      69.929 222.326 337.101  0.00  0.00    +0.000 A 
ATOM     14  C4* UNL     1      70.307 221.377 339.138  0.00  0.00    +0.000 A 
BRANCH  12  15
ATOM     15  O3* UNL     1      68.199 220.854 338.018  0.00  0.00    +0.000 OA
ATOM     16  H3* UNL     1      67.374 221.333 338.208  0.00  0.00    +0.000 HD
ENDBRANCH  12  15
BRANCH  14  17
ATOM     17  C5* UNL     1      70.201 220.549 340.272  0.00  0.00    +0.000 C 
BRANCH  17  18
ATOM     18  O5* UNL     1      70.098 219.770 341.345  0.00  0.00    +0.000 OA
ATOM     19  H5* UNL     1      70.640 218.969 341.232  0.00  0.00    +0.000 HD
ENDBRANCH  17  18
ENDBRANCH  14  17
ENDBRANCH   3  11
BRANCH   7  23
ATOM     20  F   UNL     1      73.430 227.314 336.702  0.00  0.00    +0.000 F 
ATOM     21  F   UNL     1      74.174 226.305 338.475  0.00  0.00    +0.000 F 
ATOM     22  F   UNL     1      75.475 226.540 336.753  0.00  0.00    +0.000 F 
ATOM     23  C   UNL     1      74.196 226.273 337.114  0.00  0.00    +0.000 C 
ENDBRANCH   7  23
TORSDOF 5
ENDMDL
