MODEL 1
REMARK VINA RESULT:      -4.7      0.000      0.000
REMARK  Name = 6323266_Tipiracil.pdbqt.pdb
REMARK  2 active torsions:
REMARK  status: ('A' for Active; 'I' for Inactive)
REMARK    1  A    between atoms: C_6  and  C_12
REMARK    2  A    between atoms: C_12  and  N_13
REMARK                            x       y       z     vdW  Elec       q    Type
REMARK                         _______ _______ _______ _____ _____    ______ ____
ROOT
ATOM      1 CL   UNL     1      50.812 243.496 328.042  0.00  0.00    +0.000 Cl
ATOM      2  O   UNL     1      53.258 245.178 327.575  0.00  0.00    +0.000 OA
ATOM      3  O   UNL     1      54.125 243.862 323.328  0.00  0.00    +0.000 OA
ATOM      4  N   UNL     1      52.333 242.971 324.398  0.00  0.00    +0.000 N 
ATOM      5  N   UNL     1      53.677 244.522 325.451  0.00  0.00    +0.000 N 
ATOM      6  C   UNL     1      51.526 242.864 325.502  0.00  0.00    +0.000 A 
ATOM      7  C   UNL     1      51.768 243.574 326.612  0.00  0.00    +0.000 A 
ATOM      8  C   UNL     1      52.945 244.489 326.609  0.00  0.00    +0.000 A 
ATOM      9  C   UNL     1      53.422 243.790 324.330  0.00  0.00    +0.000 A 
ATOM     10  H   UNL     1      52.130 242.418 323.569  0.00  0.00    +0.000 HD
ATOM     11  H   UNL     1      54.479 245.136 325.428  0.00  0.00    +0.000 HD
ENDROOT
BRANCH   6  12
ATOM     12  C   UNL     1      50.438 241.958 325.379  0.00  0.00    +0.000 C 
BRANCH  12  13
ATOM     13  N   UNL     1      49.415 240.940 325.242  0.00  0.00    +0.000 N 
ATOM     14  N   UNL     1      50.467 239.218 326.665  0.00  0.00    +0.000 NA
ATOM     15  C   UNL     1      48.021 241.346 325.423  0.00  0.00    +0.000 C 
ATOM     16  C   UNL     1      47.028 240.590 326.297  0.00  0.00    +0.000 C 
ATOM     17  C   UNL     1      48.178 239.651 326.664  0.00  0.00    +0.000 C 
ATOM     18  C   UNL     1      49.509 239.895 326.153  0.00  0.00    +0.000 C 
ATOM     19  H   UNL     1      50.108 238.539 327.347  0.00  0.00    +0.000 HD
ENDBRANCH  12  13
ENDBRANCH   6  12
TORSDOF 2
ENDMDL
MODEL 2
REMARK VINA RESULT:      -4.6     21.128     22.525
REMARK  Name = 6323266_Tipiracil.pdbqt.pdb
REMARK  2 active torsions:
REMARK  status: ('A' for Active; 'I' for Inactive)
REMARK    1  A    between atoms: C_6  and  C_12
REMARK    2  A    between atoms: C_12  and  N_13
REMARK                            x       y       z     vdW  Elec       q    Type
REMARK                         _______ _______ _______ _____ _____    ______ ____
ROOT
ATOM      1 CL   UNL     1      64.139 225.028 325.888  0.00  0.00    +0.000 Cl
ATOM      2  O   UNL     1      61.627 226.258 324.792  0.00  0.00    +0.000 OA
ATOM      3  O   UNL     1      58.685 224.331 327.646  0.00  0.00    +0.000 OA
ATOM      4  N   UNL     1      60.891 223.851 327.871  0.00  0.00    +0.000 N 
ATOM      5  N   UNL     1      60.167 225.299 326.228  0.00  0.00    +0.000 N 
ATOM      6  C   UNL     1      62.197 223.998 327.478  0.00  0.00    +0.000 A 
ATOM      7  C   UNL     1      62.530 224.792 326.451  0.00  0.00    +0.000 A 
ATOM      8  C   UNL     1      61.432 225.514 325.747  0.00  0.00    +0.000 A 
ATOM      9  C   UNL     1      59.842 224.485 327.272  0.00  0.00    +0.000 A 
ATOM     10  H   UNL     1      60.665 223.239 328.652  0.00  0.00    +0.000 HD
ATOM     11  H   UNL     1      59.408 225.779 325.765  0.00  0.00    +0.000 HD
ENDROOT
BRANCH   6  12
ATOM     12  C   UNL     1      63.149 223.256 328.228  0.00  0.00    +0.000 C 
BRANCH  12  13
ATOM     13  N   UNL     1      64.099 222.401 328.914  0.00  0.00    +0.000 N 
ATOM     14  N   UNL     1      64.372 223.771 330.950  0.00  0.00    +0.000 NA
ATOM     15  C   UNL     1      63.803 220.970 328.979  0.00  0.00    +0.000 C 
ATOM     16  C   UNL     1      63.893 220.147 330.259  0.00  0.00    +0.000 C 
ATOM     17  C   UNL     1      64.256 221.445 330.982  0.00  0.00    +0.000 C 
ATOM     18  C   UNL     1      64.283 222.698 330.258  0.00  0.00    +0.000 C 
ATOM     19  H   UNL     1      64.471 223.554 331.948  0.00  0.00    +0.000 HD
ENDBRANCH  12  13
ENDBRANCH   6  12
TORSDOF 2
ENDMDL
MODEL 3
REMARK VINA RESULT:      -4.6     30.388     31.628
REMARK  Name = 6323266_Tipiracil.pdbqt.pdb
REMARK  2 active torsions:
REMARK  status: ('A' for Active; 'I' for Inactive)
REMARK    1  A    between atoms: C_6  and  C_12
REMARK    2  A    between atoms: C_12  and  N_13
REMARK                            x       y       z     vdW  Elec       q    Type
REMARK                         _______ _______ _______ _____ _____    ______ ____
ROOT
ATOM      1 CL   UNL     1      69.076 218.551 340.722  0.00  0.00    +0.000 Cl
ATOM      2  O   UNL     1      66.503 217.251 339.877  0.00  0.00    +0.000 OA
ATOM      3  O   UNL     1      65.572 219.932 336.347  0.00  0.00    +0.000 OA
ATOM      4  N   UNL     1      67.461 220.324 337.542  0.00  0.00    +0.000 N 
ATOM      5  N   UNL     1      66.052 218.588 338.110  0.00  0.00    +0.000 N 
ATOM      6  C   UNL     1      68.315 220.019 338.571  0.00  0.00    +0.000 A 
ATOM      7  C   UNL     1      68.065 218.998 339.402  0.00  0.00    +0.000 A 
ATOM      8  C   UNL     1      66.828 218.200 339.171  0.00  0.00    +0.000 A 
ATOM      9  C   UNL     1      66.316 219.633 337.275  0.00  0.00    +0.000 A 
ATOM     10  H   UNL     1      67.672 221.107 336.927  0.00  0.00    +0.000 HD
ATOM     11  H   UNL     1      65.209 218.061 337.935  0.00  0.00    +0.000 HD
ENDROOT
BRANCH   6  12
ATOM     12  C   UNL     1      69.458 220.855 338.686  0.00  0.00    +0.000 C 
BRANCH  12  13
ATOM     13  N   UNL     1      70.689 221.620 338.734  0.00  0.00    +0.000 N 
ATOM     14  N   UNL     1      69.687 223.837 339.151  0.00  0.00    +0.000 NA
ATOM     15  C   UNL     1      71.783 221.099 339.554  0.00  0.00    +0.000 C 
ATOM     16  C   UNL     1      72.572 221.947 340.545  0.00  0.00    +0.000 C 
ATOM     17  C   UNL     1      71.646 223.107 340.178  0.00  0.00    +0.000 C 
ATOM     18  C   UNL     1      70.556 222.903 339.248  0.00  0.00    +0.000 C 
ATOM     19  H   UNL     1      69.948 224.641 339.734  0.00  0.00    +0.000 HD
ENDBRANCH  12  13
ENDBRANCH   6  12
TORSDOF 2
ENDMDL
MODEL 4
REMARK VINA RESULT:      -4.6     19.748     20.357
REMARK  Name = 6323266_Tipiracil.pdbqt.pdb
REMARK  2 active torsions:
REMARK  status: ('A' for Active; 'I' for Inactive)
REMARK    1  A    between atoms: C_6  and  C_12
REMARK    2  A    between atoms: C_12  and  N_13
REMARK                            x       y       z     vdW  Elec       q    Type
REMARK                         _______ _______ _______ _____ _____    ______ ____
ROOT
ATOM      1 CL   UNL     1      62.234 224.085 323.517  0.00  0.00    +0.000 Cl
ATOM      2  O   UNL     1      64.776 225.583 322.952  0.00  0.00    +0.000 OA
ATOM      3  O   UNL     1      64.623 228.432 326.470  0.00  0.00    +0.000 OA
ATOM      4  N   UNL     1      62.948 226.921 326.221  0.00  0.00    +0.000 N 
ATOM      5  N   UNL     1      64.696 226.995 324.717  0.00  0.00    +0.000 N 
ATOM      6  C   UNL     1      62.358 225.886 325.543  0.00  0.00    +0.000 A 
ATOM      7  C   UNL     1      62.910 225.376 324.433  0.00  0.00    +0.000 A 
ATOM      8  C   UNL     1      64.192 225.971 323.959  0.00  0.00    +0.000 A 
ATOM      9  C   UNL     1      64.121 227.507 325.843  0.00  0.00    +0.000 A 
ATOM     10  H   UNL     1      62.507 227.292 327.059  0.00  0.00    +0.000 HD
ATOM     11  H   UNL     1      65.564 227.412 324.414  0.00  0.00    +0.000 HD
ENDROOT
BRANCH   6  12
ATOM     12  C   UNL     1      61.139 225.408 326.096  0.00  0.00    +0.000 C 
BRANCH  12  13
ATOM     13  N   UNL     1      59.908 225.010 326.751  0.00  0.00    +0.000 N 
ATOM     14  N   UNL     1      58.722 224.176 324.753  0.00  0.00    +0.000 NA
ATOM     15  C   UNL     1      60.014 224.216 327.975  0.00  0.00    +0.000 C 
ATOM     16  C   UNL     1      59.205 222.950 328.232  0.00  0.00    +0.000 C 
ATOM     17  C   UNL     1      58.622 223.125 326.829  0.00  0.00    +0.000 C 
ATOM     18  C   UNL     1      59.073 224.208 325.983  0.00  0.00    +0.000 C 
ATOM     19  H   UNL     1      58.100 223.379 324.573  0.00  0.00    +0.000 HD
ENDBRANCH  12  13
ENDBRANCH   6  12
TORSDOF 2
ENDMDL
MODEL 5
REMARK VINA RESULT:      -4.5      2.006      2.815
REMARK  Name = 6323266_Tipiracil.pdbqt.pdb
REMARK  2 active torsions:
REMARK  status: ('A' for Active; 'I' for Inactive)
REMARK    1  A    between atoms: C_6  and  C_12
REMARK    2  A    between atoms: C_12  and  N_13
REMARK                            x       y       z     vdW  Elec       q    Type
REMARK                         _______ _______ _______ _____ _____    ______ ____
ROOT
ATOM      1 CL   UNL     1      49.891 242.193 323.504  0.00  0.00    +0.000 Cl
ATOM      2  O   UNL     1      52.065 244.267 323.462  0.00  0.00    +0.000 OA
ATOM      3  O   UNL     1      53.789 243.456 327.571  0.00  0.00    +0.000 OA
ATOM      4  N   UNL     1      52.026 242.212 326.867  0.00  0.00    +0.000 N 
ATOM      5  N   UNL     1      52.926 243.848 325.511  0.00  0.00    +0.000 N 
ATOM      6  C   UNL     1      51.090 241.887 325.919  0.00  0.00    +0.000 A 
ATOM      7  C   UNL     1      51.036 242.531 324.745  0.00  0.00    +0.000 A 
ATOM      8  C   UNL     1      52.032 243.612 324.499  0.00  0.00    +0.000 A 
ATOM      9  C   UNL     1      52.966 243.188 326.703  0.00  0.00    +0.000 A 
ATOM     10  H   UNL     1      52.043 241.710 327.752  0.00  0.00    +0.000 HD
ATOM     11  H   UNL     1      53.609 244.577 325.365  0.00  0.00    +0.000 HD
ENDROOT
BRANCH   6  12
ATOM     12  C   UNL     1      50.198 240.839 326.273  0.00  0.00    +0.000 C 
BRANCH  12  13
ATOM     13  N   UNL     1      49.255 239.764 326.511  0.00  0.00    +0.000 N 
ATOM     14  N   UNL     1      47.334 241.152 327.205  0.00  0.00    +0.000 NA
ATOM     15  C   UNL     1      49.130 238.729 325.484  0.00  0.00    +0.000 C 
ATOM     16  C   UNL     1      47.793 238.232 324.945  0.00  0.00    +0.000 C 
ATOM     17  C   UNL     1      47.126 239.268 325.851  0.00  0.00    +0.000 C 
ATOM     18  C   UNL     1      47.933 240.168 326.645  0.00  0.00    +0.000 C 
ATOM     19  H   UNL     1      46.323 241.105 327.037  0.00  0.00    +0.000 HD
ENDBRANCH  12  13
ENDBRANCH   6  12
TORSDOF 2
ENDMDL
MODEL 6
REMARK VINA RESULT:      -4.3     30.495     30.989
REMARK  Name = 6323266_Tipiracil.pdbqt.pdb
REMARK  2 active torsions:
REMARK  status: ('A' for Active; 'I' for Inactive)
REMARK    1  A    between atoms: C_6  and  C_12
REMARK    2  A    between atoms: C_12  and  N_13
REMARK                            x       y       z     vdW  Elec       q    Type
REMARK                         _______ _______ _______ _____ _____    ______ ____
ROOT
ATOM      1 CL   UNL     1      74.077 222.366 334.895  0.00  0.00    +0.000 Cl
ATOM      2  O   UNL     1      75.446 224.965 334.262  0.00  0.00    +0.000 OA
ATOM      3  O   UNL     1      74.133 227.277 337.928  0.00  0.00    +0.000 OA
ATOM      4  N   UNL     1      73.450 225.125 337.699  0.00  0.00    +0.000 N 
ATOM      5  N   UNL     1      74.794 226.108 336.101  0.00  0.00    +0.000 N 
ATOM      6  C   UNL     1      73.421 223.944 337.002  0.00  0.00    +0.000 A 
ATOM      7  C   UNL     1      74.068 223.807 335.837  0.00  0.00    +0.000 A 
ATOM      8  C   UNL     1      74.826 224.982 335.321  0.00  0.00    +0.000 A 
ATOM      9  C   UNL     1      74.126 226.235 337.284  0.00  0.00    +0.000 A 
ATOM     10  H   UNL     1      72.947 225.204 338.579  0.00  0.00    +0.000 HD
ATOM     11  H   UNL     1      75.301 226.916 335.770  0.00  0.00    +0.000 HD
ENDROOT
BRANCH   6  12
ATOM     12  C   UNL     1      72.663 222.900 337.599  0.00  0.00    +0.000 C 
BRANCH  12  13
ATOM     13  N   UNL     1      71.866 221.917 338.305  0.00  0.00    +0.000 N 
ATOM     14  N   UNL     1      70.579 223.481 339.716  0.00  0.00    +0.000 NA
ATOM     15  C   UNL     1      71.214 220.873 337.514  0.00  0.00    +0.000 C 
ATOM     16  C   UNL     1      69.749 220.482 337.677  0.00  0.00    +0.000 C 
ATOM     17  C   UNL     1      69.645 221.593 338.723  0.00  0.00    +0.000 C 
ATOM     18  C   UNL     1      70.785 222.437 339.005  0.00  0.00    +0.000 C 
ATOM     19  H   UNL     1      69.603 223.519 340.033  0.00  0.00    +0.000 HD
ENDBRANCH  12  13
ENDBRANCH   6  12
TORSDOF 2
ENDMDL
MODEL 7
REMARK VINA RESULT:      -4.3     22.211     23.587
REMARK  Name = 6323266_Tipiracil.pdbqt.pdb
REMARK  2 active torsions:
REMARK  status: ('A' for Active; 'I' for Inactive)
REMARK    1  A    between atoms: C_6  and  C_12
REMARK    2  A    between atoms: C_12  and  N_13
REMARK                            x       y       z     vdW  Elec       q    Type
REMARK                         _______ _______ _______ _____ _____    ______ ____
ROOT
ATOM      1 CL   UNL     1      56.008 243.666 346.828  0.00  0.00    +0.000 Cl
ATOM      2  O   UNL     1      53.504 242.879 345.367  0.00  0.00    +0.000 OA
ATOM      3  O   UNL     1      52.825 238.883 347.390  0.00  0.00    +0.000 OA
ATOM      4  N   UNL     1      54.623 240.123 348.007  0.00  0.00    +0.000 N 
ATOM      5  N   UNL     1      53.167 240.890 346.390  0.00  0.00    +0.000 N 
ATOM      6  C   UNL     1      55.397 241.249 347.899  0.00  0.00    +0.000 A 
ATOM      7  C   UNL     1      55.089 242.225 347.034  0.00  0.00    +0.000 A 
ATOM      8  C   UNL     1      53.871 242.049 346.193  0.00  0.00    +0.000 A 
ATOM      9  C   UNL     1      53.496 239.902 347.271  0.00  0.00    +0.000 A 
ATOM     10  H   UNL     1      54.881 239.394 348.669  0.00  0.00    +0.000 HD
ATOM     11  H   UNL     1      52.338 240.750 345.830  0.00  0.00    +0.000 HD
ENDROOT
BRANCH   6  12
ATOM     12  C   UNL     1      56.531 241.297 348.754  0.00  0.00    +0.000 C 
BRANCH  12  13
ATOM     13  N   UNL     1      57.641 241.240 349.685  0.00  0.00    +0.000 N 
ATOM     14  N   UNL     1      59.154 242.786 348.493  0.00  0.00    +0.000 NA
ATOM     15  C   UNL     1      57.345 241.394 351.109  0.00  0.00    +0.000 C 
ATOM     16  C   UNL     1      58.117 242.326 352.036  0.00  0.00    +0.000 C 
ATOM     17  C   UNL     1      58.923 242.759 350.811  0.00  0.00    +0.000 C 
ATOM     18  C   UNL     1      58.603 242.226 349.504  0.00  0.00    +0.000 C 
ATOM     19  H   UNL     1      59.808 243.517 348.793  0.00  0.00    +0.000 HD
ENDBRANCH  12  13
ENDBRANCH   6  12
TORSDOF 2
ENDMDL
MODEL 8
REMARK VINA RESULT:      -4.2     10.612     11.561
REMARK  Name = 6323266_Tipiracil.pdbqt.pdb
REMARK  2 active torsions:
REMARK  status: ('A' for Active; 'I' for Inactive)
REMARK    1  A    between atoms: C_6  and  C_12
REMARK    2  A    between atoms: C_12  and  N_13
REMARK                            x       y       z     vdW  Elec       q    Type
REMARK                         _______ _______ _______ _____ _____    ______ ____
ROOT
ATOM      1 CL   UNL     1      58.090 236.048 315.317  0.00  0.00    +0.000 Cl
ATOM      2  O   UNL     1      60.507 237.245 316.641  0.00  0.00    +0.000 OA
ATOM      3  O   UNL     1      58.542 238.498 320.525  0.00  0.00    +0.000 OA
ATOM      4  N   UNL     1      57.275 237.473 318.946  0.00  0.00    +0.000 N 
ATOM      5  N   UNL     1      59.520 237.858 318.582  0.00  0.00    +0.000 N 
ATOM      6  C   UNL     1      57.136 236.883 317.716  0.00  0.00    +0.000 A 
ATOM      7  C   UNL     1      58.177 236.766 316.880  0.00  0.00    +0.000 A 
ATOM      8  C   UNL     1      59.494 237.296 317.332  0.00  0.00    +0.000 A 
ATOM      9  C   UNL     1      58.451 237.975 319.420  0.00  0.00    +0.000 A 
ATOM     10  H   UNL     1      56.468 237.553 319.561  0.00  0.00    +0.000 HD
ATOM     11  H   UNL     1      60.403 238.223 318.907  0.00  0.00    +0.000 HD
ENDROOT
BRANCH   6  12
ATOM     12  C   UNL     1      55.830 236.419 317.403  0.00  0.00    +0.000 C 
BRANCH  12  13
ATOM     13  N   UNL     1      54.532 235.832 317.135  0.00  0.00    +0.000 N 
ATOM     14  N   UNL     1      54.262 234.631 319.276  0.00  0.00    +0.000 NA
ATOM     15  C   UNL     1      53.486 236.706 316.602  0.00  0.00    +0.000 C 
ATOM     16  C   UNL     1      52.066 236.757 317.154  0.00  0.00    +0.000 C 
ATOM     17  C   UNL     1      52.516 235.742 318.205  0.00  0.00    +0.000 C 
ATOM     18  C   UNL     1      53.893 235.300 318.248  0.00  0.00    +0.000 C 
ATOM     19  H   UNL     1      53.467 234.460 319.903  0.00  0.00    +0.000 HD
ENDBRANCH  12  13
ENDBRANCH   6  12
TORSDOF 2
ENDMDL
MODEL 9
REMARK VINA RESULT:      -4.2      5.329      6.693
REMARK  Name = 6323266_Tipiracil.pdbqt.pdb
REMARK  2 active torsions:
REMARK  status: ('A' for Active; 'I' for Inactive)
REMARK    1  A    between atoms: C_6  and  C_12
REMARK    2  A    between atoms: C_12  and  N_13
REMARK                            x       y       z     vdW  Elec       q    Type
REMARK                         _______ _______ _______ _____ _____    ______ ____
ROOT
ATOM      1 CL   UNL     1      47.030 238.779 322.011  0.00  0.00    +0.000 Cl
ATOM      2  O   UNL     1      47.002 241.209 323.777  0.00  0.00    +0.000 OA
ATOM      3  O   UNL     1      50.088 239.831 326.793  0.00  0.00    +0.000 OA
ATOM      4  N   UNL     1      49.556 238.449 325.072  0.00  0.00    +0.000 N 
ATOM      5  N   UNL     1      48.552 240.517 325.272  0.00  0.00    +0.000 N 
ATOM      6  C   UNL     1      48.846 238.172 323.932  0.00  0.00    +0.000 A 
ATOM      7  C   UNL     1      47.967 239.049 323.430  0.00  0.00    +0.000 A 
ATOM      8  C   UNL     1      47.786 240.341 324.149  0.00  0.00    +0.000 A 
ATOM      9  C   UNL     1      49.440 239.613 325.776  0.00  0.00    +0.000 A 
ATOM     10  H   UNL     1      50.215 237.765 325.436  0.00  0.00    +0.000 HD
ATOM     11  H   UNL     1      48.444 241.386 325.775  0.00  0.00    +0.000 HD
ENDROOT
BRANCH   6  12
ATOM     12  C   UNL     1      49.109 236.907 323.341  0.00  0.00    +0.000 C 
BRANCH  12  13
ATOM     13  N   UNL     1      49.337 235.563 322.848  0.00  0.00    +0.000 N 
ATOM     14  N   UNL     1      49.540 234.435 325.035  0.00  0.00    +0.000 NA
ATOM     15  C   UNL     1      48.448 235.061 321.800  0.00  0.00    +0.000 C 
ATOM     16  C   UNL     1      47.779 233.692 321.843  0.00  0.00    +0.000 C 
ATOM     17  C   UNL     1      48.428 233.500 323.215  0.00  0.00    +0.000 C 
ATOM     18  C   UNL     1      49.212 234.563 323.804  0.00  0.00    +0.000 C 
ATOM     19  H   UNL     1      49.227 233.530 325.403  0.00  0.00    +0.000 HD
ENDBRANCH  12  13
ENDBRANCH   6  12
TORSDOF 2
ENDMDL
