MODEL 1
REMARK VINA RESULT:      -5.8      0.000      0.000
REMARK  Name = 6325056_Deoxyelephantopin.pdbqt.pdb
REMARK  3 active torsions:
REMARK  status: ('A' for Active; 'I' for Inactive)
REMARK    1  A    between atoms: C_6  and  O_20
REMARK    2  A    between atoms: O_20  and  C_22
REMARK    3  A    between atoms: C_22  and  C_23
REMARK                            x       y       z     vdW  Elec       q    Type
REMARK                         _______ _______ _______ _____ _____    ______ ____
ROOT
ATOM      1  O   UNL     1      61.571 226.368 323.539  0.00  0.00    +0.000 OA
ATOM      2  O   UNL     1      58.917 221.782 327.340  0.00  0.00    +0.000 OA
ATOM      3  O   UNL     1      63.054 228.100 323.256  0.00  0.00    +0.000 OA
ATOM      4  O   UNL     1      60.858 221.503 328.584  0.00  0.00    +0.000 OA
ATOM      5  C   UNL     1      62.150 225.706 325.729  0.00  0.00    +0.000 C 
ATOM      6  C   UNL     1      62.227 224.954 326.982  0.00  0.00    +0.000 C 
ATOM      7  C   UNL     1      61.294 225.474 324.580  0.00  0.00    +0.000 C 
ATOM      8  C   UNL     1      61.093 224.399 327.632  0.00  0.00    +0.000 C 
ATOM      9  C   UNL     1      62.978 226.824 325.328  0.00  0.00    +0.000 C 
ATOM     10  C   UNL     1      59.954 223.714 328.160  0.00  0.00    +0.000 C 
ATOM     11  C   UNL     1      60.221 224.564 324.425  0.00  0.00    +0.000 C 
ATOM     12  C   UNL     1      58.301 222.960 326.866  0.00  0.00    +0.000 C 
ATOM     13  C   UNL     1      58.474 223.194 325.469  0.00  0.00    +0.000 C 
ATOM     14  C   UNL     1      59.091 223.704 324.304  0.00  0.00    +0.000 C 
ATOM     15  C   UNL     1      58.668 224.036 327.698  0.00  0.00    +0.000 C 
ATOM     16  C   UNL     1      62.591 227.206 323.944  0.00  0.00    +0.000 C 
ATOM     17  C   UNL     1      59.987 222.213 328.112  0.00  0.00    +0.000 C 
ATOM     18  C   UNL     1      63.880 227.465 326.081  0.00  0.00    +0.000 C 
ATOM     19  C   UNL     1      58.409 223.564 322.981  0.00  0.00    +0.000 C 
ENDROOT
BRANCH   6  20
ATOM     20  O   UNL     1      63.412 224.971 327.737  0.00  0.00    +0.000 OA
BRANCH  20  22
ATOM     21  O   UNL     1      63.989 223.367 329.283  0.00  0.00    +0.000 OA
ATOM     22  C   UNL     1      63.887 223.735 328.116  0.00  0.00    +0.000 C 
BRANCH  22  23
ATOM     23  C   UNL     1      64.242 222.924 326.895  0.00  0.00    +0.000 C 
ATOM     24  C   UNL     1      65.167 223.433 325.801  0.00  0.00    +0.000 C 
ATOM     25  C   UNL     1      63.810 221.667 326.730  0.00  0.00    +0.000 C 
ENDBRANCH  22  23
ENDBRANCH  20  22
ENDBRANCH   6  20
TORSDOF 3
ENDMDL
MODEL 2
REMARK VINA RESULT:      -5.3     24.308     26.508
REMARK  Name = 6325056_Deoxyelephantopin.pdbqt.pdb
REMARK  3 active torsions:
REMARK  status: ('A' for Active; 'I' for Inactive)
REMARK    1  A    between atoms: C_6  and  O_20
REMARK    2  A    between atoms: O_20  and  C_22
REMARK    3  A    between atoms: C_22  and  C_23
REMARK                            x       y       z     vdW  Elec       q    Type
REMARK                         _______ _______ _______ _____ _____    ______ ____
ROOT
ATOM      1  O   UNL     1      66.008 227.539 349.980  0.00  0.00    +0.000 OA
ATOM      2  O   UNL     1      60.075 230.016 351.071  0.00  0.00    +0.000 OA
ATOM      3  O   UNL     1      67.786 226.263 350.677  0.00  0.00    +0.000 OA
ATOM      4  O   UNL     1      59.418 228.212 352.377  0.00  0.00    +0.000 OA
ATOM      5  C   UNL     1      64.512 227.138 351.762  0.00  0.00    +0.000 C 
ATOM      6  C   UNL     1      63.303 227.113 352.586  0.00  0.00    +0.000 C 
ATOM      7  C   UNL     1      64.738 227.820 350.500  0.00  0.00    +0.000 C 
ATOM      8  C   UNL     1      62.450 228.234 352.759  0.00  0.00    +0.000 C 
ATOM      9  C   UNL     1      65.745 226.417 351.995  0.00  0.00    +0.000 C 
ATOM     10  C   UNL     1      61.533 229.332 352.769  0.00  0.00    +0.000 C 
ATOM     11  C   UNL     1      63.914 228.744 349.815  0.00  0.00    +0.000 C 
ATOM     12  C   UNL     1      61.299 230.717 351.036  0.00  0.00    +0.000 C 
ATOM     13  C   UNL     1      62.119 230.414 349.908  0.00  0.00    +0.000 C 
ATOM     14  C   UNL     1      63.118 229.737 349.172  0.00  0.00    +0.000 C 
ATOM     15  C   UNL     1      61.937 230.586 352.286  0.00  0.00    +0.000 C 
ATOM     16  C   UNL     1      66.656 226.687 350.851  0.00  0.00    +0.000 C 
ATOM     17  C   UNL     1      60.202 229.105 352.110  0.00  0.00    +0.000 C 
ATOM     18  C   UNL     1      66.059 225.696 353.078  0.00  0.00    +0.000 C 
ATOM     19  C   UNL     1      63.513 230.238 347.821  0.00  0.00    +0.000 C 
ENDROOT
BRANCH   6  20
ATOM     20  O   UNL     1      63.072 226.034 353.456  0.00  0.00    +0.000 OA
BRANCH  20  22
ATOM     21  O   UNL     1      63.782 227.077 355.381  0.00  0.00    +0.000 OA
ATOM     22  C   UNL     1      62.974 226.364 354.790  0.00  0.00    +0.000 C 
BRANCH  22  23
ATOM     23  C   UNL     1      61.742 225.734 355.388  0.00  0.00    +0.000 C 
ATOM     24  C   UNL     1      60.356 225.883 354.783  0.00  0.00    +0.000 C 
ATOM     25  C   UNL     1      61.805 224.943 356.467  0.00  0.00    +0.000 C 
ENDBRANCH  22  23
ENDBRANCH  20  22
ENDBRANCH   6  20
TORSDOF 3
ENDMDL
MODEL 3
REMARK VINA RESULT:      -5.0     10.975     15.001
REMARK  Name = 6325056_Deoxyelephantopin.pdbqt.pdb
REMARK  3 active torsions:
REMARK  status: ('A' for Active; 'I' for Inactive)
REMARK    1  A    between atoms: C_6  and  O_20
REMARK    2  A    between atoms: O_20  and  C_22
REMARK    3  A    between atoms: C_22  and  C_23
REMARK                            x       y       z     vdW  Elec       q    Type
REMARK                         _______ _______ _______ _____ _____    ______ ____
ROOT
ATOM      1  O   UNL     1      54.841 214.587 338.842  0.00  0.00    +0.000 OA
ATOM      2  O   UNL     1      59.624 218.544 336.842  0.00  0.00    +0.000 OA
ATOM      3  O   UNL     1      52.767 213.657 338.516  0.00  0.00    +0.000 OA
ATOM      4  O   UNL     1      59.145 218.204 334.596  0.00  0.00    +0.000 OA
ATOM      5  C   UNL     1      55.060 215.784 336.820  0.00  0.00    +0.000 C 
ATOM      6  C   UNL     1      55.618 216.581 335.726  0.00  0.00    +0.000 C 
ATOM      7  C   UNL     1      55.667 215.432 338.091  0.00  0.00    +0.000 C 
ATOM      8  C   UNL     1      56.436 217.723 335.929  0.00  0.00    +0.000 C 
ATOM      9  C   UNL     1      53.784 215.101 336.841  0.00  0.00    +0.000 C 
ATOM     10  C   UNL     1      57.391 218.760 336.176  0.00  0.00    +0.000 C 
ATOM     11  C   UNL     1      56.881 215.879 338.663  0.00  0.00    +0.000 C 
ATOM     12  C   UNL     1      58.757 218.739 337.939  0.00  0.00    +0.000 C 
ATOM     13  C   UNL     1      58.622 217.603 338.793  0.00  0.00    +0.000 C 
ATOM     14  C   UNL     1      58.063 216.396 339.270  0.00  0.00    +0.000 C 
ATOM     15  C   UNL     1      57.541 219.277 337.472  0.00  0.00    +0.000 C 
ATOM     16  C   UNL     1      53.687 214.353 338.123  0.00  0.00    +0.000 C 
ATOM     17  C   UNL     1      58.800 218.501 335.726  0.00  0.00    +0.000 C 
ATOM     18  C   UNL     1      52.818 215.178 335.918  0.00  0.00    +0.000 C 
ATOM     19  C   UNL     1      58.545 215.814 340.560  0.00  0.00    +0.000 C 
ENDROOT
BRANCH   6  20
ATOM     20  O   UNL     1      55.150 216.394 334.415  0.00  0.00    +0.000 OA
BRANCH  20  22
ATOM     21  O   UNL     1      57.085 215.676 333.396  0.00  0.00    +0.000 OA
ATOM     22  C   UNL     1      56.116 216.431 333.434  0.00  0.00    +0.000 C 
BRANCH  22  23
ATOM     23  C   UNL     1      55.795 217.515 332.435  0.00  0.00    +0.000 C 
ATOM     24  C   UNL     1      54.961 218.738 332.778  0.00  0.00    +0.000 C 
ATOM     25  C   UNL     1      56.285 217.495 331.189  0.00  0.00    +0.000 C 
ENDBRANCH  22  23
ENDBRANCH  20  22
ENDBRANCH   6  20
TORSDOF 3
ENDMDL
MODEL 4
REMARK VINA RESULT:      -4.9     17.265     19.243
REMARK  Name = 6325056_Deoxyelephantopin.pdbqt.pdb
REMARK  3 active torsions:
REMARK  status: ('A' for Active; 'I' for Inactive)
REMARK    1  A    between atoms: C_6  and  O_20
REMARK    2  A    between atoms: O_20  and  C_22
REMARK    3  A    between atoms: C_22  and  C_23
REMARK                            x       y       z     vdW  Elec       q    Type
REMARK                         _______ _______ _______ _____ _____    ______ ____
ROOT
ATOM      1  O   UNL     1      46.268 237.838 326.440  0.00  0.00    +0.000 OA
ATOM      2  O   UNL     1      46.644 233.282 321.790  0.00  0.00    +0.000 OA
ATOM      3  O   UNL     1      47.242 239.541 327.636  0.00  0.00    +0.000 OA
ATOM      4  O   UNL     1      48.147 234.514 320.520  0.00  0.00    +0.000 OA
ATOM      5  C   UNL     1      47.994 237.407 324.890  0.00  0.00    +0.000 C 
ATOM      6  C   UNL     1      48.740 236.876 323.748  0.00  0.00    +0.000 C 
ATOM      7  C   UNL     1      46.666 237.049 325.353  0.00  0.00    +0.000 C 
ATOM      8  C   UNL     1      48.704 235.513 323.355  0.00  0.00    +0.000 C 
ATOM      9  C   UNL     1      48.400 238.474 325.779  0.00  0.00    +0.000 C 
ATOM     10  C   UNL     1      48.505 234.173 322.894  0.00  0.00    +0.000 C 
ATOM     11  C   UNL     1      45.811 236.008 324.922  0.00  0.00    +0.000 C 
ATOM     12  C   UNL     1      46.585 233.076 323.185  0.00  0.00    +0.000 C 
ATOM     13  C   UNL     1      45.562 233.817 323.847  0.00  0.00    +0.000 C 
ATOM     14  C   UNL     1      44.989 234.908 324.539  0.00  0.00    +0.000 C 
ATOM     15  C   UNL     1      47.877 233.233 323.725  0.00  0.00    +0.000 C 
ATOM     16  C   UNL     1      47.286 238.722 326.733  0.00  0.00    +0.000 C 
ATOM     17  C   UNL     1      47.806 234.010 321.575  0.00  0.00    +0.000 C 
ATOM     18  C   UNL     1      49.590 239.087 325.806  0.00  0.00    +0.000 C 
ATOM     19  C   UNL     1      43.607 234.791 325.096  0.00  0.00    +0.000 C 
ENDROOT
BRANCH   6  20
ATOM     20  O   UNL     1      49.737 237.657 323.139  0.00  0.00    +0.000 OA
BRANCH  20  22
ATOM     21  O   UNL     1      49.463 237.653 320.854  0.00  0.00    +0.000 OA
ATOM     22  C   UNL     1      49.385 238.229 321.936  0.00  0.00    +0.000 C 
BRANCH  22  23
ATOM     23  C   UNL     1      48.892 239.636 322.159  0.00  0.00    +0.000 C 
ATOM     24  C   UNL     1      47.417 239.995 322.242  0.00  0.00    +0.000 C 
ATOM     25  C   UNL     1      49.734 240.657 322.362  0.00  0.00    +0.000 C 
ENDBRANCH  22  23
ENDBRANCH  20  22
ENDBRANCH   6  20
TORSDOF 3
ENDMDL
MODEL 5
REMARK VINA RESULT:      -4.9      9.506     11.948
REMARK  Name = 6325056_Deoxyelephantopin.pdbqt.pdb
REMARK  3 active torsions:
REMARK  status: ('A' for Active; 'I' for Inactive)
REMARK    1  A    between atoms: C_6  and  O_20
REMARK    2  A    between atoms: O_20  and  C_22
REMARK    3  A    between atoms: C_22  and  C_23
REMARK                            x       y       z     vdW  Elec       q    Type
REMARK                         _______ _______ _______ _____ _____    ______ ____
ROOT
ATOM      1  O   UNL     1      56.337 218.786 336.604  0.00  0.00    +0.000 OA
ATOM      2  O   UNL     1      58.001 217.191 330.504  0.00  0.00    +0.000 OA
ATOM      3  O   UNL     1      56.846 218.877 338.842  0.00  0.00    +0.000 OA
ATOM      4  O   UNL     1      60.263 217.546 330.888  0.00  0.00    +0.000 OA
ATOM      5  C   UNL     1      58.389 217.976 335.765  0.00  0.00    +0.000 C 
ATOM      6  C   UNL     1      59.456 217.569 334.849  0.00  0.00    +0.000 C 
ATOM      7  C   UNL     1      57.037 218.404 335.453  0.00  0.00    +0.000 C 
ATOM      8  C   UNL     1      59.228 216.814 333.669  0.00  0.00    +0.000 C 
ATOM      9  C   UNL     1      58.475 218.111 337.204  0.00  0.00    +0.000 C 
ATOM     10  C   UNL     1      58.935 216.203 332.409  0.00  0.00    +0.000 C 
ATOM     11  C   UNL     1      56.355 218.401 334.213  0.00  0.00    +0.000 C 
ATOM     12  C   UNL     1      57.026 216.569 331.313  0.00  0.00    +0.000 C 
ATOM     13  C   UNL     1      56.128 217.474 331.953  0.00  0.00    +0.000 C 
ATOM     14  C   UNL     1      55.646 218.319 332.979  0.00  0.00    +0.000 C 
ATOM     15  C   UNL     1      57.664 215.656 332.176  0.00  0.00    +0.000 C 
ATOM     16  C   UNL     1      57.170 218.631 337.693  0.00  0.00    +0.000 C 
ATOM     17  C   UNL     1      59.201 217.027 331.182  0.00  0.00    +0.000 C 
ATOM     18  C   UNL     1      59.507 217.762 337.981  0.00  0.00    +0.000 C 
ATOM     19  C   UNL     1      54.277 218.909 332.874  0.00  0.00    +0.000 C 
ENDROOT
BRANCH   6  20
ATOM     20  O   UNL     1      60.799 217.692 335.242  0.00  0.00    +0.000 OA
BRANCH  20  22
ATOM     21  O   UNL     1      62.235 216.574 333.833  0.00  0.00    +0.000 OA
ATOM     22  C   UNL     1      61.614 216.638 334.891  0.00  0.00    +0.000 C 
BRANCH  22  23
ATOM     23  C   UNL     1      61.627 215.609 335.993  0.00  0.00    +0.000 C 
ATOM     24  C   UNL     1      60.759 214.361 335.973  0.00  0.00    +0.000 C 
ATOM     25  C   UNL     1      62.461 215.700 337.037  0.00  0.00    +0.000 C 
ENDBRANCH  22  23
ENDBRANCH  20  22
ENDBRANCH   6  20
TORSDOF 3
ENDMDL
MODEL 6
REMARK VINA RESULT:      -4.9     18.601     21.146
REMARK  Name = 6325056_Deoxyelephantopin.pdbqt.pdb
REMARK  3 active torsions:
REMARK  status: ('A' for Active; 'I' for Inactive)
REMARK    1  A    between atoms: C_6  and  O_20
REMARK    2  A    between atoms: O_20  and  C_22
REMARK    3  A    between atoms: C_22  and  C_23
REMARK                            x       y       z     vdW  Elec       q    Type
REMARK                         _______ _______ _______ _____ _____    ______ ____
ROOT
ATOM      1  O   UNL     1      67.070 242.859 337.434  0.00  0.00    +0.000 OA
ATOM      2  O   UNL     1      65.684 244.892 331.395  0.00  0.00    +0.000 OA
ATOM      3  O   UNL     1      67.475 241.145 338.909  0.00  0.00    +0.000 OA
ATOM      4  O   UNL     1      66.780 243.104 330.400  0.00  0.00    +0.000 OA
ATOM      5  C   UNL     1      66.914 241.626 335.428  0.00  0.00    +0.000 C 
ATOM      6  C   UNL     1      66.813 241.282 334.009  0.00  0.00    +0.000 C 
ATOM      7  C   UNL     1      66.856 242.935 336.052  0.00  0.00    +0.000 C 
ATOM      8  C   UNL     1      65.946 241.946 333.103  0.00  0.00    +0.000 C 
ATOM      9  C   UNL     1      67.169 240.723 336.530  0.00  0.00    +0.000 C 
ATOM     10  C   UNL     1      65.187 242.749 332.194  0.00  0.00    +0.000 C 
ATOM     11  C   UNL     1      66.547 244.192 335.482  0.00  0.00    +0.000 C 
ATOM     12  C   UNL     1      64.837 244.927 332.523  0.00  0.00    +0.000 C 
ATOM     13  C   UNL     1      65.442 245.464 333.698  0.00  0.00    +0.000 C 
ATOM     14  C   UNL     1      66.154 245.442 334.919  0.00  0.00    +0.000 C 
ATOM     15  C   UNL     1      64.242 243.660 332.688  0.00  0.00    +0.000 C 
ATOM     16  C   UNL     1      67.269 241.536 337.772  0.00  0.00    +0.000 C 
ATOM     17  C   UNL     1      65.966 243.549 331.189  0.00  0.00    +0.000 C 
ATOM     18  C   UNL     1      67.229 239.388 336.476  0.00  0.00    +0.000 C 
ATOM     19  C   UNL     1      66.257 246.686 335.741  0.00  0.00    +0.000 C 
ENDROOT
BRANCH   6  20
ATOM     20  O   UNL     1      67.394 240.093 333.534  0.00  0.00    +0.000 OA
BRANCH  20  22
ATOM     21  O   UNL     1      68.153 240.012 331.363  0.00  0.00    +0.000 OA
ATOM     22  C   UNL     1      68.346 240.254 332.552  0.00  0.00    +0.000 C 
BRANCH  22  23
ATOM     23  C   UNL     1      69.627 240.772 333.155  0.00  0.00    +0.000 C 
ATOM     24  C   UNL     1      70.266 240.165 334.394  0.00  0.00    +0.000 C 
ATOM     25  C   UNL     1      70.321 241.770 332.593  0.00  0.00    +0.000 C 
ENDBRANCH  22  23
ENDBRANCH  20  22
ENDBRANCH   6  20
TORSDOF 3
ENDMDL
MODEL 7
REMARK VINA RESULT:      -4.9     11.559     14.838
REMARK  Name = 6325056_Deoxyelephantopin.pdbqt.pdb
REMARK  3 active torsions:
REMARK  status: ('A' for Active; 'I' for Inactive)
REMARK    1  A    between atoms: C_6  and  O_20
REMARK    2  A    between atoms: O_20  and  C_22
REMARK    3  A    between atoms: C_22  and  C_23
REMARK                            x       y       z     vdW  Elec       q    Type
REMARK                         _______ _______ _______ _____ _____    ______ ____
ROOT
ATOM      1  O   UNL     1      60.382 233.918 316.362  0.00  0.00    +0.000 OA
ATOM      2  O   UNL     1      54.574 232.304 318.850  0.00  0.00    +0.000 OA
ATOM      3  O   UNL     1      61.703 235.392 315.196  0.00  0.00    +0.000 OA
ATOM      4  O   UNL     1      53.962 234.516 319.201  0.00  0.00    +0.000 OA
ATOM      5  C   UNL     1      58.385 235.172 316.464  0.00  0.00    +0.000 C 
ATOM      6  C   UNL     1      57.031 235.610 316.807  0.00  0.00    +0.000 C 
ATOM      7  C   UNL     1      59.057 233.934 316.815  0.00  0.00    +0.000 C 
ATOM      8  C   UNL     1      55.916 234.734 316.860  0.00  0.00    +0.000 C 
ATOM      9  C   UNL     1      59.391 235.925 315.745  0.00  0.00    +0.000 C 
ATOM     10  C   UNL     1      54.859 233.792 317.067  0.00  0.00    +0.000 C 
ATOM     11  C   UNL     1      58.542 232.779 317.448  0.00  0.00    +0.000 C 
ATOM     12  C   UNL     1      55.230 231.703 317.754  0.00  0.00    +0.000 C 
ATOM     13  C   UNL     1      56.600 231.382 317.992  0.00  0.00    +0.000 C 
ATOM     14  C   UNL     1      57.998 231.587 318.011  0.00  0.00    +0.000 C 
ATOM     15  C   UNL     1      54.994 232.476 316.600  0.00  0.00    +0.000 C 
ATOM     16  C   UNL     1      60.634 235.108 315.710  0.00  0.00    +0.000 C 
ATOM     17  C   UNL     1      54.370 233.625 318.477  0.00  0.00    +0.000 C 
ATOM     18  C   UNL     1      59.230 237.109 315.144  0.00  0.00    +0.000 C 
ATOM     19  C   UNL     1      58.910 230.458 318.370  0.00  0.00    +0.000 C 
ENDROOT
BRANCH   6  20
ATOM     20  O   UNL     1      56.730 236.982 316.850  0.00  0.00    +0.000 OA
BRANCH  20  22
ATOM     21  O   UNL     1      55.791 237.382 318.913  0.00  0.00    +0.000 OA
ATOM     22  C   UNL     1      56.706 237.541 318.109  0.00  0.00    +0.000 C 
BRANCH  22  23
ATOM     23  C   UNL     1      57.958 238.350 318.337  0.00  0.00    +0.000 C 
ATOM     24  C   UNL     1      59.018 237.969 319.358  0.00  0.00    +0.000 C 
ATOM     25  C   UNL     1      58.244 239.431 317.601  0.00  0.00    +0.000 C 
ENDBRANCH  22  23
ENDBRANCH  20  22
ENDBRANCH   6  20
TORSDOF 3
ENDMDL
MODEL 8
REMARK VINA RESULT:      -4.6     28.624     30.143
REMARK  Name = 6325056_Deoxyelephantopin.pdbqt.pdb
REMARK  3 active torsions:
REMARK  status: ('A' for Active; 'I' for Inactive)
REMARK    1  A    between atoms: C_6  and  O_20
REMARK    2  A    between atoms: O_20  and  C_22
REMARK    3  A    between atoms: C_22  and  C_23
REMARK                            x       y       z     vdW  Elec       q    Type
REMARK                         _______ _______ _______ _____ _____    ______ ____
ROOT
ATOM      1  O   UNL     1      56.718 244.391 347.437  0.00  0.00    +0.000 OA
ATOM      2  O   UNL     1      53.236 239.326 349.617  0.00  0.00    +0.000 OA
ATOM      3  O   UNL     1      56.847 246.337 346.224  0.00  0.00    +0.000 OA
ATOM      4  O   UNL     1      51.258 240.541 349.671  0.00  0.00    +0.000 OA
ATOM      5  C   UNL     1      54.407 243.955 347.239  0.00  0.00    +0.000 C 
ATOM      6  C   UNL     1      53.080 243.364 347.423  0.00  0.00    +0.000 C 
ATOM      7  C   UNL     1      55.681 243.514 347.778  0.00  0.00    +0.000 C 
ATOM      8  C   UNL     1      52.848 241.965 347.483  0.00  0.00    +0.000 C 
ATOM      9  C   UNL     1      54.731 245.171 346.524  0.00  0.00    +0.000 C 
ATOM     10  C   UNL     1      52.682 240.562 347.708  0.00  0.00    +0.000 C 
ATOM     11  C   UNL     1      55.997 242.335 348.493  0.00  0.00    +0.000 C 
ATOM     12  C   UNL     1      54.264 239.303 348.651  0.00  0.00    +0.000 C 
ATOM     13  C   UNL     1      55.446 240.005 349.031  0.00  0.00    +0.000 C 
ATOM     14  C   UNL     1      56.325 241.107 349.139  0.00  0.00    +0.000 C 
ATOM     15  C   UNL     1      53.727 239.677 347.402  0.00  0.00    +0.000 C 
ATOM     16  C   UNL     1      56.190 245.416 346.679  0.00  0.00    +0.000 C 
ATOM     17  C   UNL     1      52.250 240.146 349.085  0.00  0.00    +0.000 C 
ATOM     18  C   UNL     1      53.899 245.912 345.784  0.00  0.00    +0.000 C 
ATOM     19  C   UNL     1      57.699 240.909 349.692  0.00  0.00    +0.000 C 
ENDROOT
BRANCH   6  20
ATOM     20  O   UNL     1      51.933 244.166 347.289  0.00  0.00    +0.000 OA
BRANCH  20  22
ATOM     21  O   UNL     1      50.794 243.907 349.272  0.00  0.00    +0.000 OA
ATOM     22  C   UNL     1      51.392 244.621 348.471  0.00  0.00    +0.000 C 
BRANCH  22  23
ATOM     23  C   UNL     1      51.654 246.098 348.623  0.00  0.00    +0.000 C 
ATOM     24  C   UNL     1      50.945 247.156 347.794  0.00  0.00    +0.000 C 
ATOM     25  C   UNL     1      52.492 246.576 349.552  0.00  0.00    +0.000 C 
ENDBRANCH  22  23
ENDBRANCH  20  22
ENDBRANCH   6  20
TORSDOF 3
ENDMDL
MODEL 9
REMARK VINA RESULT:      -4.6     24.016     26.306
REMARK  Name = 6325056_Deoxyelephantopin.pdbqt.pdb
REMARK  3 active torsions:
REMARK  status: ('A' for Active; 'I' for Inactive)
REMARK    1  A    between atoms: C_6  and  O_20
REMARK    2  A    between atoms: O_20  and  C_22
REMARK    3  A    between atoms: C_22  and  C_23
REMARK                            x       y       z     vdW  Elec       q    Type
REMARK                         _______ _______ _______ _____ _____    ______ ____
ROOT
ATOM      1  O   UNL     1      61.764 230.766 348.828  0.00  0.00    +0.000 OA
ATOM      2  O   UNL     1      67.468 229.759 351.823  0.00  0.00    +0.000 OA
ATOM      3  O   UNL     1      59.475 230.579 348.801  0.00  0.00    +0.000 OA
ATOM      4  O   UNL     1      66.537 229.936 353.942  0.00  0.00    +0.000 OA
ATOM      5  C   UNL     1      62.203 229.934 350.992  0.00  0.00    +0.000 C 
ATOM      6  C   UNL     1      62.892 229.569 352.231  0.00  0.00    +0.000 C 
ATOM      7  C   UNL     1      62.762 230.472 349.765  0.00  0.00    +0.000 C 
ATOM      8  C   UNL     1      64.176 228.963 352.262  0.00  0.00    +0.000 C 
ATOM      9  C   UNL     1      60.777 229.904 350.744  0.00  0.00    +0.000 C 
ATOM     10  C   UNL     1      65.534 228.514 352.253  0.00  0.00    +0.000 C 
ATOM     11  C   UNL     1      64.115 230.646 349.393  0.00  0.00    +0.000 C 
ATOM     12  C   UNL     1      66.985 229.110 350.667  0.00  0.00    +0.000 C 
ATOM     13  C   UNL     1      66.463 229.989 349.672  0.00  0.00    +0.000 C 
ATOM     14  C   UNL     1      65.480 230.743 348.991  0.00  0.00    +0.000 C 
ATOM     15  C   UNL     1      66.116 228.070 351.055  0.00  0.00    +0.000 C 
ATOM     16  C   UNL     1      60.540 230.442 349.377  0.00  0.00    +0.000 C 
ATOM     17  C   UNL     1      66.558 229.451 352.825  0.00  0.00    +0.000 C 
ATOM     18  C   UNL     1      59.832 229.411 351.553  0.00  0.00    +0.000 C 
ATOM     19  C   UNL     1      65.824 231.420 347.703  0.00  0.00    +0.000 C 
ENDROOT
BRANCH   6  20
ATOM     20  O   UNL     1      62.190 229.569 353.448  0.00  0.00    +0.000 OA
BRANCH  20  22
ATOM     21  O   UNL     1      63.386 228.661 355.192  0.00  0.00    +0.000 OA
ATOM     22  C   UNL     1      62.526 228.558 354.321  0.00  0.00    +0.000 C 
BRANCH  22  23
ATOM     23  C   UNL     1      61.682 227.339 354.048  0.00  0.00    +0.000 C 
ATOM     24  C   UNL     1      62.228 226.081 353.393  0.00  0.00    +0.000 C 
ATOM     25  C   UNL     1      60.399 227.268 354.426  0.00  0.00    +0.000 C 
ENDBRANCH  22  23
ENDBRANCH  20  22
ENDBRANCH   6  20
TORSDOF 3
ENDMDL
