MODEL 1
REMARK VINA RESULT:      -5.3      0.000      0.000
REMARK  Name = 641785_Cardamonin.pdbqt.pdb
REMARK  6 active torsions:
REMARK  status: ('A' for Active; 'I' for Inactive)
REMARK    1  A    between atoms: C_1  and  C_14
REMARK    2  A    between atoms: C_2  and  O_7
REMARK    3  A    between atoms: C_3  and  O_9
REMARK    4  A    between atoms: C_6  and  O_11
REMARK    5  A    between atoms: C_14  and  C_15
REMARK    6  A    between atoms: C_16  and  C_17
REMARK                            x       y       z     vdW  Elec       q    Type
REMARK                         _______ _______ _______ _____ _____    ______ ____
ROOT
ATOM      1  C   UNL     1      57.813 217.232 336.932  0.00  0.00    +0.000 A 
ATOM      2  C   UNL     1      58.979 217.988 337.155  0.00  0.00    +0.000 A 
ATOM      3  C   UNL     1      56.799 217.240 337.912  0.00  0.00    +0.000 A 
ATOM      4  C   UNL     1      59.113 218.704 338.354  0.00  0.00    +0.000 A 
ATOM      5  C   UNL     1      56.953 217.950 339.102  0.00  0.00    +0.000 A 
ATOM      6  C   UNL     1      58.114 218.674 339.318  0.00  0.00    +0.000 A 
ENDROOT
BRANCH   2   7
ATOM      7  O   UNL     1      59.925 218.066 336.160  0.00  0.00    +0.000 OA
ATOM      8  C   UNL     1      61.001 217.176 336.262  0.00  0.00    +0.000 C 
ENDBRANCH   2   7
BRANCH   3   9
ATOM      9  O   UNL     1      55.611 216.566 337.781  0.00  0.00    +0.000 OA
ATOM     10  H   UNL     1      55.711 215.845 337.120  0.00  0.00    +0.000 HD
ENDBRANCH   3   9
BRANCH   6  11
ATOM     11  O   UNL     1      58.250 219.361 340.485  0.00  0.00    +0.000 OA
ATOM     12  H   UNL     1      57.400 219.783 340.703  0.00  0.00    +0.000 HD
ENDBRANCH   6  11
BRANCH   1  14
ATOM     13  O   UNL     1      58.043 215.288 335.622  0.00  0.00    +0.000 OA
ATOM     14  C   UNL     1      57.584 216.421 335.708  0.00  0.00    +0.000 C 
BRANCH  14  15
ATOM     15  C   UNL     1      56.884 216.981 334.578  0.00  0.00    +0.000 C 
ATOM     16  C   UNL     1      56.285 217.439 333.641  0.00  0.00    +0.000 C 
BRANCH  16  17
ATOM     17  C   UNL     1      55.581 217.984 332.528  0.00  0.00    +0.000 A 
ATOM     18  C   UNL     1      55.947 217.624 331.232  0.00  0.00    +0.000 A 
ATOM     19  C   UNL     1      54.532 218.875 332.736  0.00  0.00    +0.000 A 
ATOM     20  C   UNL     1      55.260 218.158 330.143  0.00  0.00    +0.000 A 
ATOM     21  C   UNL     1      53.846 219.408 331.647  0.00  0.00    +0.000 A 
ATOM     22  C   UNL     1      54.211 219.049 330.352  0.00  0.00    +0.000 A 
ENDBRANCH  16  17
ENDBRANCH  14  15
ENDBRANCH   1  14
TORSDOF 6
ENDMDL
MODEL 2
REMARK VINA RESULT:      -5.2     28.337     30.545
REMARK  Name = 641785_Cardamonin.pdbqt.pdb
REMARK  6 active torsions:
REMARK  status: ('A' for Active; 'I' for Inactive)
REMARK    1  A    between atoms: C_1  and  C_14
REMARK    2  A    between atoms: C_2  and  O_7
REMARK    3  A    between atoms: C_3  and  O_9
REMARK    4  A    between atoms: C_6  and  O_11
REMARK    5  A    between atoms: C_14  and  C_15
REMARK    6  A    between atoms: C_16  and  C_17
REMARK                            x       y       z     vdW  Elec       q    Type
REMARK                         _______ _______ _______ _____ _____    ______ ____
ROOT
ATOM      1  C   UNL     1      52.710 244.716 325.220  0.00  0.00    +0.000 A 
ATOM      2  C   UNL     1      52.636 245.398 326.450  0.00  0.00    +0.000 A 
ATOM      3  C   UNL     1      52.684 243.306 325.223  0.00  0.00    +0.000 A 
ATOM      4  C   UNL     1      52.563 244.659 327.640  0.00  0.00    +0.000 A 
ATOM      5  C   UNL     1      52.622 242.588 326.416  0.00  0.00    +0.000 A 
ATOM      6  C   UNL     1      52.569 243.271 327.619  0.00  0.00    +0.000 A 
ENDROOT
BRANCH   2   7
ATOM      7  O   UNL     1      52.557 246.771 326.449  0.00  0.00    +0.000 OA
ATOM      8  C   UNL     1      53.247 247.427 327.475  0.00  0.00    +0.000 C 
ENDBRANCH   2   7
BRANCH   3   9
ATOM      9  O   UNL     1      52.719 242.545 324.081  0.00  0.00    +0.000 OA
ATOM     10  H   UNL     1      53.278 242.988 323.405  0.00  0.00    +0.000 HD
ENDBRANCH   3   9
BRANCH   6  11
ATOM     11  O   UNL     1      52.510 242.556 328.777  0.00  0.00    +0.000 OA
ATOM     12  H   UNL     1      53.344 242.678 329.265  0.00  0.00    +0.000 HD
ENDBRANCH   6  11
BRANCH   1  14
ATOM     13  O   UNL     1      51.963 245.216 323.043  0.00  0.00    +0.000 OA
ATOM     14  C   UNL     1      52.813 245.403 323.907  0.00  0.00    +0.000 C 
BRANCH  14  15
ATOM     15  C   UNL     1      53.948 246.239 323.604  0.00  0.00    +0.000 C 
ATOM     16  C   UNL     1      54.884 246.952 323.353  0.00  0.00    +0.000 C 
BRANCH  16  17
ATOM     17  C   UNL     1      55.997 247.791 323.054  0.00  0.00    +0.000 A 
ATOM     18  C   UNL     1      56.855 247.458 322.007  0.00  0.00    +0.000 A 
ATOM     19  C   UNL     1      56.225 248.939 323.808  0.00  0.00    +0.000 A 
ATOM     20  C   UNL     1      57.944 248.277 321.715  0.00  0.00    +0.000 A 
ATOM     21  C   UNL     1      57.315 249.757 323.515  0.00  0.00    +0.000 A 
ATOM     22  C   UNL     1      58.172 249.425 322.469  0.00  0.00    +0.000 A 
ENDBRANCH  16  17
ENDBRANCH  14  15
ENDBRANCH   1  14
TORSDOF 6
ENDMDL
MODEL 3
REMARK VINA RESULT:      -5.0     23.940     26.637
REMARK  Name = 641785_Cardamonin.pdbqt.pdb
REMARK  6 active torsions:
REMARK  status: ('A' for Active; 'I' for Inactive)
REMARK    1  A    between atoms: C_1  and  C_14
REMARK    2  A    between atoms: C_2  and  O_7
REMARK    3  A    between atoms: C_3  and  O_9
REMARK    4  A    between atoms: C_6  and  O_11
REMARK    5  A    between atoms: C_14  and  C_15
REMARK    6  A    between atoms: C_16  and  C_17
REMARK                            x       y       z     vdW  Elec       q    Type
REMARK                         _______ _______ _______ _____ _____    ______ ____
ROOT
ATOM      1  C   UNL     1      51.151 242.587 326.021  0.00  0.00    +0.000 A 
ATOM      2  C   UNL     1      51.090 243.044 324.691  0.00  0.00    +0.000 A 
ATOM      3  C   UNL     1      52.353 242.750 326.741  0.00  0.00    +0.000 A 
ATOM      4  C   UNL     1      52.229 243.622 324.111  0.00  0.00    +0.000 A 
ATOM      5  C   UNL     1      53.479 243.317 326.146  0.00  0.00    +0.000 A 
ATOM      6  C   UNL     1      53.411 243.745 324.830  0.00  0.00    +0.000 A 
ENDROOT
BRANCH   2   7
ATOM      7  O   UNL     1      49.892 242.982 324.018  0.00  0.00    +0.000 OA
ATOM      8  C   UNL     1      49.188 244.187 323.903  0.00  0.00    +0.000 C 
ENDBRANCH   2   7
BRANCH   3   9
ATOM      9  O   UNL     1      52.511 242.371 328.050  0.00  0.00    +0.000 OA
ATOM     10  H   UNL     1      51.665 242.005 328.392  0.00  0.00    +0.000 HD
ENDBRANCH   3   9
BRANCH   6  11
ATOM     11  O   UNL     1      54.519 244.296 324.261  0.00  0.00    +0.000 OA
ATOM     12  H   UNL     1      54.497 245.260 324.400  0.00  0.00    +0.000 HD
ENDBRANCH   6  11
BRANCH   1  14
ATOM     13  O   UNL     1      49.551 242.436 327.743  0.00  0.00    +0.000 OA
ATOM     14  C   UNL     1      50.010 241.941 326.719  0.00  0.00    +0.000 C 
BRANCH  14  15
ATOM     15  C   UNL     1      49.477 240.687 326.247  0.00  0.00    +0.000 C 
ATOM     16  C   UNL     1      49.019 239.651 325.844  0.00  0.00    +0.000 C 
BRANCH  16  17
ATOM     17  C   UNL     1      48.480 238.419 325.371  0.00  0.00    +0.000 A 
ATOM     18  C   UNL     1      47.098 238.236 325.329  0.00  0.00    +0.000 A 
ATOM     19  C   UNL     1      49.333 237.400 324.955  0.00  0.00    +0.000 A 
ATOM     20  C   UNL     1      46.571 237.032 324.869  0.00  0.00    +0.000 A 
ATOM     21  C   UNL     1      48.804 236.196 324.494  0.00  0.00    +0.000 A 
ATOM     22  C   UNL     1      47.424 236.013 324.452  0.00  0.00    +0.000 A 
ENDBRANCH  16  17
ENDBRANCH  14  15
ENDBRANCH   1  14
TORSDOF 6
ENDMDL
MODEL 4
REMARK VINA RESULT:      -5.0     26.788     29.127
REMARK  Name = 641785_Cardamonin.pdbqt.pdb
REMARK  6 active torsions:
REMARK  status: ('A' for Active; 'I' for Inactive)
REMARK    1  A    between atoms: C_1  and  C_14
REMARK    2  A    between atoms: C_2  and  O_7
REMARK    3  A    between atoms: C_3  and  O_9
REMARK    4  A    between atoms: C_6  and  O_11
REMARK    5  A    between atoms: C_14  and  C_15
REMARK    6  A    between atoms: C_16  and  C_17
REMARK                            x       y       z     vdW  Elec       q    Type
REMARK                         _______ _______ _______ _____ _____    ______ ____
ROOT
ATOM      1  C   UNL     1      51.196 243.542 326.972  0.00  0.00    +0.000 A 
ATOM      2  C   UNL     1      50.365 244.659 327.178  0.00  0.00    +0.000 A 
ATOM      3  C   UNL     1      50.600 242.282 326.759  0.00  0.00    +0.000 A 
ATOM      4  C   UNL     1      48.973 244.485 327.191  0.00  0.00    +0.000 A 
ATOM      5  C   UNL     1      49.215 242.125 326.785  0.00  0.00    +0.000 A 
ATOM      6  C   UNL     1      48.410 243.229 327.008  0.00  0.00    +0.000 A 
ENDROOT
BRANCH   2   7
ATOM      7  O   UNL     1      50.936 245.906 327.284  0.00  0.00    +0.000 OA
ATOM      8  C   UNL     1      50.974 246.457 328.571  0.00  0.00    +0.000 C 
ENDBRANCH   2   7
BRANCH   3   9
ATOM      9  O   UNL     1      51.315 241.136 326.517  0.00  0.00    +0.000 OA
ATOM     10  H   UNL     1      51.051 240.757 325.650  0.00  0.00    +0.000 HD
ENDBRANCH   3   9
BRANCH   6  11
ATOM     11  O   UNL     1      47.058 243.061 327.032  0.00  0.00    +0.000 OA
ATOM     12  H   UNL     1      46.773 242.683 326.181  0.00  0.00    +0.000 HD
ENDBRANCH   6  11
BRANCH   1  14
ATOM     13  O   UNL     1      53.325 243.201 327.920  0.00  0.00    +0.000 OA
ATOM     14  C   UNL     1      52.680 243.615 326.963  0.00  0.00    +0.000 C 
BRANCH  14  15
ATOM     15  C   UNL     1      53.376 244.239 325.866  0.00  0.00    +0.000 C 
ATOM     16  C   UNL     1      53.944 244.773 324.951  0.00  0.00    +0.000 C 
BRANCH  16  17
ATOM     17  C   UNL     1      54.621 245.401 323.864  0.00  0.00    +0.000 A 
ATOM     18  C   UNL     1      55.072 244.635 322.791  0.00  0.00    +0.000 A 
ATOM     19  C   UNL     1      54.833 246.778 323.878  0.00  0.00    +0.000 A 
ATOM     20  C   UNL     1      55.735 245.247 321.730  0.00  0.00    +0.000 A 
ATOM     21  C   UNL     1      55.497 247.389 322.816  0.00  0.00    +0.000 A 
ATOM     22  C   UNL     1      55.947 246.623 321.744  0.00  0.00    +0.000 A 
ENDBRANCH  16  17
ENDBRANCH  14  15
ENDBRANCH   1  14
TORSDOF 6
ENDMDL
MODEL 5
REMARK VINA RESULT:      -4.9      3.568      7.879
REMARK  Name = 641785_Cardamonin.pdbqt.pdb
REMARK  6 active torsions:
REMARK  status: ('A' for Active; 'I' for Inactive)
REMARK    1  A    between atoms: C_1  and  C_14
REMARK    2  A    between atoms: C_2  and  O_7
REMARK    3  A    between atoms: C_3  and  O_9
REMARK    4  A    between atoms: C_6  and  O_11
REMARK    5  A    between atoms: C_14  and  C_15
REMARK    6  A    between atoms: C_16  and  C_17
REMARK                            x       y       z     vdW  Elec       q    Type
REMARK                         _______ _______ _______ _____ _____    ______ ____
ROOT
ATOM      1  C   UNL     1      55.298 217.748 330.605  0.00  0.00    +0.000 A 
ATOM      2  C   UNL     1      54.221 218.650 330.697  0.00  0.00    +0.000 A 
ATOM      3  C   UNL     1      56.030 217.685 329.401  0.00  0.00    +0.000 A 
ATOM      4  C   UNL     1      53.889 219.438 329.585  0.00  0.00    +0.000 A 
ATOM      5  C   UNL     1      55.680 218.468 328.302  0.00  0.00    +0.000 A 
ATOM      6  C   UNL     1      54.606 219.337 328.400  0.00  0.00    +0.000 A 
ENDROOT
BRANCH   2   7
ATOM      7  O   UNL     1      53.569 218.791 331.900  0.00  0.00    +0.000 OA
ATOM      8  C   UNL     1      52.239 218.352 331.934  0.00  0.00    +0.000 C 
ENDBRANCH   2   7
BRANCH   3   9
ATOM      9  O   UNL     1      57.115 216.866 329.215  0.00  0.00    +0.000 OA
ATOM     10  H   UNL     1      56.988 216.328 328.403  0.00  0.00    +0.000 HD
ENDBRANCH   3   9
BRANCH   6  11
ATOM     11  O   UNL     1      54.275 220.096 327.319  0.00  0.00    +0.000 OA
ATOM     12  H   UNL     1      54.852 220.880 327.296  0.00  0.00    +0.000 HD
ENDBRANCH   6  11
BRANCH   1  14
ATOM     13  O   UNL     1      55.570 215.640 331.619  0.00  0.00    +0.000 OA
ATOM     14  C   UNL     1      55.715 216.854 331.715  0.00  0.00    +0.000 C 
BRANCH  14  15
ATOM     15  C   UNL     1      56.225 217.403 332.947  0.00  0.00    +0.000 C 
ATOM     16  C   UNL     1      56.668 217.856 333.969  0.00  0.00    +0.000 C 
BRANCH  16  17
ATOM     17  C   UNL     1      57.187 218.393 335.183  0.00  0.00    +0.000 A 
ATOM     18  C   UNL     1      56.414 219.274 335.939  0.00  0.00    +0.000 A 
ATOM     19  C   UNL     1      58.464 218.039 335.612  0.00  0.00    +0.000 A 
ATOM     20  C   UNL     1      56.921 219.801 337.124  0.00  0.00    +0.000 A 
ATOM     21  C   UNL     1      58.970 218.567 336.798  0.00  0.00    +0.000 A 
ATOM     22  C   UNL     1      58.198 219.447 337.553  0.00  0.00    +0.000 A 
ENDBRANCH  16  17
ENDBRANCH  14  15
ENDBRANCH   1  14
TORSDOF 6
ENDMDL
MODEL 6
REMARK VINA RESULT:      -4.9     27.528     29.419
REMARK  Name = 641785_Cardamonin.pdbqt.pdb
REMARK  6 active torsions:
REMARK  status: ('A' for Active; 'I' for Inactive)
REMARK    1  A    between atoms: C_1  and  C_14
REMARK    2  A    between atoms: C_2  and  O_7
REMARK    3  A    between atoms: C_3  and  O_9
REMARK    4  A    between atoms: C_6  and  O_11
REMARK    5  A    between atoms: C_14  and  C_15
REMARK    6  A    between atoms: C_16  and  C_17
REMARK                            x       y       z     vdW  Elec       q    Type
REMARK                         _______ _______ _______ _____ _____    ______ ____
ROOT
ATOM      1  C   UNL     1      51.751 244.472 327.926  0.00  0.00    +0.000 A 
ATOM      2  C   UNL     1      52.026 245.723 328.511  0.00  0.00    +0.000 A 
ATOM      3  C   UNL     1      50.473 243.904 328.107  0.00  0.00    +0.000 A 
ATOM      4  C   UNL     1      51.034 246.356 329.275  0.00  0.00    +0.000 A 
ATOM      5  C   UNL     1      49.503 244.542 328.878  0.00  0.00    +0.000 A 
ATOM      6  C   UNL     1      49.792 245.763 329.463  0.00  0.00    +0.000 A 
ENDROOT
BRANCH   2   7
ATOM      7  O   UNL     1      53.234 246.330 328.254  0.00  0.00    +0.000 OA
ATOM      8  C   UNL     1      53.277 247.717 328.443  0.00  0.00    +0.000 C 
ENDBRANCH   2   7
BRANCH   3   9
ATOM      9  O   UNL     1      50.091 242.707 327.555  0.00  0.00    +0.000 OA
ATOM     10  H   UNL     1      50.073 242.784 326.576  0.00  0.00    +0.000 HD
ENDBRANCH   3   9
BRANCH   6  11
ATOM     11  O   UNL     1      48.835 246.374 330.215  0.00  0.00    +0.000 OA
ATOM     12  H   UNL     1      49.075 247.311 330.329  0.00  0.00    +0.000 HD
ENDBRANCH   6  11
BRANCH   1  14
ATOM     13  O   UNL     1      53.056 242.571 327.444  0.00  0.00    +0.000 OA
ATOM     14  C   UNL     1      52.739 243.711 327.119  0.00  0.00    +0.000 C 
BRANCH  14  15
ATOM     15  C   UNL     1      53.393 244.324 325.990  0.00  0.00    +0.000 C 
ATOM     16  C   UNL     1      53.928 244.825 325.037  0.00  0.00    +0.000 C 
BRANCH  16  17
ATOM     17  C   UNL     1      54.568 245.422 323.911  0.00  0.00    +0.000 A 
ATOM     18  C   UNL     1      54.953 244.630 322.831  0.00  0.00    +0.000 A 
ATOM     19  C   UNL     1      54.808 246.794 323.893  0.00  0.00    +0.000 A 
ATOM     20  C   UNL     1      55.579 245.211 321.731  0.00  0.00    +0.000 A 
ATOM     21  C   UNL     1      55.435 247.375 322.793  0.00  0.00    +0.000 A 
ATOM     22  C   UNL     1      55.820 246.583 321.714  0.00  0.00    +0.000 A 
ENDBRANCH  16  17
ENDBRANCH  14  15
ENDBRANCH   1  14
TORSDOF 6
ENDMDL
MODEL 7
REMARK VINA RESULT:      -4.8      1.740      2.464
REMARK  Name = 641785_Cardamonin.pdbqt.pdb
REMARK  6 active torsions:
REMARK  status: ('A' for Active; 'I' for Inactive)
REMARK    1  A    between atoms: C_1  and  C_14
REMARK    2  A    between atoms: C_2  and  O_7
REMARK    3  A    between atoms: C_3  and  O_9
REMARK    4  A    between atoms: C_6  and  O_11
REMARK    5  A    between atoms: C_14  and  C_15
REMARK    6  A    between atoms: C_16  and  C_17
REMARK                            x       y       z     vdW  Elec       q    Type
REMARK                         _______ _______ _______ _____ _____    ______ ____
ROOT
ATOM      1  C   UNL     1      57.210 216.979 336.755  0.00  0.00    +0.000 A 
ATOM      2  C   UNL     1      58.584 216.714 336.603  0.00  0.00    +0.000 A 
ATOM      3  C   UNL     1      56.401 216.022 337.402  0.00  0.00    +0.000 A 
ATOM      4  C   UNL     1      59.104 215.499 337.074  0.00  0.00    +0.000 A 
ATOM      5  C   UNL     1      56.933 214.816 337.855  0.00  0.00    +0.000 A 
ATOM      6  C   UNL     1      58.282 214.559 337.682  0.00  0.00    +0.000 A 
ENDROOT
BRANCH   2   7
ATOM      7  O   UNL     1      59.396 217.685 336.065  0.00  0.00    +0.000 OA
ATOM      8  C   UNL     1      60.605 217.241 335.516  0.00  0.00    +0.000 C 
ENDBRANCH   2   7
BRANCH   3   9
ATOM      9  O   UNL     1      55.059 216.194 337.630  0.00  0.00    +0.000 OA
ATOM     10  H   UNL     1      54.558 215.444 337.240  0.00  0.00    +0.000 HD
ENDBRANCH   3   9
BRANCH   6  11
ATOM     11  O   UNL     1      58.788 213.376 338.128  0.00  0.00    +0.000 OA
ATOM     12  H   UNL     1      58.630 212.692 337.454  0.00  0.00    +0.000 HD
ENDBRANCH   6  11
BRANCH   1  14
ATOM     13  O   UNL     1      56.340 219.149 337.045  0.00  0.00    +0.000 OA
ATOM     14  C   UNL     1      56.557 218.222 336.271  0.00  0.00    +0.000 C 
BRANCH  14  15
ATOM     15  C   UNL     1      56.102 218.329 334.907  0.00  0.00    +0.000 C 
ATOM     16  C   UNL     1      55.724 218.399 333.768  0.00  0.00    +0.000 C 
BRANCH  16  17
ATOM     17  C   UNL     1      55.276 218.489 332.417  0.00  0.00    +0.000 A 
ATOM     18  C   UNL     1      55.963 217.810 331.411  0.00  0.00    +0.000 A 
ATOM     19  C   UNL     1      54.156 219.255 332.104  0.00  0.00    +0.000 A 
ATOM     20  C   UNL     1      55.527 217.899 330.091  0.00  0.00    +0.000 A 
ATOM     21  C   UNL     1      53.721 219.344 330.783  0.00  0.00    +0.000 A 
ATOM     22  C   UNL     1      54.407 218.666 329.778  0.00  0.00    +0.000 A 
ENDBRANCH  16  17
ENDBRANCH  14  15
ENDBRANCH   1  14
TORSDOF 6
ENDMDL
MODEL 8
REMARK VINA RESULT:      -4.8      1.682      2.491
REMARK  Name = 641785_Cardamonin.pdbqt.pdb
REMARK  6 active torsions:
REMARK  status: ('A' for Active; 'I' for Inactive)
REMARK    1  A    between atoms: C_1  and  C_14
REMARK    2  A    between atoms: C_2  and  O_7
REMARK    3  A    between atoms: C_3  and  O_9
REMARK    4  A    between atoms: C_6  and  O_11
REMARK    5  A    between atoms: C_14  and  C_15
REMARK    6  A    between atoms: C_16  and  C_17
REMARK                            x       y       z     vdW  Elec       q    Type
REMARK                         _______ _______ _______ _____ _____    ______ ____
ROOT
ATOM      1  C   UNL     1      58.174 217.836 337.067  0.00  0.00    +0.000 A 
ATOM      2  C   UNL     1      58.138 216.469 337.403  0.00  0.00    +0.000 A 
ATOM      3  C   UNL     1      58.157 218.791 338.104  0.00  0.00    +0.000 A 
ATOM      4  C   UNL     1      58.060 216.097 338.753  0.00  0.00    +0.000 A 
ATOM      5  C   UNL     1      58.069 218.404 339.440  0.00  0.00    +0.000 A 
ATOM      6  C   UNL     1      58.015 217.057 339.756  0.00  0.00    +0.000 A 
ENDROOT
BRANCH   2   7
ATOM      7  O   UNL     1      58.258 215.532 336.403  0.00  0.00    +0.000 OA
ATOM      8  C   UNL     1      57.130 214.736 336.169  0.00  0.00    +0.000 C 
ENDBRANCH   2   7
BRANCH   3   9
ATOM      9  O   UNL     1      58.220 220.145 337.889  0.00  0.00    +0.000 OA
ATOM     10  H   UNL     1      58.643 220.323 337.020  0.00  0.00    +0.000 HD
ENDBRANCH   3   9
BRANCH   6  11
ATOM     11  O   UNL     1      57.928 216.693 341.066  0.00  0.00    +0.000 OA
ATOM     12  H   UNL     1      57.580 215.785 341.118  0.00  0.00    +0.000 HD
ENDBRANCH   6  11
BRANCH   1  14
ATOM     13  O   UNL     1      59.241 218.896 335.255  0.00  0.00    +0.000 OA
ATOM     14  C   UNL     1      58.233 218.334 335.669  0.00  0.00    +0.000 C 
BRANCH  14  15
ATOM     15  C   UNL     1      57.083 218.232 334.805  0.00  0.00    +0.000 C 
ATOM     16  C   UNL     1      56.114 218.142 334.099  0.00  0.00    +0.000 C 
BRANCH  16  17
ATOM     17  C   UNL     1      54.969 218.035 333.256  0.00  0.00    +0.000 A 
ATOM     18  C   UNL     1      54.270 216.831 333.183  0.00  0.00    +0.000 A 
ATOM     19  C   UNL     1      54.551 219.132 332.507  0.00  0.00    +0.000 A 
ATOM     20  C   UNL     1      53.152 216.726 332.359  0.00  0.00    +0.000 A 
ATOM     21  C   UNL     1      53.433 219.026 331.683  0.00  0.00    +0.000 A 
ATOM     22  C   UNL     1      52.735 217.823 331.610  0.00  0.00    +0.000 A 
ENDBRANCH  16  17
ENDBRANCH  14  15
ENDBRANCH   1  14
TORSDOF 6
ENDMDL
MODEL 9
REMARK VINA RESULT:      -4.5     21.622     24.602
REMARK  Name = 641785_Cardamonin.pdbqt.pdb
REMARK  6 active torsions:
REMARK  status: ('A' for Active; 'I' for Inactive)
REMARK    1  A    between atoms: C_1  and  C_14
REMARK    2  A    between atoms: C_2  and  O_7
REMARK    3  A    between atoms: C_3  and  O_9
REMARK    4  A    between atoms: C_6  and  O_11
REMARK    5  A    between atoms: C_14  and  C_15
REMARK    6  A    between atoms: C_16  and  C_17
REMARK                            x       y       z     vdW  Elec       q    Type
REMARK                         _______ _______ _______ _____ _____    ______ ____
ROOT
ATOM      1  C   UNL     1      48.186 238.705 324.479  0.00  0.00    +0.000 A 
ATOM      2  C   UNL     1      46.859 239.164 324.376  0.00  0.00    +0.000 A 
ATOM      3  C   UNL     1      48.898 238.944 325.672  0.00  0.00    +0.000 A 
ATOM      4  C   UNL     1      46.292 239.866 325.450  0.00  0.00    +0.000 A 
ATOM      5  C   UNL     1      48.322 239.653 326.725  0.00  0.00    +0.000 A 
ATOM      6  C   UNL     1      47.023 240.116 326.604  0.00  0.00    +0.000 A 
ENDROOT
BRANCH   2   7
ATOM      7  O   UNL     1      46.126 238.845 323.257  0.00  0.00    +0.000 OA
ATOM      8  C   UNL     1      44.920 239.538 323.094  0.00  0.00    +0.000 C 
ENDBRANCH   2   7
BRANCH   3   9
ATOM      9  O   UNL     1      50.182 238.513 325.888  0.00  0.00    +0.000 OA
ATOM     10  H   UNL     1      50.171 237.579 326.193  0.00  0.00    +0.000 HD
ENDBRANCH   3   9
BRANCH   6  11
ATOM     11  O   UNL     1      46.474 240.808 327.641  0.00  0.00    +0.000 OA
ATOM     12  H   UNL     1      46.959 240.590 328.457  0.00  0.00    +0.000 HD
ENDBRANCH   6  11
BRANCH   1  14
ATOM     13  O   UNL     1      49.681 238.556 322.665  0.00  0.00    +0.000 OA
ATOM     14  C   UNL     1      48.885 237.972 323.392  0.00  0.00    +0.000 C 
BRANCH  14  15
ATOM     15  C   UNL     1      48.584 236.587 323.129  0.00  0.00    +0.000 C 
ATOM     16  C   UNL     1      48.319 235.437 322.897  0.00  0.00    +0.000 C 
BRANCH  16  17
ATOM     17  C   UNL     1      48.010 234.071 322.627  0.00  0.00    +0.000 A 
ATOM     18  C   UNL     1      47.760 233.662 321.318  0.00  0.00    +0.000 A 
ATOM     19  C   UNL     1      47.955 233.151 323.671  0.00  0.00    +0.000 A 
ATOM     20  C   UNL     1      47.456 232.328 321.054  0.00  0.00    +0.000 A 
ATOM     21  C   UNL     1      47.650 231.817 323.406  0.00  0.00    +0.000 A 
ATOM     22  C   UNL     1      47.401 231.408 322.098  0.00  0.00    +0.000 A 
ENDBRANCH  16  17
ENDBRANCH  14  15
ENDBRANCH   1  14
TORSDOF 6
ENDMDL
