MODEL 1
REMARK VINA RESULT:      -5.1      0.000      0.000
REMARK  Name = 6440856_Goniothalamin.pdbqt.pdb
REMARK  2 active torsions:
REMARK  status: ('A' for Active; 'I' for Inactive)
REMARK    1  A    between atoms: C_1  and  C_5
REMARK    2  A    between atoms: C_2  and  C_10
REMARK                            x       y       z     vdW  Elec       q    Type
REMARK                         _______ _______ _______ _____ _____    ______ ____
ROOT
ATOM      1  C   UNL     1      53.925 244.868 324.413  0.00  0.00    +0.000 C 
ATOM      2  C   UNL     1      54.636 245.638 323.828  0.00  0.00    +0.000 C 
ENDROOT
BRANCH   1   5
ATOM      3  O   UNL     1      53.330 243.726 326.502  0.00  0.00    +0.000 OA
ATOM      4  O   UNL     1      52.597 242.542 328.356  0.00  0.00    +0.000 OA
ATOM      5  C   UNL     1      53.090 243.958 325.101  0.00  0.00    +0.000 A 
ATOM      6  C   UNL     1      52.007 243.227 324.540  0.00  0.00    +0.000 A 
ATOM      7  C   UNL     1      51.071 242.243 325.202  0.00  0.00    +0.000 A 
ATOM      8  C   UNL     1      51.475 242.231 326.329  0.00  0.00    +0.000 A 
ATOM      9  C   UNL     1      52.496 242.823 327.172  0.00  0.00    +0.000 A 
ENDBRANCH   1   5
BRANCH   2  10
ATOM     10  C   UNL     1      55.481 246.552 323.132  0.00  0.00    +0.000 A 
ATOM     11  C   UNL     1      56.138 246.149 321.972  0.00  0.00    +0.000 A 
ATOM     12  C   UNL     1      55.648 247.849 323.615  0.00  0.00    +0.000 A 
ATOM     13  C   UNL     1      56.964 247.042 321.294  0.00  0.00    +0.000 A 
ATOM     14  C   UNL     1      56.474 248.742 322.936  0.00  0.00    +0.000 A 
ATOM     15  C   UNL     1      57.131 248.338 321.776  0.00  0.00    +0.000 A 
ENDBRANCH   2  10
TORSDOF 2
ENDMDL
MODEL 2
REMARK VINA RESULT:      -4.9      2.816      7.161
REMARK  Name = 6440856_Goniothalamin.pdbqt.pdb
REMARK  2 active torsions:
REMARK  status: ('A' for Active; 'I' for Inactive)
REMARK    1  A    between atoms: C_1  and  C_5
REMARK    2  A    between atoms: C_2  and  C_10
REMARK                            x       y       z     vdW  Elec       q    Type
REMARK                         _______ _______ _______ _____ _____    ______ ____
ROOT
ATOM      1  C   UNL     1      54.856 244.830 323.214  0.00  0.00    +0.000 C 
ATOM      2  C   UNL     1      54.120 244.257 323.970  0.00  0.00    +0.000 C 
ENDROOT
BRANCH   1   5
ATOM      3  O   UNL     1      56.230 244.786 321.182  0.00  0.00    +0.000 OA
ATOM      4  O   UNL     1      57.582 244.967 319.306  0.00  0.00    +0.000 OA
ATOM      5  C   UNL     1      55.720 245.504 322.321  0.00  0.00    +0.000 A 
ATOM      6  C   UNL     1      56.151 246.854 322.432  0.00  0.00    +0.000 A 
ATOM      7  C   UNL     1      57.066 247.645 321.527  0.00  0.00    +0.000 A 
ATOM      8  C   UNL     1      57.342 246.840 320.684  0.00  0.00    +0.000 A 
ATOM      9  C   UNL     1      57.085 245.465 320.305  0.00  0.00    +0.000 A 
ENDBRANCH   1   5
BRANCH   2  10
ATOM     10  C   UNL     1      53.245 243.578 324.869  0.00  0.00    +0.000 A 
ATOM     11  C   UNL     1      53.562 243.498 326.222  0.00  0.00    +0.000 A 
ATOM     12  C   UNL     1      52.073 242.995 324.390  0.00  0.00    +0.000 A 
ATOM     13  C   UNL     1      52.708 242.833 327.099  0.00  0.00    +0.000 A 
ATOM     14  C   UNL     1      51.218 242.331 325.268  0.00  0.00    +0.000 A 
ATOM     15  C   UNL     1      51.536 242.252 326.622  0.00  0.00    +0.000 A 
ENDBRANCH   2  10
TORSDOF 2
ENDMDL
MODEL 3
REMARK VINA RESULT:      -4.8     25.003     25.967
REMARK  Name = 6440856_Goniothalamin.pdbqt.pdb
REMARK  2 active torsions:
REMARK  status: ('A' for Active; 'I' for Inactive)
REMARK    1  A    between atoms: C_1  and  C_5
REMARK    2  A    between atoms: C_2  and  C_10
REMARK                            x       y       z     vdW  Elec       q    Type
REMARK                         _______ _______ _______ _____ _____    ______ ____
ROOT
ATOM      1  C   UNL     1      73.829 235.094 336.731  0.00  0.00    +0.000 C 
ATOM      2  C   UNL     1      74.613 235.042 337.639  0.00  0.00    +0.000 C 
ENDROOT
BRANCH   1   5
ATOM      3  O   UNL     1      71.558 234.701 335.888  0.00  0.00    +0.000 OA
ATOM      4  O   UNL     1      69.487 234.411 334.887  0.00  0.00    +0.000 OA
ATOM      5  C   UNL     1      72.907 235.152 335.661  0.00  0.00    +0.000 A 
ATOM      6  C   UNL     1      73.178 235.622 334.347  0.00  0.00    +0.000 A 
ATOM      7  C   UNL     1      72.256 235.717 333.154  0.00  0.00    +0.000 A 
ATOM      8  C   UNL     1      71.228 235.292 333.598  0.00  0.00    +0.000 A 
ATOM      9  C   UNL     1      70.655 234.763 334.821  0.00  0.00    +0.000 A 
ENDBRANCH   1   5
BRANCH   2  10
ATOM     10  C   UNL     1      75.544 234.979 338.717  0.00  0.00    +0.000 A 
ATOM     11  C   UNL     1      76.137 233.765 339.056  0.00  0.00    +0.000 A 
ATOM     12  C   UNL     1      75.860 236.133 339.431  0.00  0.00    +0.000 A 
ATOM     13  C   UNL     1      77.045 233.704 340.110  0.00  0.00    +0.000 A 
ATOM     14  C   UNL     1      76.769 236.072 340.485  0.00  0.00    +0.000 A 
ATOM     15  C   UNL     1      77.362 234.858 340.823  0.00  0.00    +0.000 A 
ENDBRANCH   2  10
TORSDOF 2
ENDMDL
MODEL 4
REMARK VINA RESULT:      -4.6      1.391      2.180
REMARK  Name = 6440856_Goniothalamin.pdbqt.pdb
REMARK  2 active torsions:
REMARK  status: ('A' for Active; 'I' for Inactive)
REMARK    1  A    between atoms: C_1  and  C_5
REMARK    2  A    between atoms: C_2  and  C_10
REMARK                            x       y       z     vdW  Elec       q    Type
REMARK                         _______ _______ _______ _____ _____    ______ ____
ROOT
ATOM      1  C   UNL     1      54.148 245.112 324.230  0.00  0.00    +0.000 C 
ATOM      2  C   UNL     1      54.869 245.902 323.684  0.00  0.00    +0.000 C 
ENDROOT
BRANCH   1   5
ATOM      3  O   UNL     1      52.193 243.633 324.130  0.00  0.00    +0.000 OA
ATOM      4  O   UNL     1      50.392 242.177 324.256  0.00  0.00    +0.000 OA
ATOM      5  C   UNL     1      53.301 244.179 324.870  0.00  0.00    +0.000 A 
ATOM      6  C   UNL     1      53.431 243.709 326.206  0.00  0.00    +0.000 A 
ATOM      7  C   UNL     1      52.575 242.719 326.961  0.00  0.00    +0.000 A 
ATOM      8  C   UNL     1      51.749 242.427 326.143  0.00  0.00    +0.000 A 
ATOM      9  C   UNL     1      51.361 242.710 324.775  0.00  0.00    +0.000 A 
ENDBRANCH   1   5
BRANCH   2  10
ATOM     10  C   UNL     1      55.726 246.840 323.036  0.00  0.00    +0.000 A 
ATOM     11  C   UNL     1      55.836 248.138 323.530  0.00  0.00    +0.000 A 
ATOM     12  C   UNL     1      56.452 246.457 321.911  0.00  0.00    +0.000 A 
ATOM     13  C   UNL     1      56.673 249.054 322.896  0.00  0.00    +0.000 A 
ATOM     14  C   UNL     1      57.289 247.373 321.278  0.00  0.00    +0.000 A 
ATOM     15  C   UNL     1      57.399 248.671 321.771  0.00  0.00    +0.000 A 
ENDBRANCH   2  10
TORSDOF 2
ENDMDL
MODEL 5
REMARK VINA RESULT:      -4.6      3.375      4.097
REMARK  Name = 6440856_Goniothalamin.pdbqt.pdb
REMARK  2 active torsions:
REMARK  status: ('A' for Active; 'I' for Inactive)
REMARK    1  A    between atoms: C_1  and  C_5
REMARK    2  A    between atoms: C_2  and  C_10
REMARK                            x       y       z     vdW  Elec       q    Type
REMARK                         _______ _______ _______ _____ _____    ______ ____
ROOT
ATOM      1  C   UNL     1      53.820 243.882 322.221  0.00  0.00    +0.000 C 
ATOM      2  C   UNL     1      54.346 244.913 322.543  0.00  0.00    +0.000 C 
ENDROOT
BRANCH   1   5
ATOM      3  O   UNL     1      54.027 241.578 321.402  0.00  0.00    +0.000 OA
ATOM      4  O   UNL     1      53.990 239.389 320.641  0.00  0.00    +0.000 OA
ATOM      5  C   UNL     1      53.198 242.670 321.845  0.00  0.00    +0.000 A 
ATOM      6  C   UNL     1      51.801 242.406 321.860  0.00  0.00    +0.000 A 
ATOM      7  C   UNL     1      51.060 241.146 321.477  0.00  0.00    +0.000 A 
ATOM      8  C   UNL     1      51.955 240.418 321.154  0.00  0.00    +0.000 A 
ATOM      9  C   UNL     1      53.399 240.383 321.032  0.00  0.00    +0.000 A 
ENDBRANCH   1   5
BRANCH   2  10
ATOM     10  C   UNL     1      54.971 246.136 322.925  0.00  0.00    +0.000 A 
ATOM     11  C   UNL     1      54.528 246.820 324.055  0.00  0.00    +0.000 A 
ATOM     12  C   UNL     1      56.023 246.646 322.168  0.00  0.00    +0.000 A 
ATOM     13  C   UNL     1      55.138 248.016 324.428  0.00  0.00    +0.000 A 
ATOM     14  C   UNL     1      56.633 247.842 322.541  0.00  0.00    +0.000 A 
ATOM     15  C   UNL     1      56.190 248.525 323.671  0.00  0.00    +0.000 A 
ENDBRANCH   2  10
TORSDOF 2
ENDMDL
MODEL 6
REMARK VINA RESULT:      -4.6     30.622     32.165
REMARK  Name = 6440856_Goniothalamin.pdbqt.pdb
REMARK  2 active torsions:
REMARK  status: ('A' for Active; 'I' for Inactive)
REMARK    1  A    between atoms: C_1  and  C_5
REMARK    2  A    between atoms: C_2  and  C_10
REMARK                            x       y       z     vdW  Elec       q    Type
REMARK                         _______ _______ _______ _____ _____    ______ ____
ROOT
ATOM      1  C   UNL     1      71.273 222.519 338.195  0.00  0.00    +0.000 C 
ATOM      2  C   UNL     1      70.332 221.792 338.361  0.00  0.00    +0.000 C 
ENDROOT
BRANCH   1   5
ATOM      3  O   UNL     1      72.604 223.934 336.695  0.00  0.00    +0.000 OA
ATOM      4  O   UNL     1      74.000 225.314 335.460  0.00  0.00    +0.000 OA
ATOM      5  C   UNL     1      72.383 223.374 338.003  0.00  0.00    +0.000 A 
ATOM      6  C   UNL     1      73.330 223.750 338.994  0.00  0.00    +0.000 A 
ATOM      7  C   UNL     1      74.536 224.653 338.873  0.00  0.00    +0.000 A 
ATOM      8  C   UNL     1      74.493 224.975 337.721  0.00  0.00    +0.000 A 
ATOM      9  C   UNL     1      73.706 224.779 336.519  0.00  0.00    +0.000 A 
ENDBRANCH   1   5
BRANCH   2  10
ATOM     10  C   UNL     1      69.214 220.929 338.558  0.00  0.00    +0.000 A 
ATOM     11  C   UNL     1      69.246 219.968 339.566  0.00  0.00    +0.000 A 
ATOM     12  C   UNL     1      68.091 221.048 337.742  0.00  0.00    +0.000 A 
ATOM     13  C   UNL     1      68.154 219.125 339.758  0.00  0.00    +0.000 A 
ATOM     14  C   UNL     1      66.999 220.204 337.934  0.00  0.00    +0.000 A 
ATOM     15  C   UNL     1      67.032 219.244 338.942  0.00  0.00    +0.000 A 
ENDBRANCH   2  10
TORSDOF 2
ENDMDL
MODEL 7
REMARK VINA RESULT:      -4.6      2.669      3.640
REMARK  Name = 6440856_Goniothalamin.pdbqt.pdb
REMARK  2 active torsions:
REMARK  status: ('A' for Active; 'I' for Inactive)
REMARK    1  A    between atoms: C_1  and  C_5
REMARK    2  A    between atoms: C_2  and  C_10
REMARK                            x       y       z     vdW  Elec       q    Type
REMARK                         _______ _______ _______ _____ _____    ______ ____
ROOT
ATOM      1  C   UNL     1      54.997 245.766 322.896  0.00  0.00    +0.000 C 
ATOM      2  C   UNL     1      55.643 246.776 322.944  0.00  0.00    +0.000 C 
ENDROOT
BRANCH   1   5
ATOM      3  O   UNL     1      54.431 243.691 321.714  0.00  0.00    +0.000 OA
ATOM      4  O   UNL     1      53.744 241.688 320.769  0.00  0.00    +0.000 OA
ATOM      5  C   UNL     1      54.238 244.575 322.835  0.00  0.00    +0.000 A 
ATOM      6  C   UNL     1      53.277 244.145 323.790  0.00  0.00    +0.000 A 
ATOM      7  C   UNL     1      52.428 242.895 323.800  0.00  0.00    +0.000 A 
ATOM      8  C   UNL     1      52.772 242.351 322.789  0.00  0.00    +0.000 A 
ATOM      9  C   UNL     1      53.672 242.515 321.665  0.00  0.00    +0.000 A 
ENDBRANCH   1   5
BRANCH   2  10
ATOM     10  C   UNL     1      56.411 247.977 323.002  0.00  0.00    +0.000 A 
ATOM     11  C   UNL     1      56.156 248.919 323.997  0.00  0.00    +0.000 A 
ATOM     12  C   UNL     1      57.415 248.206 322.064  0.00  0.00    +0.000 A 
ATOM     13  C   UNL     1      56.906 250.092 324.052  0.00  0.00    +0.000 A 
ATOM     14  C   UNL     1      58.165 249.379 322.120  0.00  0.00    +0.000 A 
ATOM     15  C   UNL     1      57.910 250.320 323.115  0.00  0.00    +0.000 A 
ENDBRANCH   2  10
TORSDOF 2
ENDMDL
MODEL 8
REMARK VINA RESULT:      -4.5     30.700     32.935
REMARK  Name = 6440856_Goniothalamin.pdbqt.pdb
REMARK  2 active torsions:
REMARK  status: ('A' for Active; 'I' for Inactive)
REMARK    1  A    between atoms: C_1  and  C_5
REMARK    2  A    between atoms: C_2  and  C_10
REMARK                            x       y       z     vdW  Elec       q    Type
REMARK                         _______ _______ _______ _____ _____    ______ ____
ROOT
ATOM      1  C   UNL     1      72.681 223.183 338.887  0.00  0.00    +0.000 C 
ATOM      2  C   UNL     1      72.053 222.398 339.543  0.00  0.00    +0.000 C 
ENDROOT
BRANCH   1   5
ATOM      3  O   UNL     1      73.326 224.045 336.681  0.00  0.00    +0.000 OA
ATOM      4  O   UNL     1      74.068 225.014 334.709  0.00  0.00    +0.000 OA
ATOM      5  C   UNL     1      73.421 224.110 338.116  0.00  0.00    +0.000 A 
ATOM      6  C   UNL     1      74.274 225.128 338.624  0.00  0.00    +0.000 A 
ATOM      7  C   UNL     1      75.095 226.152 337.875  0.00  0.00    +0.000 A 
ATOM      8  C   UNL     1      74.845 225.887 336.734  0.00  0.00    +0.000 A 
ATOM      9  C   UNL     1      74.064 224.967 335.930  0.00  0.00    +0.000 A 
ENDBRANCH   1   5
BRANCH   2  10
ATOM     10  C   UNL     1      71.308 221.466 340.324  0.00  0.00    +0.000 A 
ATOM     11  C   UNL     1      70.315 220.695 339.725  0.00  0.00    +0.000 A 
ATOM     12  C   UNL     1      71.576 221.327 341.684  0.00  0.00    +0.000 A 
ATOM     13  C   UNL     1      69.587 219.784 340.488  0.00  0.00    +0.000 A 
ATOM     14  C   UNL     1      70.848 220.416 342.446  0.00  0.00    +0.000 A 
ATOM     15  C   UNL     1      69.854 219.645 341.847  0.00  0.00    +0.000 A 
ENDBRANCH   2  10
TORSDOF 2
ENDMDL
MODEL 9
REMARK VINA RESULT:      -4.5     30.105     31.730
REMARK  Name = 6440856_Goniothalamin.pdbqt.pdb
REMARK  2 active torsions:
REMARK  status: ('A' for Active; 'I' for Inactive)
REMARK    1  A    between atoms: C_1  and  C_5
REMARK    2  A    between atoms: C_2  and  C_10
REMARK                            x       y       z     vdW  Elec       q    Type
REMARK                         _______ _______ _______ _____ _____    ______ ____
ROOT
ATOM      1  C   UNL     1      60.376 229.572 351.521  0.00  0.00    +0.000 C 
ATOM      2  C   UNL     1      61.368 229.910 350.934  0.00  0.00    +0.000 C 
ENDROOT
BRANCH   1   5
ATOM      3  O   UNL     1      58.157 230.134 352.406  0.00  0.00    +0.000 OA
ATOM      4  O   UNL     1      56.049 230.445 353.319  0.00  0.00    +0.000 OA
ATOM      5  C   UNL     1      59.210 229.170 352.212  0.00  0.00    +0.000 A 
ATOM      6  C   UNL     1      58.959 227.878 352.749  0.00  0.00    +0.000 A 
ATOM      7  C   UNL     1      57.747 227.370 353.496  0.00  0.00    +0.000 A 
ATOM      8  C   UNL     1      57.044 228.339 353.522  0.00  0.00    +0.000 A 
ATOM      9  C   UNL     1      57.008 229.724 353.092  0.00  0.00    +0.000 A 
ENDBRANCH   1   5
BRANCH   2  10
ATOM     10  C   UNL     1      62.546 230.311 350.238  0.00  0.00    +0.000 A 
ATOM     11  C   UNL     1      63.501 231.095 350.881  0.00  0.00    +0.000 A 
ATOM     12  C   UNL     1      62.740 229.918 348.915  0.00  0.00    +0.000 A 
ATOM     13  C   UNL     1      64.651 231.488 350.200  0.00  0.00    +0.000 A 
ATOM     14  C   UNL     1      63.891 230.310 348.235  0.00  0.00    +0.000 A 
ATOM     15  C   UNL     1      64.846 231.094 348.878  0.00  0.00    +0.000 A 
ENDBRANCH   2  10
TORSDOF 2
ENDMDL
