MODEL 1
REMARK VINA RESULT:      -3.5      0.000      0.000
REMARK  Name = 649_Dihydrouracil.pdb
REMARK  0 active torsions:
REMARK  status: ('A' for Active; 'I' for Inactive)
REMARK                            x       y       z     vdW  Elec       q    Type
REMARK                         _______ _______ _______ _____ _____    ______ ____
ROOT
ATOM      1  O   UNL     1      52.414 238.095 349.357  0.00  0.00    +0.000 OA
ATOM      2  O   UNL     1      56.499 240.131 348.681  0.00  0.00    +0.000 OA
ATOM      3  N   UNL     1      54.717 240.891 347.455  0.00  0.00    +0.000 N 
ATOM      4  N   UNL     1      54.455 239.131 349.002  0.00  0.00    +0.000 N 
ATOM      5  C   UNL     1      53.417 240.820 347.139  0.00  0.00    +0.000 A 
ATOM      6  C   UNL     1      52.529 239.819 347.803  0.00  0.00    +0.000 A 
ATOM      7  C   UNL     1      53.092 238.934 348.784  0.00  0.00    +0.000 A 
ATOM      8  C   UNL     1      55.309 240.059 348.397  0.00  0.00    +0.000 A 
ATOM      9  H   UNL     1      55.309 241.574 347.000  0.00  0.00    +0.000 HD
ATOM     10  H   UNL     1      54.881 238.525 349.686  0.00  0.00    +0.000 HD
ENDROOT
TORSDOF 0
ENDMDL
MODEL 2
REMARK VINA RESULT:      -3.4      2.395      3.316
REMARK  Name = 649_Dihydrouracil.pdb
REMARK  0 active torsions:
REMARK  status: ('A' for Active; 'I' for Inactive)
REMARK                            x       y       z     vdW  Elec       q    Type
REMARK                         _______ _______ _______ _____ _____    ______ ____
ROOT
ATOM      1  O   UNL     1      57.081 240.758 349.021  0.00  0.00    +0.000 OA
ATOM      2  O   UNL     1      54.327 242.589 345.803  0.00  0.00    +0.000 OA
ATOM      3  N   UNL     1      53.682 240.603 346.749  0.00  0.00    +0.000 N 
ATOM      4  N   UNL     1      55.684 241.660 347.408  0.00  0.00    +0.000 N 
ATOM      5  C   UNL     1      53.912 239.605 347.612  0.00  0.00    +0.000 A 
ATOM      6  C   UNL     1      55.137 239.611 348.468  0.00  0.00    +0.000 A 
ATOM      7  C   UNL     1      56.063 240.702 348.348  0.00  0.00    +0.000 A 
ATOM      8  C   UNL     1      54.545 241.681 346.596  0.00  0.00    +0.000 A 
ATOM      9  H   UNL     1      52.849 240.589 346.175  0.00  0.00    +0.000 HD
ATOM     10  H   UNL     1      56.314 242.440 347.300  0.00  0.00    +0.000 HD
ENDROOT
TORSDOF 0
ENDMDL
MODEL 3
REMARK VINA RESULT:      -3.3     12.413     13.341
REMARK  Name = 649_Dihydrouracil.pdb
REMARK  0 active torsions:
REMARK  status: ('A' for Active; 'I' for Inactive)
REMARK                            x       y       z     vdW  Elec       q    Type
REMARK                         _______ _______ _______ _____ _____    ______ ____
ROOT
ATOM      1  O   UNL     1      65.211 236.487 345.650  0.00  0.00    +0.000 OA
ATOM      2  O   UNL     1      63.825 234.298 341.832  0.00  0.00    +0.000 OA
ATOM      3  N   UNL     1      65.406 233.267 343.134  0.00  0.00    +0.000 N 
ATOM      4  N   UNL     1      64.529 235.371 343.738  0.00  0.00    +0.000 N 
ATOM      5  C   UNL     1      66.188 233.269 344.222  0.00  0.00    +0.000 A 
ATOM      6  C   UNL     1      66.157 234.419 345.175  0.00  0.00    +0.000 A 
ATOM      7  C   UNL     1      65.277 235.521 344.906  0.00  0.00    +0.000 A 
ATOM      8  C   UNL     1      64.537 234.308 342.829  0.00  0.00    +0.000 A 
ATOM      9  H   UNL     1      65.434 232.483 342.495  0.00  0.00    +0.000 HD
ATOM     10  H   UNL     1      63.900 236.129 343.521  0.00  0.00    +0.000 HD
ENDROOT
TORSDOF 0
ENDMDL
MODEL 4
REMARK VINA RESULT:      -3.2     26.676     26.778
REMARK  Name = 649_Dihydrouracil.pdb
REMARK  0 active torsions:
REMARK  status: ('A' for Active; 'I' for Inactive)
REMARK                            x       y       z     vdW  Elec       q    Type
REMARK                         _______ _______ _______ _____ _____    ______ ____
ROOT
ATOM      1  O   UNL     1      59.034 224.987 327.336  0.00  0.00    +0.000 OA
ATOM      2  O   UNL     1      63.560 224.797 328.214  0.00  0.00    +0.000 OA
ATOM      3  N   UNL     1      62.330 222.894 328.560  0.00  0.00    +0.000 N 
ATOM      4  N   UNL     1      61.304 224.870 327.783  0.00  0.00    +0.000 N 
ATOM      5  C   UNL     1      61.150 222.259 328.535  0.00  0.00    +0.000 A 
ATOM      6  C   UNL     1      59.914 222.975 328.096  0.00  0.00    +0.000 A 
ATOM      7  C   UNL     1      60.011 224.352 327.702  0.00  0.00    +0.000 A 
ATOM      8  C   UNL     1      62.477 224.225 328.189  0.00  0.00    +0.000 A 
ATOM      9  H   UNL     1      63.161 222.399 328.858  0.00  0.00    +0.000 HD
ATOM     10  H   UNL     1      61.407 225.836 327.513  0.00  0.00    +0.000 HD
ENDROOT
TORSDOF 0
ENDMDL
MODEL 5
REMARK VINA RESULT:      -3.2     25.124     25.768
REMARK  Name = 649_Dihydrouracil.pdb
REMARK  0 active torsions:
REMARK  status: ('A' for Active; 'I' for Inactive)
REMARK                            x       y       z     vdW  Elec       q    Type
REMARK                         _______ _______ _______ _____ _____    ______ ____
ROOT
ATOM      1  O   UNL     1      70.002 220.108 336.948  0.00  0.00    +0.000 OA
ATOM      2  O   UNL     1      69.265 224.663 336.969  0.00  0.00    +0.000 OA
ATOM      3  N   UNL     1      69.933 223.686 338.932  0.00  0.00    +0.000 N 
ATOM      4  N   UNL     1      69.638 222.396 336.980  0.00  0.00    +0.000 N 
ATOM      5  C   UNL     1      70.288 222.590 339.616  0.00  0.00    +0.000 A 
ATOM      6  C   UNL     1      70.332 221.257 338.941  0.00  0.00    +0.000 A 
ATOM      7  C   UNL     1      69.985 221.171 337.550  0.00  0.00    +0.000 A 
ATOM      8  C   UNL     1      69.589 223.656 337.586  0.00  0.00    +0.000 A 
ATOM      9  H   UNL     1      69.908 224.584 339.399  0.00  0.00    +0.000 HD
ATOM     10  H   UNL     1      69.389 222.369 336.004  0.00  0.00    +0.000 HD
ENDROOT
TORSDOF 0
ENDMDL
MODEL 6
REMARK VINA RESULT:      -3.1     22.428     23.232
REMARK  Name = 649_Dihydrouracil.pdb
REMARK  0 active torsions:
REMARK  status: ('A' for Active; 'I' for Inactive)
REMARK                            x       y       z     vdW  Elec       q    Type
REMARK                         _______ _______ _______ _____ _____    ______ ____
ROOT
ATOM      1  O   UNL     1      51.706 243.382 323.077  0.00  0.00    +0.000 OA
ATOM      2  O   UNL     1      54.128 243.320 327.004  0.00  0.00    +0.000 OA
ATOM      3  N   UNL     1      52.113 242.225 326.981  0.00  0.00    +0.000 N 
ATOM      4  N   UNL     1      52.906 243.339 325.059  0.00  0.00    +0.000 N 
ATOM      5  C   UNL     1      51.007 241.853 326.322  0.00  0.00    +0.000 A 
ATOM      6  C   UNL     1      50.807 242.247 324.895  0.00  0.00    +0.000 A 
ATOM      7  C   UNL     1      51.817 243.031 324.242  0.00  0.00    +0.000 A 
ATOM      8  C   UNL     1      53.120 242.983 326.395  0.00  0.00    +0.000 A 
ATOM      9  H   UNL     1      52.239 241.953 327.947  0.00  0.00    +0.000 HD
ATOM     10  H   UNL     1      53.633 243.889 324.630  0.00  0.00    +0.000 HD
ENDROOT
TORSDOF 0
ENDMDL
MODEL 7
REMARK VINA RESULT:      -3.0     26.893     27.071
REMARK  Name = 649_Dihydrouracil.pdb
REMARK  0 active torsions:
REMARK  status: ('A' for Active; 'I' for Inactive)
REMARK                            x       y       z     vdW  Elec       q    Type
REMARK                         _______ _______ _______ _____ _____    ______ ____
ROOT
ATOM      1  O   UNL     1      61.513 220.293 330.602  0.00  0.00    +0.000 OA
ATOM      2  O   UNL     1      64.658 223.668 330.492  0.00  0.00    +0.000 OA
ATOM      3  N   UNL     1      65.238 221.707 331.530  0.00  0.00    +0.000 N 
ATOM      4  N   UNL     1      63.106 221.974 330.558  0.00  0.00    +0.000 N 
ATOM      5  C   UNL     1      64.921 220.463 331.912  0.00  0.00    +0.000 A 
ATOM      6  C   UNL     1      63.574 219.895 331.599  0.00  0.00    +0.000 A 
ATOM      7  C   UNL     1      62.628 220.705 330.884  0.00  0.00    +0.000 A 
ATOM      8  C   UNL     1      64.359 222.530 330.837  0.00  0.00    +0.000 A 
ATOM      9  H   UNL     1      66.153 222.082 331.747  0.00  0.00    +0.000 HD
ATOM     10  H   UNL     1      62.465 222.568 330.056  0.00  0.00    +0.000 HD
ENDROOT
TORSDOF 0
ENDMDL
MODEL 8
REMARK VINA RESULT:      -2.9     26.596     27.138
REMARK  Name = 649_Dihydrouracil.pdb
REMARK  0 active torsions:
REMARK  status: ('A' for Active; 'I' for Inactive)
REMARK                            x       y       z     vdW  Elec       q    Type
REMARK                         _______ _______ _______ _____ _____    ______ ____
ROOT
ATOM      1  O   UNL     1      73.767 225.960 335.923  0.00  0.00    +0.000 OA
ATOM      2  O   UNL     1      73.547 224.111 340.145  0.00  0.00    +0.000 OA
ATOM      3  N   UNL     1      75.442 225.278 339.593  0.00  0.00    +0.000 N 
ATOM      4  N   UNL     1      73.676 225.040 338.047  0.00  0.00    +0.000 N 
ATOM      5  C   UNL     1      76.141 225.991 338.700  0.00  0.00    +0.000 A 
ATOM      6  C   UNL     1      75.578 226.271 337.345  0.00  0.00    +0.000 A 
ATOM      7  C   UNL     1      74.276 225.763 337.015  0.00  0.00    +0.000 A 
ATOM      8  C   UNL     1      74.179 224.764 339.323  0.00  0.00    +0.000 A 
ATOM      9  H   UNL     1      75.833 225.094 340.508  0.00  0.00    +0.000 HD
ATOM     10  H   UNL     1      72.761 224.669 337.847  0.00  0.00    +0.000 HD
ENDROOT
TORSDOF 0
ENDMDL
MODEL 9
REMARK VINA RESULT:      -2.9     13.615     14.738
REMARK  Name = 649_Dihydrouracil.pdb
REMARK  0 active torsions:
REMARK  status: ('A' for Active; 'I' for Inactive)
REMARK                            x       y       z     vdW  Elec       q    Type
REMARK                         _______ _______ _______ _____ _____    ______ ____
ROOT
ATOM      1  O   UNL     1      62.819 241.779 339.755  0.00  0.00    +0.000 OA
ATOM      2  O   UNL     1      65.480 238.676 337.615  0.00  0.00    +0.000 OA
ATOM      3  N   UNL     1      66.436 240.678 338.193  0.00  0.00    +0.000 N 
ATOM      4  N   UNL     1      64.172 240.235 338.682  0.00  0.00    +0.000 N 
ATOM      5  C   UNL     1      66.330 241.893 338.749  0.00  0.00    +0.000 A 
ATOM      6  C   UNL     1      65.033 242.346 339.335  0.00  0.00    +0.000 A 
ATOM      7  C   UNL     1      63.903 241.461 339.292  0.00  0.00    +0.000 A 
ATOM      8  C   UNL     1      65.375 239.785 338.126  0.00  0.00    +0.000 A 
ATOM      9  H   UNL     1      67.320 240.381 337.799  0.00  0.00    +0.000 HD
ATOM     10  H   UNL     1      63.399 239.590 338.635  0.00  0.00    +0.000 HD
ENDROOT
TORSDOF 0
ENDMDL
