MODEL 1
REMARK VINA RESULT:      -7.3      0.000      0.000
REMARK  Name = 6509753_ManzamineA.pdbqt.pdb
REMARK  2 active torsions:
REMARK  status: ('A' for Active; 'I' for Inactive)
REMARK    1  A    between atoms: C_7  and  O_42
REMARK    2  A    between atoms: C_11  and  C_30
REMARK                            x       y       z     vdW  Elec       q    Type
REMARK                         _______ _______ _______ _____ _____    ______ ____
ROOT
ATOM      1  N   UNL     1      66.327 239.858 337.004  0.00  0.00    +0.000 N 
ATOM      2  N   UNL     1      70.405 241.652 339.240  0.00  0.00    +0.000 N 
ATOM      3  C   UNL     1      68.031 240.072 338.865  0.00  0.00    +0.000 C 
ATOM      4  C   UNL     1      66.631 240.495 338.311  0.00  0.00    +0.000 C 
ATOM      5  C   UNL     1      68.136 239.507 340.341  0.00  0.00    +0.000 C 
ATOM      6  C   UNL     1      68.283 239.019 337.886  0.00  0.00    +0.000 C 
ATOM      7  C   UNL     1      65.474 240.692 339.294  0.00  0.00    +0.000 C 
ATOM      8  C   UNL     1      69.088 241.136 338.741  0.00  0.00    +0.000 C 
ATOM      9  C   UNL     1      67.491 238.989 336.723  0.00  0.00    +0.000 C 
ATOM     10  C   UNL     1      69.394 239.809 340.976  0.00  0.00    +0.000 C 
ATOM     11  C   UNL     1      66.919 239.495 341.141  0.00  0.00    +0.000 C 
ATOM     12  C   UNL     1      65.938 240.065 340.514  0.00  0.00    +0.000 C 
ATOM     13  C   UNL     1      70.407 240.838 340.466  0.00  0.00    +0.000 C 
ATOM     14  C   UNL     1      66.083 240.849 335.953  0.00  0.00    +0.000 C 
ATOM     15  C   UNL     1      65.152 242.110 339.426  0.00  0.00    +0.000 C 
ATOM     16  C   UNL     1      67.975 238.794 335.395  0.00  0.00    +0.000 C 
ATOM     17  C   UNL     1      70.222 243.044 339.617  0.00  0.00    +0.000 C 
ATOM     18  C   UNL     1      66.146 241.501 334.559  0.00  0.00    +0.000 C 
ATOM     19  C   UNL     1      64.989 243.618 339.626  0.00  0.00    +0.000 C 
ATOM     20  C   UNL     1      68.145 239.036 334.230  0.00  0.00    +0.000 C 
ATOM     21  C   UNL     1      66.859 241.180 333.247  0.00  0.00    +0.000 C 
ATOM     22  C   UNL     1      69.855 244.493 339.947  0.00  0.00    +0.000 C 
ATOM     23  C   UNL     1      67.802 239.992 333.087  0.00  0.00    +0.000 C 
ATOM     24  C   UNL     1      65.331 245.083 339.882  0.00  0.00    +0.000 C 
ATOM     25  C   UNL     1      68.999 245.736 340.173  0.00  0.00    +0.000 C 
ATOM     26  C   UNL     1      67.607 246.344 340.224  0.00  0.00    +0.000 C 
ATOM     27  C   UNL     1      66.152 245.933 340.074  0.00  0.00    +0.000 C 
ENDROOT
BRANCH  11  30
ATOM     28  N   UNL     1      66.933 240.019 343.509  0.00  0.00    +0.000 NA
ATOM     29  N   UNL     1      66.400 236.638 342.103  0.00  0.00    +0.000 N 
ATOM     30  C   UNL     1      66.805 239.090 342.535  0.00  0.00    +0.000 A 
ATOM     31  C   UNL     1      66.579 237.760 342.880  0.00  0.00    +0.000 A 
ATOM     32  C   UNL     1      66.483 237.354 344.212  0.00  0.00    +0.000 A 
ATOM     33  C   UNL     1      66.839 239.618 344.796  0.00  0.00    +0.000 A 
ATOM     34  C   UNL     1      66.619 238.317 345.225  0.00  0.00    +0.000 A 
ATOM     35  C   UNL     1      66.249 235.944 344.216  0.00  0.00    +0.000 A 
ATOM     36  C   UNL     1      66.203 235.527 342.888  0.00  0.00    +0.000 A 
ATOM     37  C   UNL     1      66.070 234.988 345.233  0.00  0.00    +0.000 A 
ATOM     38  C   UNL     1      65.984 234.197 342.515  0.00  0.00    +0.000 A 
ATOM     39  C   UNL     1      65.851 233.654 344.881  0.00  0.00    +0.000 A 
ATOM     40  C   UNL     1      65.809 233.270 343.545  0.00  0.00    +0.000 A 
ATOM     41  H   UNL     1      66.404 236.629 341.093  0.00  0.00    +0.000 HD
ENDBRANCH  11  30
BRANCH   7  42
ATOM     42  O   UNL     1      64.316 239.993 338.859  0.00  0.00    +0.000 OA
ATOM     43  H   UNL     1      64.376 239.952 337.890  0.00  0.00    +0.000 HD
ENDBRANCH   7  42
TORSDOF 2
ENDMDL
MODEL 2
REMARK VINA RESULT:      -7.2     23.499     27.699
REMARK  Name = 6509753_ManzamineA.pdbqt.pdb
REMARK  2 active torsions:
REMARK  status: ('A' for Active; 'I' for Inactive)
REMARK    1  A    between atoms: C_7  and  O_42
REMARK    2  A    between atoms: C_11  and  C_30
REMARK                            x       y       z     vdW  Elec       q    Type
REMARK                         _______ _______ _______ _____ _____    ______ ____
ROOT
ATOM      1  N   UNL     1      51.734 218.329 332.108  0.00  0.00    +0.000 N 
ATOM      2  N   UNL     1      53.635 213.856 330.999  0.00  0.00    +0.000 N 
ATOM      3  C   UNL     1      53.407 216.434 332.254  0.00  0.00    +0.000 C 
ATOM      4  C   UNL     1      53.043 217.818 331.626  0.00  0.00    +0.000 C 
ATOM      5  C   UNL     1      54.818 216.253 332.952  0.00  0.00    +0.000 C 
ATOM      6  C   UNL     1      52.332 216.414 333.242  0.00  0.00    +0.000 C 
ATOM      7  C   UNL     1      54.158 218.838 331.380  0.00  0.00    +0.000 C 
ATOM      8  C   UNL     1      53.246 215.270 331.314  0.00  0.00    +0.000 C 
ATOM      9  C   UNL     1      51.264 217.316 333.080  0.00  0.00    +0.000 C 
ATOM     10  C   UNL     1      55.331 214.910 332.854  0.00  0.00    +0.000 C 
ATOM     11  C   UNL     1      55.744 217.376 332.891  0.00  0.00    +0.000 C 
ATOM     12  C   UNL     1      55.271 218.336 332.160  0.00  0.00    +0.000 C 
ATOM     13  C   UNL     1      54.789 213.833 331.909  0.00  0.00    +0.000 C 
ATOM     14  C   UNL     1      50.791 218.551 331.010  0.00  0.00    +0.000 C 
ATOM     15  C   UNL     1      54.429 218.965 329.952  0.00  0.00    +0.000 C 
ATOM     16  C   UNL     1      49.880 216.996 333.214  0.00  0.00    +0.000 C 
ATOM     17  C   UNL     1      54.129 213.825 329.633  0.00  0.00    +0.000 C 
ATOM     18  C   UNL     1      49.450 218.548 330.252  0.00  0.00    +0.000 C 
ATOM     19  C   UNL     1      54.755 218.919 328.457  0.00  0.00    +0.000 C 
ATOM     20  C   UNL     1      48.725 216.914 332.895  0.00  0.00    +0.000 C 
ATOM     21  C   UNL     1      48.048 218.015 330.540  0.00  0.00    +0.000 C 
ATOM     22  C   UNL     1      54.603 213.974 328.184  0.00  0.00    +0.000 C 
ATOM     23  C   UNL     1      47.699 217.249 331.811  0.00  0.00    +0.000 C 
ATOM     24  C   UNL     1      55.078 218.373 327.069  0.00  0.00    +0.000 C 
ATOM     25  C   UNL     1      55.012 214.641 326.874  0.00  0.00    +0.000 C 
ATOM     26  C   UNL     1      55.260 215.935 326.116  0.00  0.00    +0.000 C 
ATOM     27  C   UNL     1      55.240 217.437 326.340  0.00  0.00    +0.000 C 
ENDROOT
BRANCH  11  30
ATOM     28  N   UNL     1      58.132 217.111 332.564  0.00  0.00    +0.000 NA
ATOM     29  N   UNL     1      56.536 218.037 335.771  0.00  0.00    +0.000 N 
ATOM     30  C   UNL     1      57.108 217.399 333.398  0.00  0.00    +0.000 A 
ATOM     31  C   UNL     1      57.374 217.700 334.732  0.00  0.00    +0.000 A 
ATOM     32  C   UNL     1      58.675 217.712 335.236  0.00  0.00    +0.000 A 
ATOM     33  C   UNL     1      59.389 217.124 333.059  0.00  0.00    +0.000 A 
ATOM     34  C   UNL     1      59.739 217.409 334.372  0.00  0.00    +0.000 A 
ATOM     35  C   UNL     1      58.597 218.057 336.620  0.00  0.00    +0.000 A 
ATOM     36  C   UNL     1      57.251 218.254 336.925  0.00  0.00    +0.000 A 
ATOM     37  C   UNL     1      59.552 218.223 337.640  0.00  0.00    +0.000 A 
ATOM     38  C   UNL     1      56.803 218.611 338.200  0.00  0.00    +0.000 A 
ATOM     39  C   UNL     1      59.124 218.579 338.922  0.00  0.00    +0.000 A 
ATOM     40  C   UNL     1      57.774 218.769 339.192  0.00  0.00    +0.000 A 
ATOM     41  H   UNL     1      55.532 218.123 335.698  0.00  0.00    +0.000 HD
ENDBRANCH  11  30
BRANCH   7  42
ATOM     42  O   UNL     1      53.803 220.111 331.900  0.00  0.00    +0.000 OA
ATOM     43  H   UNL     1      53.638 220.679 331.129  0.00  0.00    +0.000 HD
ENDBRANCH   7  42
TORSDOF 2
ENDMDL
MODEL 3
REMARK VINA RESULT:      -7.2     18.289     22.278
REMARK  Name = 6509753_ManzamineA.pdbqt.pdb
REMARK  2 active torsions:
REMARK  status: ('A' for Active; 'I' for Inactive)
REMARK    1  A    between atoms: C_7  and  O_42
REMARK    2  A    between atoms: C_11  and  C_30
REMARK                            x       y       z     vdW  Elec       q    Type
REMARK                         _______ _______ _______ _____ _____    ______ ____
ROOT
ATOM      1  N   UNL     1      64.889 217.367 335.124  0.00  0.00    +0.000 N 
ATOM      2  N   UNL     1      69.531 216.539 333.510  0.00  0.00    +0.000 N 
ATOM      3  C   UNL     1      67.412 217.578 335.154  0.00  0.00    +0.000 C 
ATOM      4  C   UNL     1      66.046 218.212 334.733  0.00  0.00    +0.000 C 
ATOM      5  C   UNL     1      68.441 218.449 335.986  0.00  0.00    +0.000 C 
ATOM      6  C   UNL     1      66.850 216.510 335.976  0.00  0.00    +0.000 C 
ATOM      7  C   UNL     1      65.878 219.731 334.814  0.00  0.00    +0.000 C 
ATOM      8  C   UNL     1      68.188 216.977 334.013  0.00  0.00    +0.000 C 
ATOM      9  C   UNL     1      65.482 216.213 335.837  0.00  0.00    +0.000 C 
ATOM     10  C   UNL     1      69.816 218.106 335.723  0.00  0.00    +0.000 C 
ATOM     11  C   UNL     1      68.089 219.839 336.240  0.00  0.00    +0.000 C 
ATOM     12  C   UNL     1      66.992 220.165 335.632  0.00  0.00    +0.000 C 
ATOM     13  C   UNL     1      70.296 217.254 334.544  0.00  0.00    +0.000 C 
ATOM     14  C   UNL     1      64.079 216.973 333.969  0.00  0.00    +0.000 C 
ATOM     15  C   UNL     1      65.846 220.313 333.476  0.00  0.00    +0.000 C 
ATOM     16  C   UNL     1      64.922 214.904 335.735  0.00  0.00    +0.000 C 
ATOM     17  C   UNL     1      69.764 217.196 332.235  0.00  0.00    +0.000 C 
ATOM     18  C   UNL     1      63.235 216.064 333.055  0.00  0.00    +0.000 C 
ATOM     19  C   UNL     1      65.982 220.855 332.051  0.00  0.00    +0.000 C 
ATOM     20  C   UNL     1      64.280 214.007 335.260  0.00  0.00    +0.000 C 
ATOM     21  C   UNL     1      62.845 214.587 333.064  0.00  0.00    +0.000 C 
ATOM     22  C   UNL     1      69.834 217.956 330.907  0.00  0.00    +0.000 C 
ATOM     23  C   UNL     1      63.332 213.609 334.127  0.00  0.00    +0.000 C 
ATOM     24  C   UNL     1      66.523 221.084 330.642  0.00  0.00    +0.000 C 
ATOM     25  C   UNL     1      69.460 218.933 329.796  0.00  0.00    +0.000 C 
ATOM     26  C   UNL     1      68.523 220.028 329.312  0.00  0.00    +0.000 C 
ATOM     27  C   UNL     1      67.322 220.827 329.789  0.00  0.00    +0.000 C 
ENDROOT
BRANCH  11  30
ATOM     28  N   UNL     1      69.313 221.933 336.242  0.00  0.00    +0.000 NA
ATOM     29  N   UNL     1      69.045 219.647 339.140  0.00  0.00    +0.000 N 
ATOM     30  C   UNL     1      68.915 220.830 336.915  0.00  0.00    +0.000 A 
ATOM     31  C   UNL     1      69.313 220.652 338.238  0.00  0.00    +0.000 A 
ATOM     32  C   UNL     1      70.118 221.585 338.893  0.00  0.00    +0.000 A 
ATOM     33  C   UNL     1      70.092 222.832 336.883  0.00  0.00    +0.000 A 
ATOM     34  C   UNL     1      70.534 222.729 338.194  0.00  0.00    +0.000 A 
ATOM     35  C   UNL     1      70.336 221.106 340.222  0.00  0.00    +0.000 A 
ATOM     36  C   UNL     1      69.655 219.897 340.346  0.00  0.00    +0.000 A 
ATOM     37  C   UNL     1      71.051 221.597 341.330  0.00  0.00    +0.000 A 
ATOM     38  C   UNL     1      69.647 219.146 341.525  0.00  0.00    +0.000 A 
ATOM     39  C   UNL     1      71.055 220.860 342.517  0.00  0.00    +0.000 A 
ATOM     40  C   UNL     1      70.364 219.658 342.608  0.00  0.00    +0.000 A 
ATOM     41  H   UNL     1      68.469 218.839 338.949  0.00  0.00    +0.000 HD
ENDBRANCH  11  30
BRANCH   7  42
ATOM     42  O   UNL     1      64.680 220.072 335.497  0.00  0.00    +0.000 OA
ATOM     43  H   UNL     1      64.762 221.013 335.729  0.00  0.00    +0.000 HD
ENDBRANCH   7  42
TORSDOF 2
ENDMDL
MODEL 4
REMARK VINA RESULT:      -7.2     17.745     20.780
REMARK  Name = 6509753_ManzamineA.pdbqt.pdb
REMARK  2 active torsions:
REMARK  status: ('A' for Active; 'I' for Inactive)
REMARK    1  A    between atoms: C_7  and  O_42
REMARK    2  A    between atoms: C_11  and  C_30
REMARK                            x       y       z     vdW  Elec       q    Type
REMARK                         _______ _______ _______ _____ _____    ______ ____
ROOT
ATOM      1  N   UNL     1      72.365 223.467 337.823  0.00  0.00    +0.000 N 
ATOM      2  N   UNL     1      73.467 218.642 337.236  0.00  0.00    +0.000 N 
ATOM      3  C   UNL     1      71.903 221.056 337.206  0.00  0.00    +0.000 C 
ATOM      4  C   UNL     1      71.787 222.180 338.287  0.00  0.00    +0.000 C 
ATOM      5  C   UNL     1      70.604 220.246 336.795  0.00  0.00    +0.000 C 
ATOM      6  C   UNL     1      72.343 221.921 336.116  0.00  0.00    +0.000 C 
ATOM      7  C   UNL     1      70.536 222.236 339.167  0.00  0.00    +0.000 C 
ATOM      8  C   UNL     1      72.968 220.032 337.496  0.00  0.00    +0.000 C 
ATOM      9  C   UNL     1      72.812 223.208 336.437  0.00  0.00    +0.000 C 
ATOM     10  C   UNL     1      70.884 218.889 336.401  0.00  0.00    +0.000 C 
ATOM     11  C   UNL     1      69.376 220.539 337.520  0.00  0.00    +0.000 C 
ATOM     12  C   UNL     1      69.588 221.378 338.485  0.00  0.00    +0.000 C 
ATOM     13  C   UNL     1      72.206 218.157 336.656  0.00  0.00    +0.000 C 
ATOM     14  C   UNL     1      73.444 223.933 338.698  0.00  0.00    +0.000 C 
ATOM     15  C   UNL     1      70.852 221.825 340.531  0.00  0.00    +0.000 C 
ATOM     16  C   UNL     1      73.986 223.821 335.904  0.00  0.00    +0.000 C 
ATOM     17  C   UNL     1      73.658 217.992 338.522  0.00  0.00    +0.000 C 
ATOM     18  C   UNL     1      74.801 224.545 339.095  0.00  0.00    +0.000 C 
ATOM     19  C   UNL     1      71.234 221.232 341.889  0.00  0.00    +0.000 C 
ATOM     20  C   UNL     1      75.055 224.369 335.919  0.00  0.00    +0.000 C 
ATOM     21  C   UNL     1      76.026 225.043 338.331  0.00  0.00    +0.000 C 
ATOM     22  C   UNL     1      73.814 217.471 339.953  0.00  0.00    +0.000 C 
ATOM     23  C   UNL     1      76.140 224.973 336.813  0.00  0.00    +0.000 C 
ATOM     24  C   UNL     1      71.813 220.284 342.936  0.00  0.00    +0.000 C 
ATOM     25  C   UNL     1      73.718 217.420 341.475  0.00  0.00    +0.000 C 
ATOM     26  C   UNL     1      73.221 218.078 342.752  0.00  0.00    +0.000 C 
ATOM     27  C   UNL     1      72.431 219.294 343.203  0.00  0.00    +0.000 C 
ENDROOT
BRANCH  11  30
ATOM     28  N   UNL     1      67.569 219.178 338.394  0.00  0.00    +0.000 NA
ATOM     29  N   UNL     1      67.708 220.540 334.956  0.00  0.00    +0.000 N 
ATOM     30  C   UNL     1      68.095 219.867 337.357  0.00  0.00    +0.000 A 
ATOM     31  C   UNL     1      67.410 219.912 336.144  0.00  0.00    +0.000 A 
ATOM     32  C   UNL     1      66.189 219.260 335.967  0.00  0.00    +0.000 A 
ATOM     33  C   UNL     1      66.386 218.550 338.215  0.00  0.00    +0.000 A 
ATOM     34  C   UNL     1      65.643 218.541 337.042  0.00  0.00    +0.000 A 
ATOM     35  C   UNL     1      65.761 219.506 334.627  0.00  0.00    +0.000 A 
ATOM     36  C   UNL     1      66.727 220.307 334.021  0.00  0.00    +0.000 A 
ATOM     37  C   UNL     1      64.634 219.122 333.876  0.00  0.00    +0.000 A 
ATOM     38  C   UNL     1      66.630 220.748 332.698  0.00  0.00    +0.000 A 
ATOM     39  C   UNL     1      64.520 219.552 332.552  0.00  0.00    +0.000 A 
ATOM     40  C   UNL     1      65.502 220.351 331.978  0.00  0.00    +0.000 A 
ATOM     41  H   UNL     1      68.530 221.105 334.791  0.00  0.00    +0.000 HD
ENDBRANCH  11  30
BRANCH   7  42
ATOM     42  O   UNL     1      69.993 223.548 339.191  0.00  0.00    +0.000 OA
ATOM     43  H   UNL     1      70.577 224.091 338.635  0.00  0.00    +0.000 HD
ENDBRANCH   7  42
TORSDOF 2
ENDMDL
MODEL 5
REMARK VINA RESULT:      -7.0     19.653     22.848
REMARK  Name = 6509753_ManzamineA.pdbqt.pdb
REMARK  2 active torsions:
REMARK  status: ('A' for Active; 'I' for Inactive)
REMARK    1  A    between atoms: C_7  and  O_42
REMARK    2  A    between atoms: C_11  and  C_30
REMARK                            x       y       z     vdW  Elec       q    Type
REMARK                         _______ _______ _______ _____ _____    ______ ____
ROOT
ATOM      1  N   UNL     1      71.503 218.777 340.296  0.00  0.00    +0.000 N 
ATOM      2  N   UNL     1      68.311 221.002 337.181  0.00  0.00    +0.000 N 
ATOM      3  C   UNL     1      69.229 219.309 339.316  0.00  0.00    +0.000 C 
ATOM      4  C   UNL     1      70.445 218.327 339.355  0.00  0.00    +0.000 C 
ATOM      5  C   UNL     1      67.769 218.734 339.531  0.00  0.00    +0.000 C 
ATOM      6  C   UNL     1      69.640 220.123 340.456  0.00  0.00    +0.000 C 
ATOM      7  C   UNL     1      70.187 216.822 339.241  0.00  0.00    +0.000 C 
ATOM      8  C   UNL     1      69.171 220.167 338.081  0.00  0.00    +0.000 C 
ATOM      9  C   UNL     1      70.969 220.015 340.906  0.00  0.00    +0.000 C 
ATOM     10  C   UNL     1      66.758 219.475 338.820  0.00  0.00    +0.000 C 
ATOM     11  C   UNL     1      67.631 217.290 339.666  0.00  0.00    +0.000 C 
ATOM     12  C   UNL     1      68.765 216.690 339.482  0.00  0.00    +0.000 C 
ATOM     13  C   UNL     1      67.036 220.489 337.706  0.00  0.00    +0.000 C 
ATOM     14  C   UNL     1      72.789 218.977 339.624  0.00  0.00    +0.000 C 
ATOM     15  C   UNL     1      70.630 216.326 337.941  0.00  0.00    +0.000 C 
ATOM     16  C   UNL     1      71.822 221.108 341.246  0.00  0.00    +0.000 C 
ATOM     17  C   UNL     1      68.477 220.508 335.824  0.00  0.00    +0.000 C 
ATOM     18  C   UNL     1      74.131 219.646 339.270  0.00  0.00    +0.000 C 
ATOM     19  C   UNL     1      70.971 215.922 336.505  0.00  0.00    +0.000 C 
ATOM     20  C   UNL     1      72.801 221.803 341.211  0.00  0.00    +0.000 C 
ATOM     21  C   UNL     1      74.830 220.943 339.674  0.00  0.00    +0.000 C 
ATOM     22  C   UNL     1      68.782 219.871 334.466  0.00  0.00    +0.000 C 
ATOM     23  C   UNL     1      74.200 221.965 340.613  0.00  0.00    +0.000 C 
ATOM     24  C   UNL     1      71.027 215.932 334.980  0.00  0.00    +0.000 C 
ATOM     25  C   UNL     1      69.333 218.886 333.439  0.00  0.00    +0.000 C 
ATOM     26  C   UNL     1      70.087 217.592 333.178  0.00  0.00    +0.000 C 
ATOM     27  C   UNL     1      70.745 216.455 333.940  0.00  0.00    +0.000 C 
ENDROOT
BRANCH  11  30
ATOM     28  N   UNL     1      65.742 216.130 338.683  0.00  0.00    +0.000 NA
ATOM     29  N   UNL     1      66.282 216.574 342.317  0.00  0.00    +0.000 N 
ATOM     30  C   UNL     1      66.384 216.550 339.796  0.00  0.00    +0.000 A 
ATOM     31  C   UNL     1      65.837 216.279 341.048  0.00  0.00    +0.000 A 
ATOM     32  C   UNL     1      64.635 215.584 341.188  0.00  0.00    +0.000 A 
ATOM     33  C   UNL     1      64.579 215.457 338.827  0.00  0.00    +0.000 A 
ATOM     34  C   UNL     1      63.966 215.150 340.033  0.00  0.00    +0.000 A 
ATOM     35  C   UNL     1      64.362 215.475 342.587  0.00  0.00    +0.000 A 
ATOM     36  C   UNL     1      65.406 216.101 343.264  0.00  0.00    +0.000 A 
ATOM     37  C   UNL     1      63.320 214.897 343.335  0.00  0.00    +0.000 A 
ATOM     38  C   UNL     1      65.468 216.182 344.659  0.00  0.00    +0.000 A 
ATOM     39  C   UNL     1      63.364 214.967 344.730  0.00  0.00    +0.000 A 
ATOM     40  C   UNL     1      64.421 215.599 345.375  0.00  0.00    +0.000 A 
ATOM     41  H   UNL     1      67.142 217.062 342.528  0.00  0.00    +0.000 HD
ENDBRANCH  11  30
BRANCH   7  42
ATOM     42  O   UNL     1      70.869 216.113 340.265  0.00  0.00    +0.000 OA
ATOM     43  H   UNL     1      71.700 215.801 339.868  0.00  0.00    +0.000 HD
ENDBRANCH   7  42
TORSDOF 2
ENDMDL
MODEL 6
REMARK VINA RESULT:      -6.9     17.558     20.582
REMARK  Name = 6509753_ManzamineA.pdbqt.pdb
REMARK  2 active torsions:
REMARK  status: ('A' for Active; 'I' for Inactive)
REMARK    1  A    between atoms: C_7  and  O_42
REMARK    2  A    between atoms: C_11  and  C_30
REMARK                            x       y       z     vdW  Elec       q    Type
REMARK                         _______ _______ _______ _____ _____    ______ ____
ROOT
ATOM      1  N   UNL     1      72.725 223.843 336.613  0.00  0.00    +0.000 N 
ATOM      2  N   UNL     1      73.598 218.936 336.693  0.00  0.00    +0.000 N 
ATOM      3  C   UNL     1      72.226 221.404 336.148  0.00  0.00    +0.000 C 
ATOM      4  C   UNL     1      71.991 222.638 337.079  0.00  0.00    +0.000 C 
ATOM      5  C   UNL     1      70.973 220.619 335.580  0.00  0.00    +0.000 C 
ATOM      6  C   UNL     1      72.911 222.130 335.083  0.00  0.00    +0.000 C 
ATOM      7  C   UNL     1      70.608 222.844 337.702  0.00  0.00    +0.000 C 
ATOM      8  C   UNL     1      73.152 220.367 336.725  0.00  0.00    +0.000 C 
ATOM      9  C   UNL     1      73.398 223.421 335.364  0.00  0.00    +0.000 C 
ATOM     10  C   UNL     1      71.230 219.216 335.373  0.00  0.00    +0.000 C 
ATOM     11  C   UNL     1      69.656 221.043 336.033  0.00  0.00    +0.000 C 
ATOM     12  C   UNL     1      69.744 221.966 336.939  0.00  0.00    +0.000 C 
ATOM     13  C   UNL     1      72.434 218.453 335.936  0.00  0.00    +0.000 C 
ATOM     14  C   UNL     1      73.657 224.345 337.626  0.00  0.00    +0.000 C 
ATOM     15  C   UNL     1      70.645 222.563 339.133  0.00  0.00    +0.000 C 
ATOM     16  C   UNL     1      74.686 223.919 335.004  0.00  0.00    +0.000 C 
ATOM     17  C   UNL     1      73.512 218.414 338.047  0.00  0.00    +0.000 C 
ATOM     18  C   UNL     1      74.957 224.930 338.210  0.00  0.00    +0.000 C 
ATOM     19  C   UNL     1      70.736 222.096 340.588  0.00  0.00    +0.000 C 
ATOM     20  C   UNL     1      75.768 224.415 335.167  0.00  0.00    +0.000 C 
ATOM     21  C   UNL     1      76.330 225.289 337.644  0.00  0.00    +0.000 C 
ATOM     22  C   UNL     1      73.372 218.038 339.525  0.00  0.00    +0.000 C 
ATOM     23  C   UNL     1      76.711 225.056 336.187  0.00  0.00    +0.000 C 
ATOM     24  C   UNL     1      71.054 221.236 341.808  0.00  0.00    +0.000 C 
ATOM     25  C   UNL     1      73.000 218.149 341.000  0.00  0.00    +0.000 C 
ATOM     26  C   UNL     1      72.325 218.959 342.096  0.00  0.00    +0.000 C 
ATOM     27  C   UNL     1      71.547 220.251 342.277  0.00  0.00    +0.000 C 
ENDROOT
BRANCH  11  30
ATOM     28  N   UNL     1      67.688 220.861 334.627  0.00  0.00    +0.000 NA
ATOM     29  N   UNL     1      68.367 218.742 337.584  0.00  0.00    +0.000 N 
ATOM     30  C   UNL     1      68.384 220.418 335.698  0.00  0.00    +0.000 A 
ATOM     31  C   UNL     1      67.868 219.381 336.471  0.00  0.00    +0.000 A 
ATOM     32  C   UNL     1      66.643 218.782 336.172  0.00  0.00    +0.000 A 
ATOM     33  C   UNL     1      66.503 220.277 334.343  0.00  0.00    +0.000 A 
ATOM     34  C   UNL     1      65.918 219.244 335.062  0.00  0.00    +0.000 A 
ATOM     35  C   UNL     1      66.412 217.764 337.147  0.00  0.00    +0.000 A 
ATOM     36  C   UNL     1      67.504 217.763 338.014  0.00  0.00    +0.000 A 
ATOM     37  C   UNL     1      65.373 216.842 337.368  0.00  0.00    +0.000 A 
ATOM     38  C   UNL     1      67.616 216.884 339.095  0.00  0.00    +0.000 A 
ATOM     39  C   UNL     1      65.466 215.956 338.444  0.00  0.00    +0.000 A 
ATOM     40  C   UNL     1      66.569 215.980 339.289  0.00  0.00    +0.000 A 
ATOM     41  H   UNL     1      69.253 218.954 338.022  0.00  0.00    +0.000 HD
ENDBRANCH  11  30
BRANCH   7  42
ATOM     42  O   UNL     1      70.156 224.176 337.503  0.00  0.00    +0.000 OA
ATOM     43  H   UNL     1      69.667 224.417 338.307  0.00  0.00    +0.000 HD
ENDBRANCH   7  42
TORSDOF 2
ENDMDL
MODEL 7
REMARK VINA RESULT:      -6.8      6.023      9.409
REMARK  Name = 6509753_ManzamineA.pdbqt.pdb
REMARK  2 active torsions:
REMARK  status: ('A' for Active; 'I' for Inactive)
REMARK    1  A    between atoms: C_7  and  O_42
REMARK    2  A    between atoms: C_11  and  C_30
REMARK                            x       y       z     vdW  Elec       q    Type
REMARK                         _______ _______ _______ _____ _____    ______ ____
ROOT
ATOM      1  N   UNL     1      65.712 240.825 346.845  0.00  0.00    +0.000 N 
ATOM      2  N   UNL     1      69.935 238.205 347.227  0.00  0.00    +0.000 N 
ATOM      3  C   UNL     1      67.410 239.075 346.161  0.00  0.00    +0.000 C 
ATOM      4  C   UNL     1      66.069 239.384 346.904  0.00  0.00    +0.000 C 
ATOM      5  C   UNL     1      67.438 237.926 345.071  0.00  0.00    +0.000 C 
ATOM      6  C   UNL     1      67.558 240.387 345.537  0.00  0.00    +0.000 C 
ATOM      7  C   UNL     1      64.930 238.365 346.833  0.00  0.00    +0.000 C 
ATOM      8  C   UNL     1      68.576 238.821 347.077  0.00  0.00    +0.000 C 
ATOM      9  C   UNL     1      66.779 241.450 346.032  0.00  0.00    +0.000 C 
ATOM     10  C   UNL     1      68.715 237.264 344.979  0.00  0.00    +0.000 C 
ATOM     11  C   UNL     1      66.219 237.152 344.883  0.00  0.00    +0.000 C 
ATOM     12  C   UNL     1      65.311 237.487 345.746  0.00  0.00    +0.000 C 
ATOM     13  C   UNL     1      69.838 237.379 346.014  0.00  0.00    +0.000 C 
ATOM     14  C   UNL     1      65.587 241.416 348.180  0.00  0.00    +0.000 C 
ATOM     15  C   UNL     1      64.761 237.697 348.120  0.00  0.00    +0.000 C 
ATOM     16  C   UNL     1      67.252 242.768 346.306  0.00  0.00    +0.000 C 
ATOM     17  C   UNL     1      69.899 237.326 348.383  0.00  0.00    +0.000 C 
ATOM     18  C   UNL     1      65.734 242.462 349.301  0.00  0.00    +0.000 C 
ATOM     19  C   UNL     1      64.758 236.937 349.448  0.00  0.00    +0.000 C 
ATOM     20  C   UNL     1      67.460 243.759 346.952  0.00  0.00    +0.000 C 
ATOM     21  C   UNL     1      66.421 243.820 349.429  0.00  0.00    +0.000 C 
ATOM     22  C   UNL     1      69.686 236.461 349.629  0.00  0.00    +0.000 C 
ATOM     23  C   UNL     1      67.233 244.446 348.300  0.00  0.00    +0.000 C 
ATOM     24  C   UNL     1      65.253 236.157 350.664  0.00  0.00    +0.000 C 
ATOM     25  C   UNL     1      68.967 235.756 350.775  0.00  0.00    +0.000 C 
ATOM     26  C   UNL     1      67.648 235.435 351.458  0.00  0.00    +0.000 C 
ATOM     27  C   UNL     1      66.159 235.685 351.288  0.00  0.00    +0.000 C 
ENDROOT
BRANCH  11  30
ATOM     28  N   UNL     1      65.895 236.219 342.668  0.00  0.00    +0.000 NA
ATOM     29  N   UNL     1      66.167 234.226 345.773  0.00  0.00    +0.000 N 
ATOM     30  C   UNL     1      66.048 236.011 343.995  0.00  0.00    +0.000 A 
ATOM     31  C   UNL     1      66.025 234.711 344.493  0.00  0.00    +0.000 A 
ATOM     32  C   UNL     1      65.846 233.608 343.656  0.00  0.00    +0.000 A 
ATOM     33  C   UNL     1      65.723 235.147 341.864  0.00  0.00    +0.000 A 
ATOM     34  C   UNL     1      65.685 233.823 342.279  0.00  0.00    +0.000 A 
ATOM     35  C   UNL     1      65.875 232.438 344.476  0.00  0.00    +0.000 A 
ATOM     36  C   UNL     1      66.077 232.855 345.790  0.00  0.00    +0.000 A 
ATOM     37  C   UNL     1      65.752 231.061 344.215  0.00  0.00    +0.000 A 
ATOM     38  C   UNL     1      66.163 231.966 346.866  0.00  0.00    +0.000 A 
ATOM     39  C   UNL     1      65.834 230.156 345.277  0.00  0.00    +0.000 A 
ATOM     40  C   UNL     1      66.037 230.606 346.577  0.00  0.00    +0.000 A 
ATOM     41  H   UNL     1      66.326 234.797 346.592  0.00  0.00    +0.000 HD
ENDBRANCH  11  30
BRANCH   7  42
ATOM     42  O   UNL     1      63.709 238.995 346.474  0.00  0.00    +0.000 OA
ATOM     43  H   UNL     1      63.356 238.488 345.723  0.00  0.00    +0.000 HD
ENDBRANCH   7  42
TORSDOF 2
ENDMDL
MODEL 8
REMARK VINA RESULT:      -6.8     22.442     26.069
REMARK  Name = 6509753_ManzamineA.pdbqt.pdb
REMARK  2 active torsions:
REMARK  status: ('A' for Active; 'I' for Inactive)
REMARK    1  A    between atoms: C_7  and  O_42
REMARK    2  A    between atoms: C_11  and  C_30
REMARK                            x       y       z     vdW  Elec       q    Type
REMARK                         _______ _______ _______ _____ _____    ______ ____
ROOT
ATOM      1  N   UNL     1      45.396 240.475 327.083  0.00  0.00    +0.000 N 
ATOM      2  N   UNL     1      46.224 241.123 322.211  0.00  0.00    +0.000 N 
ATOM      3  C   UNL     1      45.906 239.742 324.714  0.00  0.00    +0.000 C 
ATOM      4  C   UNL     1      46.470 240.101 326.127  0.00  0.00    +0.000 C 
ATOM      5  C   UNL     1      46.324 238.368 324.045  0.00  0.00    +0.000 C 
ATOM      6  C   UNL     1      44.497 239.726 325.098  0.00  0.00    +0.000 C 
ATOM      7  C   UNL     1      47.665 239.314 326.670  0.00  0.00    +0.000 C 
ATOM      8  C   UNL     1      46.130 240.806 323.674  0.00  0.00    +0.000 C 
ATOM      9  C   UNL     1      44.136 240.317 326.323  0.00  0.00    +0.000 C 
ATOM     10  C   UNL     1      46.372 238.430 322.606  0.00  0.00    +0.000 C 
ATOM     11  C   UNL     1      47.292 237.545 324.755  0.00  0.00    +0.000 C 
ATOM     12  C   UNL     1      47.740 238.150 325.811  0.00  0.00    +0.000 C 
ATOM     13  C   UNL     1      46.366 239.723 321.784  0.00  0.00    +0.000 C 
ATOM     14  C   UNL     1      45.580 241.827 327.616  0.00  0.00    +0.000 C 
ATOM     15  C   UNL     1      48.866 240.144 326.671  0.00  0.00    +0.000 C 
ATOM     16  C   UNL     1      43.026 241.190 326.527  0.00  0.00    +0.000 C 
ATOM     17  C   UNL     1      47.489 241.800 321.983  0.00  0.00    +0.000 C 
ATOM     18  C   UNL     1      45.200 243.243 328.087  0.00  0.00    +0.000 C 
ATOM     19  C   UNL     1      50.102 241.027 326.488  0.00  0.00    +0.000 C 
ATOM     20  C   UNL     1      42.448 242.188 326.865  0.00  0.00    +0.000 C 
ATOM     21  C   UNL     1      43.914 244.068 328.103  0.00  0.00    +0.000 C 
ATOM     22  C   UNL     1      48.846 242.508 321.930  0.00  0.00    +0.000 C 
ATOM     23  C   UNL     1      42.596 243.556 327.532  0.00  0.00    +0.000 C 
ATOM     24  C   UNL     1      51.127 241.955 325.843  0.00  0.00    +0.000 C 
ATOM     25  C   UNL     1      50.204 243.034 322.385  0.00  0.00    +0.000 C 
ATOM     26  C   UNL     1      51.245 243.113 323.491  0.00  0.00    +0.000 C 
ATOM     27  C   UNL     1      51.485 242.603 324.901  0.00  0.00    +0.000 C 
ENDROOT
BRANCH  11  30
ATOM     28  N   UNL     1      49.170 236.247 323.935  0.00  0.00    +0.000 NA
ATOM     29  N   UNL     1      45.768 234.905 324.497  0.00  0.00    +0.000 N 
ATOM     30  C   UNL     1      47.867 236.290 324.290  0.00  0.00    +0.000 A 
ATOM     31  C   UNL     1      47.091 235.138 324.194  0.00  0.00    +0.000 A 
ATOM     32  C   UNL     1      47.623 233.932 323.736  0.00  0.00    +0.000 A 
ATOM     33  C   UNL     1      49.679 235.076 323.492  0.00  0.00    +0.000 A 
ATOM     34  C   UNL     1      48.975 233.887 323.363  0.00  0.00    +0.000 A 
ATOM     35  C   UNL     1      46.574 232.961 323.763  0.00  0.00    +0.000 A 
ATOM     36  C   UNL     1      45.431 233.598 324.242  0.00  0.00    +0.000 A 
ATOM     37  C   UNL     1      46.498 231.598 323.425  0.00  0.00    +0.000 A 
ATOM     38  C   UNL     1      44.207 232.942 324.405  0.00  0.00    +0.000 A 
ATOM     39  C   UNL     1      45.283 230.925 323.579  0.00  0.00    +0.000 A 
ATOM     40  C   UNL     1      44.161 231.589 324.062  0.00  0.00    +0.000 A 
ATOM     41  H   UNL     1      45.131 235.597 324.868  0.00  0.00    +0.000 HD
ENDBRANCH  11  30
BRANCH   7  42
ATOM     42  O   UNL     1      47.414 238.861 327.993  0.00  0.00    +0.000 OA
ATOM     43  H   UNL     1      47.680 237.926 328.012  0.00  0.00    +0.000 HD
ENDBRANCH   7  42
TORSDOF 2
ENDMDL
MODEL 9
REMARK VINA RESULT:      -6.8     17.054     18.936
REMARK  Name = 6509753_ManzamineA.pdbqt.pdb
REMARK  2 active torsions:
REMARK  status: ('A' for Active; 'I' for Inactive)
REMARK    1  A    between atoms: C_7  and  O_42
REMARK    2  A    between atoms: C_11  and  C_30
REMARK                            x       y       z     vdW  Elec       q    Type
REMARK                         _______ _______ _______ _____ _____    ______ ____
ROOT
ATOM      1  N   UNL     1      75.942 225.411 334.310  0.00  0.00    +0.000 N 
ATOM      2  N   UNL     1      77.140 221.110 336.528  0.00  0.00    +0.000 N 
ATOM      3  C   UNL     1      75.484 223.238 335.527  0.00  0.00    +0.000 C 
ATOM      4  C   UNL     1      75.680 224.786 335.632  0.00  0.00    +0.000 C 
ATOM      5  C   UNL     1      74.195 222.580 336.172  0.00  0.00    +0.000 C 
ATOM      6  C   UNL     1      75.423 223.179 334.069  0.00  0.00    +0.000 C 
ATOM      7  C   UNL     1      74.836 225.574 336.638  0.00  0.00    +0.000 C 
ATOM      8  C   UNL     1      76.660 222.435 336.014  0.00  0.00    +0.000 C 
ATOM      9  C   UNL     1      75.872 224.296 333.340  0.00  0.00    +0.000 C 
ATOM     10  C   UNL     1      74.420 221.237 336.644  0.00  0.00    +0.000 C 
ATOM     11  C   UNL     1      73.297 223.455 336.913  0.00  0.00    +0.000 C 
ATOM     12  C   UNL     1      73.778 224.655 337.005  0.00  0.00    +0.000 C 
ATOM     13  C   UNL     1      75.798 220.597 336.839  0.00  0.00    +0.000 C 
ATOM     14  C   UNL     1      77.225 226.118 334.280  0.00  0.00    +0.000 C 
ATOM     15  C   UNL     1      75.662 226.024 337.754  0.00  0.00    +0.000 C 
ATOM     16  C   UNL     1      76.716 224.252 332.190  0.00  0.00    +0.000 C 
ATOM     17  C   UNL     1      77.840 221.348 337.780  0.00  0.00    +0.000 C 
ATOM     18  C   UNL     1      78.579 226.604 333.729  0.00  0.00    +0.000 C 
ATOM     19  C   UNL     1      76.560 226.317 338.958  0.00  0.00    +0.000 C 
ATOM     20  C   UNL     1      77.669 224.506 331.503  0.00  0.00    +0.000 C 
ATOM     21  C   UNL     1      79.396 226.322 332.470  0.00  0.00    +0.000 C 
ATOM     22  C   UNL     1      78.549 221.780 339.066  0.00  0.00    +0.000 C 
ATOM     23  C   UNL     1      78.952 225.331 331.400  0.00  0.00    +0.000 C 
ATOM     24  C   UNL     1      77.556 226.112 340.097  0.00  0.00    +0.000 C 
ATOM     25  C   UNL     1      79.020 222.676 340.208  0.00  0.00    +0.000 C 
ATOM     26  C   UNL     1      78.973 224.043 340.869  0.00  0.00    +0.000 C 
ATOM     27  C   UNL     1      78.307 225.398 340.696  0.00  0.00    +0.000 C 
ENDROOT
BRANCH  11  30
ATOM     28  N   UNL     1      70.887 223.239 337.084  0.00  0.00    +0.000 NA
ATOM     29  N   UNL     1      73.287 222.176 339.691  0.00  0.00    +0.000 N 
ATOM     30  C   UNL     1      72.103 223.051 337.642  0.00  0.00    +0.000 A 
ATOM     31  C   UNL     1      72.195 222.485 338.912  0.00  0.00    +0.000 A 
ATOM     32  C   UNL     1      71.060 222.106 339.630  0.00  0.00    +0.000 A 
ATOM     33  C   UNL     1      69.792 222.870 337.785  0.00  0.00    +0.000 A 
ATOM     34  C   UNL     1      69.796 222.305 339.052  0.00  0.00    +0.000 A 
ATOM     35  C   UNL     1      71.501 221.565 340.877  0.00  0.00    +0.000 A 
ATOM     36  C   UNL     1      72.893 221.621 340.886  0.00  0.00    +0.000 A 
ATOM     37  C   UNL     1      70.838 221.029 341.997  0.00  0.00    +0.000 A 
ATOM     38  C   UNL     1      73.666 221.168 341.959  0.00  0.00    +0.000 A 
ATOM     39  C   UNL     1      71.593 220.572 343.079  0.00  0.00    +0.000 A 
ATOM     40  C   UNL     1      72.982 220.641 343.056  0.00  0.00    +0.000 A 
ATOM     41  H   UNL     1      74.249 222.325 339.422  0.00  0.00    +0.000 HD
ENDBRANCH  11  30
BRANCH   7  42
ATOM     42  O   UNL     1      74.236 226.703 336.020  0.00  0.00    +0.000 OA
ATOM     43  H   UNL     1      74.551 227.478 336.515  0.00  0.00    +0.000 HD
ENDBRANCH   7  42
TORSDOF 2
ENDMDL
