MODEL 1
REMARK VINA RESULT:      -3.8      0.000      0.000
REMARK  Name = 67499_Pyrazolo.pdbqt.pdb
REMARK  0 active torsions:
REMARK  status: ('A' for Active; 'I' for Inactive)
REMARK                            x       y       z     vdW  Elec       q    Type
REMARK                         _______ _______ _______ _____ _____    ______ ____
ROOT
ATOM      1  N   UNL     1      55.693 242.498 346.687  0.00  0.00    +0.000 N 
ATOM      2  N   UNL     1      54.738 242.974 345.859  0.00  0.00    +0.000 NA
ATOM      3  N   UNL     1      56.047 240.682 348.251  0.00  0.00    +0.000 NA
ATOM      4  N   UNL     1      54.107 239.242 348.411  0.00  0.00    +0.000 NA
ATOM      5  C   UNL     1      54.030 241.097 346.952  0.00  0.00    +0.000 A 
ATOM      6  C   UNL     1      55.317 241.375 347.365  0.00  0.00    +0.000 A 
ATOM      7  C   UNL     1      53.727 242.111 346.027  0.00  0.00    +0.000 A 
ATOM      8  C   UNL     1      53.418 239.982 347.508  0.00  0.00    +0.000 A 
ATOM      9  C   UNL     1      55.361 239.625 348.727  0.00  0.00    +0.000 A 
ATOM     10  H   UNL     1      56.581 242.982 346.749  0.00  0.00    +0.000 HD
ENDROOT
TORSDOF 0
ENDMDL
MODEL 2
REMARK VINA RESULT:      -3.6      1.300      3.401
REMARK  Name = 67499_Pyrazolo.pdbqt.pdb
REMARK  0 active torsions:
REMARK  status: ('A' for Active; 'I' for Inactive)
REMARK                            x       y       z     vdW  Elec       q    Type
REMARK                         _______ _______ _______ _____ _____    ______ ____
ROOT
ATOM      1  N   UNL     1      53.543 238.599 349.376  0.00  0.00    +0.000 N 
ATOM      2  N   UNL     1      52.287 238.252 349.018  0.00  0.00    +0.000 NA
ATOM      3  N   UNL     1      55.272 240.178 348.758  0.00  0.00    +0.000 NA
ATOM      4  N   UNL     1      54.578 241.602 346.927  0.00  0.00    +0.000 NA
ATOM      5  C   UNL     1      53.076 239.967 347.731  0.00  0.00    +0.000 A 
ATOM      6  C   UNL     1      54.059 239.622 348.635  0.00  0.00    +0.000 A 
ATOM      7  C   UNL     1      52.011 239.093 348.012  0.00  0.00    +0.000 A 
ATOM      8  C   UNL     1      53.365 241.000 346.850  0.00  0.00    +0.000 A 
ATOM      9  C   UNL     1      55.449 241.166 347.860  0.00  0.00    +0.000 A 
ATOM     10  H   UNL     1      53.996 238.103 350.134  0.00  0.00    +0.000 HD
ENDROOT
TORSDOF 0
ENDMDL
MODEL 3
REMARK VINA RESULT:      -3.6     25.811     26.886
REMARK  Name = 67499_Pyrazolo.pdbqt.pdb
REMARK  0 active torsions:
REMARK  status: ('A' for Active; 'I' for Inactive)
REMARK                            x       y       z     vdW  Elec       q    Type
REMARK                         _______ _______ _______ _____ _____    ______ ____
ROOT
ATOM      1  N   UNL     1      63.469 241.635 323.860  0.00  0.00    +0.000 N 
ATOM      2  N   UNL     1      62.292 242.270 323.674  0.00  0.00    +0.000 NA
ATOM      3  N   UNL     1      65.167 240.475 322.580  0.00  0.00    +0.000 NA
ATOM      4  N   UNL     1      64.627 240.411 320.220  0.00  0.00    +0.000 NA
ATOM      5  C   UNL     1      63.135 241.485 321.701  0.00  0.00    +0.000 A 
ATOM      6  C   UNL     1      64.014 241.146 322.708  0.00  0.00    +0.000 A 
ATOM      7  C   UNL     1      62.096 242.174 322.352  0.00  0.00    +0.000 A 
ATOM      8  C   UNL     1      63.471 241.093 320.413  0.00  0.00    +0.000 A 
ATOM      9  C   UNL     1      65.398 240.143 321.295  0.00  0.00    +0.000 A 
ATOM     10  H   UNL     1      63.852 241.565 324.796  0.00  0.00    +0.000 HD
ENDROOT
TORSDOF 0
ENDMDL
MODEL 4
REMARK VINA RESULT:      -3.4     27.802     28.773
REMARK  Name = 67499_Pyrazolo.pdbqt.pdb
REMARK  0 active torsions:
REMARK  status: ('A' for Active; 'I' for Inactive)
REMARK                            x       y       z     vdW  Elec       q    Type
REMARK                         _______ _______ _______ _____ _____    ______ ____
ROOT
ATOM      1  N   UNL     1      56.828 238.231 320.153  0.00  0.00    +0.000 N 
ATOM      2  N   UNL     1      55.881 237.793 319.294  0.00  0.00    +0.000 NA
ATOM      3  N   UNL     1      59.231 238.508 320.272  0.00  0.00    +0.000 NA
ATOM      4  N   UNL     1      60.321 237.785 318.234  0.00  0.00    +0.000 NA
ATOM      5  C   UNL     1      57.971 237.623 318.386  0.00  0.00    +0.000 A 
ATOM      6  C   UNL     1      58.096 238.150 319.655  0.00  0.00    +0.000 A 
ATOM      7  C   UNL     1      56.589 237.423 318.218  0.00  0.00    +0.000 A 
ATOM      8  C   UNL     1      59.141 237.441 317.663  0.00  0.00    +0.000 A 
ATOM      9  C   UNL     1      60.302 238.290 319.485  0.00  0.00    +0.000 A 
ATOM     10  H   UNL     1      56.548 238.574 321.064  0.00  0.00    +0.000 HD
ENDROOT
TORSDOF 0
ENDMDL
MODEL 5
REMARK VINA RESULT:      -3.4      1.107      2.823
REMARK  Name = 67499_Pyrazolo.pdbqt.pdb
REMARK  0 active torsions:
REMARK  status: ('A' for Active; 'I' for Inactive)
REMARK                            x       y       z     vdW  Elec       q    Type
REMARK                         _______ _______ _______ _____ _____    ______ ____
ROOT
ATOM      1  N   UNL     1      56.559 241.546 348.207  0.00  0.00    +0.000 N 
ATOM      2  N   UNL     1      56.959 240.590 349.073  0.00  0.00    +0.000 NA
ATOM      3  N   UNL     1      54.660 242.099 346.810  0.00  0.00    +0.000 NA
ATOM      4  N   UNL     1      52.899 240.446 346.990  0.00  0.00    +0.000 NA
ATOM      5  C   UNL     1      54.873 240.150 348.252  0.00  0.00    +0.000 A 
ATOM      6  C   UNL     1      55.316 241.328 347.688  0.00  0.00    +0.000 A 
ATOM      7  C   UNL     1      55.922 239.741 349.094  0.00  0.00    +0.000 A 
ATOM      8  C   UNL     1      53.612 239.707 347.876  0.00  0.00    +0.000 A 
ATOM      9  C   UNL     1      53.452 241.581 346.514  0.00  0.00    +0.000 A 
ATOM     10  H   UNL     1      57.178 242.324 348.009  0.00  0.00    +0.000 HD
ENDROOT
TORSDOF 0
ENDMDL
MODEL 6
REMARK VINA RESULT:      -3.3     18.161     19.022
REMARK  Name = 67499_Pyrazolo.pdbqt.pdb
REMARK  0 active torsions:
REMARK  status: ('A' for Active; 'I' for Inactive)
REMARK                            x       y       z     vdW  Elec       q    Type
REMARK                         _______ _______ _______ _____ _____    ______ ____
ROOT
ATOM      1  N   UNL     1      64.215 244.479 331.048  0.00  0.00    +0.000 N 
ATOM      2  N   UNL     1      65.156 245.049 330.266  0.00  0.00    +0.000 NA
ATOM      3  N   UNL     1      63.977 242.658 332.628  0.00  0.00    +0.000 NA
ATOM      4  N   UNL     1      66.056 241.454 332.931  0.00  0.00    +0.000 NA
ATOM      5  C   UNL     1      66.007 243.283 331.439  0.00  0.00    +0.000 A 
ATOM      6  C   UNL     1      64.675 243.417 331.771  0.00  0.00    +0.000 A 
ATOM      7  C   UNL     1      66.248 244.312 330.511  0.00  0.00    +0.000 A 
ATOM      8  C   UNL     1      66.709 242.256 332.053  0.00  0.00    +0.000 A 
ATOM      9  C   UNL     1      64.749 241.695 333.166  0.00  0.00    +0.000 A 
ATOM     10  H   UNL     1      63.275 244.858 331.048  0.00  0.00    +0.000 HD
ENDROOT
TORSDOF 0
ENDMDL
MODEL 7
REMARK VINA RESULT:      -3.2      1.100      3.196
REMARK  Name = 67499_Pyrazolo.pdbqt.pdb
REMARK  0 active torsions:
REMARK  status: ('A' for Active; 'I' for Inactive)
REMARK                            x       y       z     vdW  Elec       q    Type
REMARK                         _______ _______ _______ _____ _____    ______ ____
ROOT
ATOM      1  N   UNL     1      56.207 241.371 348.183  0.00  0.00    +0.000 N 
ATOM      2  N   UNL     1      55.678 240.133 348.293  0.00  0.00    +0.000 NA
ATOM      3  N   UNL     1      55.753 243.485 347.091  0.00  0.00    +0.000 NA
ATOM      4  N   UNL     1      53.723 243.399 345.775  0.00  0.00    +0.000 NA
ATOM      5  C   UNL     1      54.401 241.466 346.947  0.00  0.00    +0.000 A 
ATOM      6  C   UNL     1      55.479 242.206 347.387  0.00  0.00    +0.000 A 
ATOM      7  C   UNL     1      54.575 240.201 347.536  0.00  0.00    +0.000 A 
ATOM      8  C   UNL     1      53.498 242.105 346.109  0.00  0.00    +0.000 A 
ATOM      9  C   UNL     1      54.818 244.008 346.275  0.00  0.00    +0.000 A 
ATOM     10  H   UNL     1      57.067 241.587 348.673  0.00  0.00    +0.000 HD
ENDROOT
TORSDOF 0
ENDMDL
MODEL 8
REMARK VINA RESULT:      -3.2     13.070     13.555
REMARK  Name = 67499_Pyrazolo.pdbqt.pdb
REMARK  0 active torsions:
REMARK  status: ('A' for Active; 'I' for Inactive)
REMARK                            x       y       z     vdW  Elec       q    Type
REMARK                         _______ _______ _______ _____ _____    ______ ____
ROOT
ATOM      1  N   UNL     1      65.513 235.947 342.797  0.00  0.00    +0.000 N 
ATOM      2  N   UNL     1      65.279 235.418 341.577  0.00  0.00    +0.000 NA
ATOM      3  N   UNL     1      66.070 235.237 345.045  0.00  0.00    +0.000 NA
ATOM      4  N   UNL     1      66.287 232.830 345.200  0.00  0.00    +0.000 NA
ATOM      5  C   UNL     1      65.746 233.792 343.113  0.00  0.00    +0.000 A 
ATOM      6  C   UNL     1      65.797 235.014 343.752  0.00  0.00    +0.000 A 
ATOM      7  C   UNL     1      65.424 234.101 341.780  0.00  0.00    +0.000 A 
ATOM      8  C   UNL     1      66.004 232.668 343.884  0.00  0.00    +0.000 A 
ATOM      9  C   UNL     1      66.304 234.083 345.700  0.00  0.00    +0.000 A 
ATOM     10  H   UNL     1      65.464 236.952 342.918  0.00  0.00    +0.000 HD
ENDROOT
TORSDOF 0
ENDMDL
MODEL 9
REMARK VINA RESULT:      -3.2     28.446     29.032
REMARK  Name = 67499_Pyrazolo.pdbqt.pdb
REMARK  0 active torsions:
REMARK  status: ('A' for Active; 'I' for Inactive)
REMARK                            x       y       z     vdW  Elec       q    Type
REMARK                         _______ _______ _______ _____ _____    ______ ____
ROOT
ATOM      1  N   UNL     1      66.391 236.107 321.938  0.00  0.00    +0.000 N 
ATOM      2  N   UNL     1      65.297 235.360 322.202  0.00  0.00    +0.000 NA
ATOM      3  N   UNL     1      68.799 235.881 321.814  0.00  0.00    +0.000 NA
ATOM      4  N   UNL     1      69.517 233.622 322.312  0.00  0.00    +0.000 NA
ATOM      5  C   UNL     1      67.209 234.121 322.362  0.00  0.00    +0.000 A 
ATOM      6  C   UNL     1      67.561 235.410 322.021  0.00  0.00    +0.000 A 
ATOM      7  C   UNL     1      65.807 234.148 322.460  0.00  0.00    +0.000 A 
ATOM      8  C   UNL     1      68.242 233.205 322.509  0.00  0.00    +0.000 A 
ATOM      9  C   UNL     1      69.722 234.914 321.982  0.00  0.00    +0.000 A 
ATOM     10  H   UNL     1      66.277 237.087 321.707  0.00  0.00    +0.000 HD
ENDROOT
TORSDOF 0
ENDMDL
