MODEL 1
REMARK VINA RESULT:      -4.2      0.000      0.000
REMARK  Name = 71369791_5FluoroDione.pdbqt.pdb
REMARK  1 active torsions:
REMARK  status: ('A' for Active; 'I' for Inactive)
REMARK    1  A    between atoms: N_4  and  C_12
REMARK                            x       y       z     vdW  Elec       q    Type
REMARK                         _______ _______ _______ _____ _____    ______ ____
ROOT
ATOM      1  F   UNL     1      62.266 227.158 323.297  0.00  0.00    +0.000 F 
ATOM      2  O   UNL     1      63.553 224.996 328.128  0.00  0.00    +0.000 OA
ATOM      3  O   UNL     1      64.571 227.930 324.752  0.00  0.00    +0.000 OA
ATOM      4  N   UNL     1      61.926 225.270 326.435  0.00  0.00    +0.000 N 
ATOM      5  N   UNL     1      63.939 226.506 326.450  0.00  0.00    +0.000 N 
ATOM      6  C   UNL     1      61.669 225.957 325.305  0.00  0.00    +0.000 C 
ATOM      7  C   UNL     1      62.398 226.933 324.615  0.00  0.00    +0.000 C 
ATOM      8  C   UNL     1      63.147 225.528 327.099  0.00  0.00    +0.000 C 
ATOM      9  C   UNL     1      63.726 227.194 325.246  0.00  0.00    +0.000 C 
ATOM     10  H   UNL     1      64.835 226.675 326.887  0.00  0.00    +0.000 HD
ENDROOT
BRANCH   4  12
ATOM     11  O   UNL     1      61.147 222.984 326.686  0.00  0.00    +0.000 OA
ATOM     12  C   UNL     1      61.004 224.364 326.876  0.00  0.00    +0.000 C 
ATOM     13  C   UNL     1      59.786 224.592 327.570  0.00  0.00    +0.000 C 
ATOM     14  C   UNL     1      58.860 223.449 327.992  0.00  0.00    +0.000 C 
ATOM     15  C   UNL     1      59.995 222.693 327.302  0.00  0.00    +0.000 C 
ENDBRANCH   4  12
TORSDOF 1
ENDMDL
MODEL 2
REMARK VINA RESULT:      -4.0     19.312     20.327
REMARK  Name = 71369791_5FluoroDione.pdbqt.pdb
REMARK  1 active torsions:
REMARK  status: ('A' for Active; 'I' for Inactive)
REMARK    1  A    between atoms: N_4  and  C_12
REMARK                            x       y       z     vdW  Elec       q    Type
REMARK                         _______ _______ _______ _____ _____    ______ ____
ROOT
ATOM      1  F   UNL     1      68.896 239.882 339.279  0.00  0.00    +0.000 F 
ATOM      2  O   UNL     1      64.031 240.007 336.834  0.00  0.00    +0.000 OA
ATOM      3  O   UNL     1      68.203 238.131 337.162  0.00  0.00    +0.000 OA
ATOM      4  N   UNL     1      65.366 240.704 338.656  0.00  0.00    +0.000 N 
ATOM      5  N   UNL     1      66.094 239.058 337.126  0.00  0.00    +0.000 N 
ATOM      6  C   UNL     1      66.562 240.498 339.241  0.00  0.00    +0.000 C 
ATOM      7  C   UNL     1      67.622 239.638 338.930  0.00  0.00    +0.000 C 
ATOM      8  C   UNL     1      65.059 239.948 337.501  0.00  0.00    +0.000 C 
ATOM      9  C   UNL     1      67.368 238.863 337.679  0.00  0.00    +0.000 C 
ATOM     10  H   UNL     1      65.911 238.538 336.279  0.00  0.00    +0.000 HD
ENDROOT
BRANCH   4  12
ATOM     11  O   UNL     1      63.163 241.368 339.434  0.00  0.00    +0.000 OA
ATOM     12  C   UNL     1      64.520 241.628 339.201  0.00  0.00    +0.000 C 
ATOM     13  C   UNL     1      64.795 242.956 339.621  0.00  0.00    +0.000 C 
ATOM     14  C   UNL     1      63.717 243.865 340.215  0.00  0.00    +0.000 C 
ATOM     15  C   UNL     1      62.929 242.586 339.937  0.00  0.00    +0.000 C 
ENDBRANCH   4  12
TORSDOF 1
ENDMDL
MODEL 3
REMARK VINA RESULT:      -3.9     19.887     20.530
REMARK  Name = 71369791_5FluoroDione.pdbqt.pdb
REMARK  1 active torsions:
REMARK  status: ('A' for Active; 'I' for Inactive)
REMARK    1  A    between atoms: N_4  and  C_12
REMARK                            x       y       z     vdW  Elec       q    Type
REMARK                         _______ _______ _______ _____ _____    ______ ____
ROOT
ATOM      1  F   UNL     1      53.141 241.332 321.861  0.00  0.00    +0.000 F 
ATOM      2  O   UNL     1      54.273 245.819 324.733  0.00  0.00    +0.000 OA
ATOM      3  O   UNL     1      54.365 243.615 320.712  0.00  0.00    +0.000 OA
ATOM      4  N   UNL     1      53.138 243.748 324.634  0.00  0.00    +0.000 N 
ATOM      5  N   UNL     1      54.192 244.692 322.742  0.00  0.00    +0.000 N 
ATOM      6  C   UNL     1      52.819 242.747 323.791  0.00  0.00    +0.000 C 
ATOM      7  C   UNL     1      53.082 242.548 322.431  0.00  0.00    +0.000 C 
ATOM      8  C   UNL     1      53.885 244.832 324.118  0.00  0.00    +0.000 C 
ATOM      9  C   UNL     1      53.924 243.638 321.855  0.00  0.00    +0.000 C 
ATOM     10  H   UNL     1      54.762 245.436 322.364  0.00  0.00    +0.000 HD
ENDROOT
BRANCH   4  12
ATOM     11  O   UNL     1      53.530 243.116 326.946  0.00  0.00    +0.000 OA
ATOM     12  C   UNL     1      52.730 243.665 325.936  0.00  0.00    +0.000 C 
ATOM     13  C   UNL     1      51.503 244.078 326.517  0.00  0.00    +0.000 C 
ATOM     14  C   UNL     1      51.207 243.906 328.008  0.00  0.00    +0.000 C 
ATOM     15  C   UNL     1      52.614 243.321 327.900  0.00  0.00    +0.000 C 
ENDBRANCH   4  12
TORSDOF 1
ENDMDL
MODEL 4
REMARK VINA RESULT:      -3.9     16.425     17.269
REMARK  Name = 71369791_5FluoroDione.pdbqt.pdb
REMARK  1 active torsions:
REMARK  status: ('A' for Active; 'I' for Inactive)
REMARK    1  A    between atoms: N_4  and  C_12
REMARK                            x       y       z     vdW  Elec       q    Type
REMARK                         _______ _______ _______ _____ _____    ______ ____
ROOT
ATOM      1  F   UNL     1      45.988 233.288 320.711  0.00  0.00    +0.000 F 
ATOM      2  O   UNL     1      49.575 233.336 324.808  0.00  0.00    +0.000 OA
ATOM      3  O   UNL     1      47.016 230.916 321.871  0.00  0.00    +0.000 OA
ATOM      4  N   UNL     1      48.460 234.558 323.120  0.00  0.00    +0.000 N 
ATOM      5  N   UNL     1      48.346 232.201 323.245  0.00  0.00    +0.000 N 
ATOM      6  C   UNL     1      47.661 234.406 322.046  0.00  0.00    +0.000 C 
ATOM      7  C   UNL     1      47.120 233.269 321.434  0.00  0.00    +0.000 C 
ATOM      8  C   UNL     1      48.863 233.392 323.811  0.00  0.00    +0.000 C 
ATOM      9  C   UNL     1      47.469 232.016 322.167  0.00  0.00    +0.000 C 
ATOM     10  H   UNL     1      48.589 231.360 323.750  0.00  0.00    +0.000 HD
ENDROOT
BRANCH   4  12
ATOM     11  O   UNL     1      49.321 236.761 322.570  0.00  0.00    +0.000 OA
ATOM     12  C   UNL     1      48.833 235.820 323.486  0.00  0.00    +0.000 C 
ATOM     13  C   UNL     1      48.817 236.420 324.772  0.00  0.00    +0.000 C 
ATOM     14  C   UNL     1      49.278 237.860 325.007  0.00  0.00    +0.000 C 
ATOM     15  C   UNL     1      49.488 237.707 323.502  0.00  0.00    +0.000 C 
ENDBRANCH   4  12
TORSDOF 1
ENDMDL
MODEL 5
REMARK VINA RESULT:      -3.9     27.935     28.801
REMARK  Name = 71369791_5FluoroDione.pdbqt.pdb
REMARK  1 active torsions:
REMARK  status: ('A' for Active; 'I' for Inactive)
REMARK    1  A    between atoms: N_4  and  C_12
REMARK                            x       y       z     vdW  Elec       q    Type
REMARK                         _______ _______ _______ _____ _____    ______ ____
ROOT
ATOM      1  F   UNL     1      56.480 241.912 352.434  0.00  0.00    +0.000 F 
ATOM      2  O   UNL     1      55.601 238.700 348.124  0.00  0.00    +0.000 OA
ATOM      3  O   UNL     1      56.614 239.086 352.580  0.00  0.00    +0.000 OA
ATOM      4  N   UNL     1      55.454 240.865 349.060  0.00  0.00    +0.000 N 
ATOM      5  N   UNL     1      56.004 238.972 350.361  0.00  0.00    +0.000 N 
ATOM      6  C   UNL     1      55.590 241.536 350.221  0.00  0.00    +0.000 C 
ATOM      7  C   UNL     1      55.911 241.112 351.516  0.00  0.00    +0.000 C 
ATOM      8  C   UNL     1      55.669 239.468 349.078  0.00  0.00    +0.000 C 
ATOM      9  C   UNL     1      56.208 239.650 351.572  0.00  0.00    +0.000 C 
ATOM     10  H   UNL     1      56.202 237.981 350.387  0.00  0.00    +0.000 HD
ENDROOT
BRANCH   4  12
ATOM     11  O   UNL     1      55.807 242.718 347.530  0.00  0.00    +0.000 OA
ATOM     12  C   UNL     1      55.124 241.564 347.934  0.00  0.00    +0.000 C 
ATOM     13  C   UNL     1      54.095 241.305 346.990  0.00  0.00    +0.000 C 
ATOM     14  C   UNL     1      53.859 242.202 345.773  0.00  0.00    +0.000 C 
ATOM     15  C   UNL     1      55.044 242.893 346.445  0.00  0.00    +0.000 C 
ENDBRANCH   4  12
TORSDOF 1
ENDMDL
MODEL 6
REMARK VINA RESULT:      -3.8     21.143     22.032
REMARK  Name = 71369791_5FluoroDione.pdbqt.pdb
REMARK  1 active torsions:
REMARK  status: ('A' for Active; 'I' for Inactive)
REMARK    1  A    between atoms: N_4  and  C_12
REMARK                            x       y       z     vdW  Elec       q    Type
REMARK                         _______ _______ _______ _____ _____    ______ ____
ROOT
ATOM      1  F   UNL     1      66.482 245.487 339.531  0.00  0.00    +0.000 F 
ATOM      2  O   UNL     1      62.293 242.066 340.176  0.00  0.00    +0.000 OA
ATOM      3  O   UNL     1      63.885 246.367 340.245  0.00  0.00    +0.000 OA
ATOM      4  N   UNL     1      64.500 242.392 339.394  0.00  0.00    +0.000 N 
ATOM      5  N   UNL     1      63.139 244.192 340.093  0.00  0.00    +0.000 N 
ATOM      6  C   UNL     1      65.419 243.350 339.165  0.00  0.00    +0.000 C 
ATOM      7  C   UNL     1      65.383 244.740 339.327  0.00  0.00    +0.000 C 
ATOM      8  C   UNL     1      63.242 242.793 339.900  0.00  0.00    +0.000 C 
ATOM      9  C   UNL     1      64.094 245.205 339.919  0.00  0.00    +0.000 C 
ATOM     10  H   UNL     1      62.262 244.495 340.493  0.00  0.00    +0.000 HD
ENDROOT
BRANCH   4  12
ATOM     11  O   UNL     1      65.378 240.241 340.099  0.00  0.00    +0.000 OA
ATOM     12  C   UNL     1      64.829 241.092 339.133  0.00  0.00    +0.000 C 
ATOM     13  C   UNL     1      64.703 240.364 337.920  0.00  0.00    +0.000 C 
ATOM     14  C   UNL     1      65.127 238.899 337.800  0.00  0.00    +0.000 C 
ATOM     15  C   UNL     1      65.458 239.201 339.260  0.00  0.00    +0.000 C 
ENDBRANCH   4  12
TORSDOF 1
ENDMDL
MODEL 7
REMARK VINA RESULT:      -3.8     27.658     28.486
REMARK  Name = 71369791_5FluoroDione.pdbqt.pdb
REMARK  1 active torsions:
REMARK  status: ('A' for Active; 'I' for Inactive)
REMARK    1  A    between atoms: N_4  and  C_12
REMARK                            x       y       z     vdW  Elec       q    Type
REMARK                         _______ _______ _______ _____ _____    ______ ____
ROOT
ATOM      1  F   UNL     1      57.309 240.717 349.453  0.00  0.00    +0.000 F 
ATOM      2  O   UNL     1      53.638 242.076 345.667  0.00  0.00    +0.000 OA
ATOM      3  O   UNL     1      55.481 238.851 348.356  0.00  0.00    +0.000 OA
ATOM      4  N   UNL     1      55.214 242.807 347.270  0.00  0.00    +0.000 N 
ATOM      5  N   UNL     1      54.544 240.547 347.110  0.00  0.00    +0.000 N 
ATOM      6  C   UNL     1      55.997 242.364 348.273  0.00  0.00    +0.000 C 
ATOM      7  C   UNL     1      56.182 241.092 348.826  0.00  0.00    +0.000 C 
ATOM      8  C   UNL     1      54.402 241.861 346.602  0.00  0.00    +0.000 C 
ATOM      9  C   UNL     1      55.391 240.047 348.110  0.00  0.00    +0.000 C 
ATOM     10  H   UNL     1      54.003 239.849 346.618  0.00  0.00    +0.000 HD
ENDROOT
BRANCH   4  12
ATOM     11  O   UNL     1      55.866 244.620 345.793  0.00  0.00    +0.000 OA
ATOM     12  C   UNL     1      55.245 244.135 346.950  0.00  0.00    +0.000 C 
ATOM     13  C   UNL     1      54.703 245.239 347.659  0.00  0.00    +0.000 C 
ATOM     14  C   UNL     1      54.833 246.677 347.153  0.00  0.00    +0.000 C 
ATOM     15  C   UNL     1      55.561 245.895 346.061  0.00  0.00    +0.000 C 
ENDBRANCH   4  12
TORSDOF 1
ENDMDL
MODEL 8
REMARK VINA RESULT:      -3.7     23.635     24.588
REMARK  Name = 71369791_5FluoroDione.pdbqt.pdb
REMARK  1 active torsions:
REMARK  status: ('A' for Active; 'I' for Inactive)
REMARK    1  A    between atoms: N_4  and  C_12
REMARK                            x       y       z     vdW  Elec       q    Type
REMARK                         _______ _______ _______ _____ _____    ______ ____
ROOT
ATOM      1  F   UNL     1      64.610 225.381 351.775  0.00  0.00    +0.000 F 
ATOM      2  O   UNL     1      66.468 230.096 349.781  0.00  0.00    +0.000 OA
ATOM      3  O   UNL     1      67.372 225.998 351.631  0.00  0.00    +0.000 OA
ATOM      4  N   UNL     1      64.637 228.624 350.042  0.00  0.00    +0.000 N 
ATOM      5  N   UNL     1      66.841 227.997 350.615  0.00  0.00    +0.000 N 
ATOM      6  C   UNL     1      64.318 227.384 350.459  0.00  0.00    +0.000 C 
ATOM      7  C   UNL     1      65.096 226.336 350.965  0.00  0.00    +0.000 C 
ATOM      8  C   UNL     1      65.995 229.012 350.105  0.00  0.00    +0.000 C 
ATOM      9  C   UNL     1      66.532 226.721 351.109  0.00  0.00    +0.000 C 
ATOM     10  H   UNL     1      67.810 228.269 350.707  0.00  0.00    +0.000 HD
ENDROOT
BRANCH   4  12
ATOM     11  O   UNL     1      63.648 230.004 348.305  0.00  0.00    +0.000 OA
ATOM     12  C   UNL     1      63.640 229.440 349.587  0.00  0.00    +0.000 C 
ATOM     13  C   UNL     1      62.462 229.871 350.253  0.00  0.00    +0.000 C 
ATOM     14  C   UNL     1      61.441 230.796 349.589  0.00  0.00    +0.000 C 
ATOM     15  C   UNL     1      62.485 230.641 348.485  0.00  0.00    +0.000 C 
ENDBRANCH   4  12
TORSDOF 1
ENDMDL
MODEL 9
REMARK VINA RESULT:      -3.7     27.625     28.224
REMARK  Name = 71369791_5FluoroDione.pdbqt.pdb
REMARK  1 active torsions:
REMARK  status: ('A' for Active; 'I' for Inactive)
REMARK    1  A    between atoms: N_4  and  C_12
REMARK                            x       y       z     vdW  Elec       q    Type
REMARK                         _______ _______ _______ _____ _____    ______ ____
ROOT
ATOM      1  F   UNL     1      57.263 244.950 349.566  0.00  0.00    +0.000 F 
ATOM      2  O   UNL     1      54.830 242.325 345.461  0.00  0.00    +0.000 OA
ATOM      3  O   UNL     1      57.131 246.006 346.940  0.00  0.00    +0.000 OA
ATOM      4  N   UNL     1      55.675 242.231 347.666  0.00  0.00    +0.000 N 
ATOM      5  N   UNL     1      56.066 244.082 346.252  0.00  0.00    +0.000 N 
ATOM      6  C   UNL     1      56.396 242.933 348.562  0.00  0.00    +0.000 C 
ATOM      7  C   UNL     1      57.019 244.184 348.489  0.00  0.00    +0.000 C 
ATOM      8  C   UNL     1      55.464 242.808 346.393  0.00  0.00    +0.000 C 
ATOM      9  C   UNL     1      56.771 244.861 347.182  0.00  0.00    +0.000 C 
ATOM     10  H   UNL     1      55.892 244.530 345.363  0.00  0.00    +0.000 HD
ENDROOT
BRANCH   4  12
ATOM     11  O   UNL     1      56.015 239.924 348.345  0.00  0.00    +0.000 OA
ATOM     12  C   UNL     1      55.186 241.008 348.031  0.00  0.00    +0.000 C 
ATOM     13  C   UNL     1      53.836 240.588 348.164  0.00  0.00    +0.000 C 
ATOM     14  C   UNL     1      53.462 239.166 348.586  0.00  0.00    +0.000 C 
ATOM     15  C   UNL     1      54.988 239.102 348.594  0.00  0.00    +0.000 C 
ENDBRANCH   4  12
TORSDOF 1
ENDMDL
