MODEL 1
REMARK VINA RESULT:      -2.6      0.000      0.000
REMARK  Name = 7288_3Pentanone.pdbqt.pdb
REMARK  2 active torsions:
REMARK  status: ('A' for Active; 'I' for Inactive)
REMARK    1  A    between atoms: C_2  and  C_3
REMARK    2  A    between atoms: C_2  and  C_5
REMARK                            x       y       z     vdW  Elec       q    Type
REMARK                         _______ _______ _______ _____ _____    ______ ____
ROOT
ATOM      1  O   UNL     1      66.451 230.589 348.501  0.00  0.00    +0.000 OA
ATOM      2  C   UNL     1      65.485 230.540 347.749  0.00  0.00    +0.000 C 
ENDROOT
BRANCH   2   3
ATOM      3  C   UNL     1      64.142 230.449 348.272  0.00  0.00    +0.000 C 
ATOM      4  C   UNL     1      62.718 230.356 348.853  0.00  0.00    +0.000 C 
ENDBRANCH   2   3
BRANCH   2   5
ATOM      5  C   UNL     1      65.659 230.571 346.316  0.00  0.00    +0.000 C 
ATOM      6  C   UNL     1      65.847 230.581 344.786  0.00  0.00    +0.000 C 
ENDBRANCH   2   5
TORSDOF 2
ENDMDL
MODEL 2
REMARK VINA RESULT:      -2.5      9.847     10.570
REMARK  Name = 7288_3Pentanone.pdbqt.pdb
REMARK  2 active torsions:
REMARK  status: ('A' for Active; 'I' for Inactive)
REMARK    1  A    between atoms: C_2  and  C_3
REMARK    2  A    between atoms: C_2  and  C_5
REMARK                            x       y       z     vdW  Elec       q    Type
REMARK                         _______ _______ _______ _____ _____    ______ ____
ROOT
ATOM      1  O   UNL     1      69.874 221.302 349.099  0.00  0.00    +0.000 OA
ATOM      2  C   UNL     1      70.674 222.198 348.858  0.00  0.00    +0.000 C 
ENDROOT
BRANCH   2   3
ATOM      3  C   UNL     1      71.950 221.908 348.247  0.00  0.00    +0.000 C 
ATOM      4  C   UNL     1      73.301 221.600 347.574  0.00  0.00    +0.000 C 
ENDBRANCH   2   3
BRANCH   2   5
ATOM      5  C   UNL     1      70.366 223.572 349.176  0.00  0.00    +0.000 C 
ATOM      6  C   UNL     1      70.061 225.045 349.515  0.00  0.00    +0.000 C 
ENDBRANCH   2   5
TORSDOF 2
ENDMDL
MODEL 3
REMARK VINA RESULT:      -2.5      0.536      3.328
REMARK  Name = 7288_3Pentanone.pdbqt.pdb
REMARK  2 active torsions:
REMARK  status: ('A' for Active; 'I' for Inactive)
REMARK    1  A    between atoms: C_2  and  C_3
REMARK    2  A    between atoms: C_2  and  C_5
REMARK                            x       y       z     vdW  Elec       q    Type
REMARK                         _______ _______ _______ _____ _____    ______ ____
ROOT
ATOM      1  O   UNL     1      66.133 229.950 348.922  0.00  0.00    +0.000 OA
ATOM      2  C   UNL     1      65.251 230.265 348.133  0.00  0.00    +0.000 C 
ENDROOT
BRANCH   2   3
ATOM      3  C   UNL     1      65.552 230.506 346.742  0.00  0.00    +0.000 C 
ATOM      4  C   UNL     1      65.850 230.758 345.251  0.00  0.00    +0.000 C 
ENDBRANCH   2   3
BRANCH   2   5
ATOM      5  C   UNL     1      63.882 230.407 348.570  0.00  0.00    +0.000 C 
ATOM      6  C   UNL     1      62.424 230.543 349.055  0.00  0.00    +0.000 C 
ENDBRANCH   2   5
TORSDOF 2
ENDMDL
MODEL 4
REMARK VINA RESULT:      -2.4     14.233     14.715
REMARK  Name = 7288_3Pentanone.pdbqt.pdb
REMARK  2 active torsions:
REMARK  status: ('A' for Active; 'I' for Inactive)
REMARK    1  A    between atoms: C_2  and  C_3
REMARK    2  A    between atoms: C_2  and  C_5
REMARK                            x       y       z     vdW  Elec       q    Type
REMARK                         _______ _______ _______ _____ _____    ______ ____
ROOT
ATOM      1  O   UNL     1      56.106 240.547 348.205  0.00  0.00    +0.000 OA
ATOM      2  C   UNL     1      54.905 240.539 347.966  0.00  0.00    +0.000 C 
ENDROOT
BRANCH   2   3
ATOM      3  C   UNL     1      54.004 239.705 348.725  0.00  0.00    +0.000 C 
ATOM      4  C   UNL     1      53.061 238.799 349.542  0.00  0.00    +0.000 C 
ENDBRANCH   2   3
BRANCH   2   5
ATOM      5  C   UNL     1      54.352 241.364 346.918  0.00  0.00    +0.000 C 
ATOM      6  C   UNL     1      53.762 242.226 345.784  0.00  0.00    +0.000 C 
ENDBRANCH   2   5
TORSDOF 2
ENDMDL
MODEL 5
REMARK VINA RESULT:      -2.4     22.006     22.827
REMARK  Name = 7288_3Pentanone.pdbqt.pdb
REMARK  2 active torsions:
REMARK  status: ('A' for Active; 'I' for Inactive)
REMARK    1  A    between atoms: C_2  and  C_3
REMARK    2  A    between atoms: C_2  and  C_5
REMARK                            x       y       z     vdW  Elec       q    Type
REMARK                         _______ _______ _______ _____ _____    ______ ____
ROOT
ATOM      1  O   UNL     1      53.771 219.642 330.446  0.00  0.00    +0.000 OA
ATOM      2  C   UNL     1      53.466 219.107 331.505  0.00  0.00    +0.000 C 
ENDROOT
BRANCH   2   3
ATOM      3  C   UNL     1      54.462 218.841 332.515  0.00  0.00    +0.000 C 
ATOM      4  C   UNL     1      55.539 218.543 333.578  0.00  0.00    +0.000 C 
ENDBRANCH   2   3
BRANCH   2   5
ATOM      5  C   UNL     1      52.100 218.725 331.776  0.00  0.00    +0.000 C 
ATOM      6  C   UNL     1      50.635 218.324 332.042  0.00  0.00    +0.000 C 
ENDBRANCH   2   5
TORSDOF 2
ENDMDL
MODEL 6
REMARK VINA RESULT:      -2.2      3.496      4.782
REMARK  Name = 7288_3Pentanone.pdbqt.pdb
REMARK  2 active torsions:
REMARK  status: ('A' for Active; 'I' for Inactive)
REMARK    1  A    between atoms: C_2  and  C_3
REMARK    2  A    between atoms: C_2  and  C_5
REMARK                            x       y       z     vdW  Elec       q    Type
REMARK                         _______ _______ _______ _____ _____    ______ ____
ROOT
ATOM      1  O   UNL     1      60.114 230.175 349.855  0.00  0.00    +0.000 OA
ATOM      2  C   UNL     1      61.231 230.619 350.089  0.00  0.00    +0.000 C 
ENDROOT
BRANCH   2   3
ATOM      3  C   UNL     1      61.496 231.354 351.303  0.00  0.00    +0.000 C 
ATOM      4  C   UNL     1      61.787 232.118 352.610  0.00  0.00    +0.000 C 
ENDBRANCH   2   3
BRANCH   2   5
ATOM      5  C   UNL     1      62.317 230.422 349.159  0.00  0.00    +0.000 C 
ATOM      6  C   UNL     1      63.462 230.207 348.148  0.00  0.00    +0.000 C 
ENDBRANCH   2   5
TORSDOF 2
ENDMDL
MODEL 7
REMARK VINA RESULT:      -2.2     15.254     15.374
REMARK  Name = 7288_3Pentanone.pdbqt.pdb
REMARK  2 active torsions:
REMARK  status: ('A' for Active; 'I' for Inactive)
REMARK    1  A    between atoms: C_2  and  C_3
REMARK    2  A    between atoms: C_2  and  C_5
REMARK                            x       y       z     vdW  Elec       q    Type
REMARK                         _______ _______ _______ _____ _____    ______ ____
ROOT
ATOM      1  O   UNL     1      58.486 216.701 350.141  0.00  0.00    +0.000 OA
ATOM      2  C   UNL     1      57.798 217.489 350.779  0.00  0.00    +0.000 C 
ENDROOT
BRANCH   2   3
ATOM      3  C   UNL     1      58.055 217.732 352.178  0.00  0.00    +0.000 C 
ATOM      4  C   UNL     1      58.332 218.015 353.668  0.00  0.00    +0.000 C 
ENDBRANCH   2   3
BRANCH   2   5
ATOM      5  C   UNL     1      56.709 218.198 350.151  0.00  0.00    +0.000 C 
ATOM      6  C   UNL     1      55.538 218.935 349.470  0.00  0.00    +0.000 C 
ENDBRANCH   2   5
TORSDOF 2
ENDMDL
MODEL 8
REMARK VINA RESULT:      -2.2     12.044     13.155
REMARK  Name = 7288_3Pentanone.pdbqt.pdb
REMARK  2 active torsions:
REMARK  status: ('A' for Active; 'I' for Inactive)
REMARK    1  A    between atoms: C_2  and  C_3
REMARK    2  A    between atoms: C_2  and  C_5
REMARK                            x       y       z     vdW  Elec       q    Type
REMARK                         _______ _______ _______ _____ _____    ______ ____
ROOT
ATOM      1  O   UNL     1      54.498 229.064 353.501  0.00  0.00    +0.000 OA
ATOM      2  C   UNL     1      54.162 227.913 353.249  0.00  0.00    +0.000 C 
ENDROOT
BRANCH   2   3
ATOM      3  C   UNL     1      55.111 226.829 353.333  0.00  0.00    +0.000 C 
ATOM      4  C   UNL     1      56.142 225.687 353.429  0.00  0.00    +0.000 C 
ENDBRANCH   2   3
BRANCH   2   5
ATOM      5  C   UNL     1      52.806 227.605 352.860  0.00  0.00    +0.000 C 
ATOM      6  C   UNL     1      51.350 227.296 352.457  0.00  0.00    +0.000 C 
ENDBRANCH   2   5
TORSDOF 2
ENDMDL
MODEL 9
REMARK VINA RESULT:      -2.2     20.931     21.691
REMARK  Name = 7288_3Pentanone.pdbqt.pdb
REMARK  2 active torsions:
REMARK  status: ('A' for Active; 'I' for Inactive)
REMARK    1  A    between atoms: C_2  and  C_3
REMARK    2  A    between atoms: C_2  and  C_5
REMARK                            x       y       z     vdW  Elec       q    Type
REMARK                         _______ _______ _______ _____ _____    ______ ____
ROOT
ATOM      1  O   UNL     1      47.225 241.231 340.723  0.00  0.00    +0.000 OA
ATOM      2  C   UNL     1      47.217 241.350 341.943  0.00  0.00    +0.000 C 
ENDROOT
BRANCH   2   3
ATOM      3  C   UNL     1      47.490 242.625 342.564  0.00  0.00    +0.000 C 
ATOM      4  C   UNL     1      47.805 243.980 343.226  0.00  0.00    +0.000 C 
ENDBRANCH   2   3
BRANCH   2   5
ATOM      5  C   UNL     1      46.934 240.221 342.796  0.00  0.00    +0.000 C 
ATOM      6  C   UNL     1      46.640 239.027 343.727  0.00  0.00    +0.000 C 
ENDBRANCH   2   5
TORSDOF 2
ENDMDL
