MODEL 1
REMARK VINA RESULT:      -6.1      0.000      0.000
REMARK  Name = 73299_Hederagenin.pdbqt.pdb
REMARK  5 active torsions:
REMARK  status: ('A' for Active; 'I' for Inactive)
REMARK    1  A    between atoms: C_9  and  C_35
REMARK    2  A    between atoms: C_14  and  C_32
REMARK    3  A    between atoms: C_17  and  O_29
REMARK    4  A    between atoms: C_32  and  O_33
REMARK    5  A    between atoms: C_35  and  O_36
REMARK                            x       y       z     vdW  Elec       q    Type
REMARK                         _______ _______ _______ _____ _____    ______ ____
ROOT
ATOM      1  C   UNL     1      67.585 219.731 335.886  0.00  0.00    +0.000 C 
ATOM      2  C   UNL     1      67.692 218.155 335.755  0.00  0.00    +0.000 C 
ATOM      3  C   UNL     1      66.715 217.308 334.932  0.00  0.00    +0.000 C 
ATOM      4  C   UNL     1      67.910 220.254 337.424  0.00  0.00    +0.000 C 
ATOM      5  C   UNL     1      65.237 217.793 334.870  0.00  0.00    +0.000 C 
ATOM      6  C   UNL     1      66.210 220.062 335.494  0.00  0.00    +0.000 C 
ATOM      7  C   UNL     1      65.088 219.200 335.020  0.00  0.00    +0.000 C 
ATOM      8  C   UNL     1      69.275 219.603 338.017  0.00  0.00    +0.000 C 
ATOM      9  C   UNL     1      64.035 216.834 334.921  0.00  0.00    +0.000 C 
ATOM     10  C   UNL     1      70.289 220.339 338.804  0.00  0.00    +0.000 C 
ATOM     11  C   UNL     1      68.747 217.615 336.556  0.00  0.00    +0.000 C 
ATOM     12  C   UNL     1      66.648 215.957 335.481  0.00  0.00    +0.000 C 
ATOM     13  C   UNL     1      68.153 221.706 337.512  0.00  0.00    +0.000 C 
ATOM     14  C   UNL     1      70.586 221.950 338.607  0.00  0.00    +0.000 C 
ATOM     15  C   UNL     1      68.606 220.345 334.844  0.00  0.00    +0.000 C 
ATOM     16  C   UNL     1      69.331 222.473 338.067  0.00  0.00    +0.000 C 
ATOM     17  C   UNL     1      64.312 215.320 335.117  0.00  0.00    +0.000 C 
ATOM     18  C   UNL     1      69.485 218.382 337.617  0.00  0.00    +0.000 C 
ATOM     19  C   UNL     1      67.246 217.261 333.477  0.00  0.00    +0.000 C 
ATOM     20  C   UNL     1      65.573 214.930 335.603  0.00  0.00    +0.000 C 
ATOM     21  C   UNL     1      66.771 219.840 338.453  0.00  0.00    +0.000 C 
ATOM     22  C   UNL     1      70.657 219.809 340.117  0.00  0.00    +0.000 C 
ATOM     23  C   UNL     1      70.949 222.420 339.971  0.00  0.00    +0.000 C 
ATOM     24  C   UNL     1      71.109 220.173 341.512  0.00  0.00    +0.000 C 
ATOM     25  C   UNL     1      63.203 217.003 333.606  0.00  0.00    +0.000 C 
ATOM     26  C   UNL     1      71.211 221.651 341.293  0.00  0.00    +0.000 C 
ATOM     27  C   UNL     1      70.032 219.822 342.555  0.00  0.00    +0.000 C 
ATOM     28  C   UNL     1      72.474 219.545 341.845  0.00  0.00    +0.000 C 
ENDROOT
BRANCH  17  29
ATOM     29  O   UNL     1      63.488 214.361 334.552  0.00  0.00    +0.000 OA
ATOM     30  H   UNL     1      63.823 213.460 334.738  0.00  0.00    +0.000 HD
ENDBRANCH  17  29
BRANCH  14  32
ATOM     31  O   UNL     1      72.860 221.537 337.755  0.00  0.00    +0.000 OA
ATOM     32  C   UNL     1      71.773 222.088 337.645  0.00  0.00    +0.000 C 
BRANCH  32  33
ATOM     33  O   UNL     1      71.572 222.962 336.634  0.00  0.00    +0.000 OA
ATOM     34  H   UNL     1      71.564 223.846 337.058  0.00  0.00    +0.000 HD
ENDBRANCH  32  33
ENDBRANCH  14  32
BRANCH   9  35
ATOM     35  C   UNL     1      63.191 217.230 336.092  0.00  0.00    +0.000 C 
BRANCH  35  36
ATOM     36  O   UNL     1      62.429 217.591 337.129  0.00  0.00    +0.000 OA
ATOM     37  H   UNL     1      62.928 217.542 337.965  0.00  0.00    +0.000 HD
ENDBRANCH  35  36
ENDBRANCH   9  35
TORSDOF 5
ENDMDL
MODEL 2
REMARK VINA RESULT:      -6.0      2.066      8.074
REMARK  Name = 73299_Hederagenin.pdbqt.pdb
REMARK  5 active torsions:
REMARK  status: ('A' for Active; 'I' for Inactive)
REMARK    1  A    between atoms: C_9  and  C_35
REMARK    2  A    between atoms: C_14  and  C_32
REMARK    3  A    between atoms: C_17  and  O_29
REMARK    4  A    between atoms: C_32  and  O_33
REMARK    5  A    between atoms: C_35  and  O_36
REMARK                            x       y       z     vdW  Elec       q    Type
REMARK                         _______ _______ _______ _____ _____    ______ ____
ROOT
ATOM      1  C   UNL     1      68.972 220.510 336.277  0.00  0.00    +0.000 C 
ATOM      2  C   UNL     1      69.055 221.378 337.602  0.00  0.00    +0.000 C 
ATOM      3  C   UNL     1      70.054 222.523 337.800  0.00  0.00    +0.000 C 
ATOM      4  C   UNL     1      68.722 218.904 336.597  0.00  0.00    +0.000 C 
ATOM      5  C   UNL     1      71.447 222.372 337.121  0.00  0.00    +0.000 C 
ATOM      6  C   UNL     1      70.253 220.721 335.594  0.00  0.00    +0.000 C 
ATOM      7  C   UNL     1      71.429 221.569 335.947  0.00  0.00    +0.000 C 
ATOM      8  C   UNL     1      67.509 218.671 337.652  0.00  0.00    +0.000 C 
ATOM      9  C   UNL     1      72.761 222.807 337.792  0.00  0.00    +0.000 C 
ATOM     10  C   UNL     1      66.484 217.610 337.539  0.00  0.00    +0.000 C 
ATOM     11  C   UNL     1      68.152 220.914 338.611  0.00  0.00    +0.000 C 
ATOM     12  C   UNL     1      70.341 222.688 339.221  0.00  0.00    +0.000 C 
ATOM     13  C   UNL     1      68.305 218.127 335.415  0.00  0.00    +0.000 C 
ATOM     14  C   UNL     1      65.968 217.006 336.093  0.00  0.00    +0.000 C 
ATOM     15  C   UNL     1      67.792 221.113 335.411  0.00  0.00    +0.000 C 
ATOM     16  C   UNL     1      67.093 217.253 335.191  0.00  0.00    +0.000 C 
ATOM     17  C   UNL     1      72.697 223.355 339.243  0.00  0.00    +0.000 C 
ATOM     18  C   UNL     1      67.421 219.603 338.557  0.00  0.00    +0.000 C 
ATOM     19  C   UNL     1      69.406 223.814 337.238  0.00  0.00    +0.000 C 
ATOM     20  C   UNL     1      71.545 223.092 340.005  0.00  0.00    +0.000 C 
ATOM     21  C   UNL     1      69.991 218.219 337.265  0.00  0.00    +0.000 C 
ATOM     22  C   UNL     1      66.305 216.704 338.675  0.00  0.00    +0.000 C 
ATOM     23  C   UNL     1      65.672 215.577 336.383  0.00  0.00    +0.000 C 
ATOM     24  C   UNL     1      65.937 215.297 339.084  0.00  0.00    +0.000 C 
ATOM     25  C   UNL     1      73.443 223.896 336.899  0.00  0.00    +0.000 C 
ATOM     26  C   UNL     1      65.629 214.780 337.712  0.00  0.00    +0.000 C 
ATOM     27  C   UNL     1      67.139 214.569 339.714  0.00  0.00    +0.000 C 
ATOM     28  C   UNL     1      64.698 215.281 339.997  0.00  0.00    +0.000 C 
ENDROOT
BRANCH  17  29
ATOM     29  O   UNL     1      73.582 224.324 339.683  0.00  0.00    +0.000 OA
ATOM     30  H   UNL     1      74.419 224.289 339.173  0.00  0.00    +0.000 HD
ENDBRANCH  17  29
BRANCH  14  32
ATOM     31  O   UNL     1      64.366 218.096 334.572  0.00  0.00    +0.000 OA
ATOM     32  C   UNL     1      64.693 217.764 335.704  0.00  0.00    +0.000 C 
BRANCH  32  33
ATOM     33  O   UNL     1      63.924 218.134 336.751  0.00  0.00    +0.000 OA
ATOM     34  H   UNL     1      64.336 217.710 337.534  0.00  0.00    +0.000 HD
ENDBRANCH  32  33
ENDBRANCH  14  32
BRANCH   9  35
ATOM     35  C   UNL     1      73.649 221.605 337.869  0.00  0.00    +0.000 C 
BRANCH  35  36
ATOM     36  O   UNL     1      74.445 220.533 337.924  0.00  0.00    +0.000 OA
ATOM     37  H   UNL     1      75.054 220.509 337.162  0.00  0.00    +0.000 HD
ENDBRANCH  35  36
ENDBRANCH   9  35
TORSDOF 5
ENDMDL
MODEL 3
REMARK VINA RESULT:      -6.0      2.197      8.442
REMARK  Name = 73299_Hederagenin.pdbqt.pdb
REMARK  5 active torsions:
REMARK  status: ('A' for Active; 'I' for Inactive)
REMARK    1  A    between atoms: C_9  and  C_35
REMARK    2  A    between atoms: C_14  and  C_32
REMARK    3  A    between atoms: C_17  and  O_29
REMARK    4  A    between atoms: C_32  and  O_33
REMARK    5  A    between atoms: C_35  and  O_36
REMARK                            x       y       z     vdW  Elec       q    Type
REMARK                         _______ _______ _______ _____ _____    ______ ____
ROOT
ATOM      1  C   UNL     1      70.198 221.365 337.235  0.00  0.00    +0.000 C 
ATOM      2  C   UNL     1      70.067 221.235 338.810  0.00  0.00    +0.000 C 
ATOM      3  C   UNL     1      71.048 221.881 339.794  0.00  0.00    +0.000 C 
ATOM      4  C   UNL     1      69.849 219.945 336.459  0.00  0.00    +0.000 C 
ATOM      5  C   UNL     1      72.534 221.989 339.345  0.00  0.00    +0.000 C 
ATOM      6  C   UNL     1      71.586 221.775 336.992  0.00  0.00    +0.000 C 
ATOM      7  C   UNL     1      72.704 222.071 337.935  0.00  0.00    +0.000 C 
ATOM      8  C   UNL     1      68.461 219.283 336.984  0.00  0.00    +0.000 C 
ATOM      9  C   UNL     1      73.719 221.751 340.297  0.00  0.00    +0.000 C 
ATOM     10  C   UNL     1      67.443 218.654 336.115  0.00  0.00    +0.000 C 
ATOM     11  C   UNL     1      68.987 220.380 339.195  0.00  0.00    +0.000 C 
ATOM     12  C   UNL     1      71.081 221.114 341.035  0.00  0.00    +0.000 C 
ATOM     13  C   UNL     1      69.627 220.105 335.009  0.00  0.00    +0.000 C 
ATOM     14  C   UNL     1      67.176 219.124 334.555  0.00  0.00    +0.000 C 
ATOM     15  C   UNL     1      69.209 222.519 336.791  0.00  0.00    +0.000 C 
ATOM     16  C   UNL     1      68.451 219.714 334.146  0.00  0.00    +0.000 C 
ATOM     17  C   UNL     1      73.413 221.312 341.753  0.00  0.00    +0.000 C 
ATOM     18  C   UNL     1      68.240 219.479 338.252  0.00  0.00    +0.000 C 
ATOM     19  C   UNL     1      70.547 223.321 340.077  0.00  0.00    +0.000 C 
ATOM     20  C   UNL     1      72.137 220.797 342.041  0.00  0.00    +0.000 C 
ATOM     21  C   UNL     1      70.959 218.834 336.709  0.00  0.00    +0.000 C 
ATOM     22  C   UNL     1      67.038 217.280 336.414  0.00  0.00    +0.000 C 
ATOM     23  C   UNL     1      66.793 217.866 333.860  0.00  0.00    +0.000 C 
ATOM     24  C   UNL     1      66.563 215.976 335.816  0.00  0.00    +0.000 C 
ATOM     25  C   UNL     1      74.581 223.055 340.361  0.00  0.00    +0.000 C 
ATOM     26  C   UNL     1      66.490 216.441 334.394  0.00  0.00    +0.000 C 
ATOM     27  C   UNL     1      67.612 214.864 336.002  0.00  0.00    +0.000 C 
ATOM     28  C   UNL     1      65.181 215.576 336.362  0.00  0.00    +0.000 C 
ENDROOT
BRANCH  17  29
ATOM     29  O   UNL     1      74.234 221.689 342.803  0.00  0.00    +0.000 OA
ATOM     30  H   UNL     1      74.099 222.633 343.029  0.00  0.00    +0.000 HD
ENDBRANCH  17  29
BRANCH  14  32
ATOM     31  O   UNL     1      65.097 220.158 335.377  0.00  0.00    +0.000 OA
ATOM     32  C   UNL     1      66.013 220.123 334.565  0.00  0.00    +0.000 C 
BRANCH  32  33
ATOM     33  O   UNL     1      66.007 220.982 333.522  0.00  0.00    +0.000 OA
ATOM     34  H   UNL     1      65.146 221.450 333.581  0.00  0.00    +0.000 HD
ENDBRANCH  32  33
ENDBRANCH  14  32
BRANCH   9  35
ATOM     35  C   UNL     1      74.545 220.642 339.722  0.00  0.00    +0.000 C 
BRANCH  35  36
ATOM     36  O   UNL     1      75.272 219.652 339.197  0.00  0.00    +0.000 OA
ATOM     37  H   UNL     1      75.224 218.850 339.750  0.00  0.00    +0.000 HD
ENDBRANCH  35  36
ENDBRANCH   9  35
TORSDOF 5
ENDMDL
MODEL 4
REMARK VINA RESULT:      -5.9      2.401      8.872
REMARK  Name = 73299_Hederagenin.pdbqt.pdb
REMARK  5 active torsions:
REMARK  status: ('A' for Active; 'I' for Inactive)
REMARK    1  A    between atoms: C_9  and  C_35
REMARK    2  A    between atoms: C_14  and  C_32
REMARK    3  A    between atoms: C_17  and  O_29
REMARK    4  A    between atoms: C_32  and  O_33
REMARK    5  A    between atoms: C_35  and  O_36
REMARK                            x       y       z     vdW  Elec       q    Type
REMARK                         _______ _______ _______ _____ _____    ______ ____
ROOT
ATOM      1  C   UNL     1      70.229 220.872 339.214  0.00  0.00    +0.000 C 
ATOM      2  C   UNL     1      71.699 220.312 339.010  0.00  0.00    +0.000 C 
ATOM      3  C   UNL     1      72.932 220.906 339.699  0.00  0.00    +0.000 C 
ATOM      4  C   UNL     1      69.366 220.893 337.801  0.00  0.00    +0.000 C 
ATOM      5  C   UNL     1      72.930 222.442 339.952  0.00  0.00    +0.000 C 
ATOM      6  C   UNL     1      70.400 222.227 339.751  0.00  0.00    +0.000 C 
ATOM      7  C   UNL     1      71.628 222.997 340.106  0.00  0.00    +0.000 C 
ATOM      8  C   UNL     1      69.462 219.482 337.002  0.00  0.00    +0.000 C 
ATOM      9  C   UNL     1      74.178 223.324 339.779  0.00  0.00    +0.000 C 
ATOM     10  C   UNL     1      68.329 218.817 336.323  0.00  0.00    +0.000 C 
ATOM     11  C   UNL     1      71.746 219.252 338.051  0.00  0.00    +0.000 C 
ATOM     12  C   UNL     1      74.119 220.657 338.888  0.00  0.00    +0.000 C 
ATOM     13  C   UNL     1      67.917 221.079 338.000  0.00  0.00    +0.000 C 
ATOM     14  C   UNL     1      66.765 218.962 336.830  0.00  0.00    +0.000 C 
ATOM     15  C   UNL     1      69.536 219.946 340.296  0.00  0.00    +0.000 C 
ATOM     16  C   UNL     1      66.747 220.239 337.544  0.00  0.00    +0.000 C 
ATOM     17  C   UNL     1      75.479 222.659 339.258  0.00  0.00    +0.000 C 
ATOM     18  C   UNL     1      70.616 218.892 337.128  0.00  0.00    +0.000 C 
ATOM     19  C   UNL     1      73.079 220.212 341.078  0.00  0.00    +0.000 C 
ATOM     20  C   UNL     1      75.381 221.408 338.623  0.00  0.00    +0.000 C 
ATOM     21  C   UNL     1      69.909 221.985 336.781  0.00  0.00    +0.000 C 
ATOM     22  C   UNL     1      68.480 218.475 334.908  0.00  0.00    +0.000 C 
ATOM     23  C   UNL     1      65.972 218.912 335.572  0.00  0.00    +0.000 C 
ATOM     24  C   UNL     1      67.753 218.315 333.593  0.00  0.00    +0.000 C 
ATOM     25  C   UNL     1      74.504 224.005 341.149  0.00  0.00    +0.000 C 
ATOM     26  C   UNL     1      66.376 218.606 334.107  0.00  0.00    +0.000 C 
ATOM     27  C   UNL     1      68.217 219.368 332.570  0.00  0.00    +0.000 C 
ATOM     28  C   UNL     1      67.875 216.879 333.054  0.00  0.00    +0.000 C 
ENDROOT
BRANCH  17  29
ATOM     29  O   UNL     1      76.725 223.108 339.662  0.00  0.00    +0.000 OA
ATOM     30  H   UNL     1      76.957 222.746 340.543  0.00  0.00    +0.000 HD
ENDBRANCH  17  29
BRANCH  14  32
ATOM     31  O   UNL     1      66.210 216.618 337.343  0.00  0.00    +0.000 OA
ATOM     32  C   UNL     1      66.454 217.755 337.724  0.00  0.00    +0.000 C 
BRANCH  32  33
ATOM     33  O   UNL     1      66.390 218.041 339.043  0.00  0.00    +0.000 OA
ATOM     34  H   UNL     1      67.084 218.719 339.192  0.00  0.00    +0.000 HD
ENDBRANCH  32  33
ENDBRANCH  14  32
BRANCH   9  35
ATOM     35  C   UNL     1      73.849 224.380 338.770  0.00  0.00    +0.000 C 
BRANCH  35  36
ATOM     36  O   UNL     1      73.563 225.314 337.859  0.00  0.00    +0.000 OA
ATOM     37  H   UNL     1      72.955 224.968 337.180  0.00  0.00    +0.000 HD
ENDBRANCH  35  36
ENDBRANCH   9  35
TORSDOF 5
ENDMDL
MODEL 5
REMARK VINA RESULT:      -5.9      3.370      9.244
REMARK  Name = 73299_Hederagenin.pdbqt.pdb
REMARK  5 active torsions:
REMARK  status: ('A' for Active; 'I' for Inactive)
REMARK    1  A    between atoms: C_9  and  C_35
REMARK    2  A    between atoms: C_14  and  C_32
REMARK    3  A    between atoms: C_17  and  O_29
REMARK    4  A    between atoms: C_32  and  O_33
REMARK    5  A    between atoms: C_35  and  O_36
REMARK                            x       y       z     vdW  Elec       q    Type
REMARK                         _______ _______ _______ _____ _____    ______ ____
ROOT
ATOM      1  C   UNL     1      73.007 222.080 339.208  0.00  0.00    +0.000 C 
ATOM      2  C   UNL     1      73.732 222.023 337.798  0.00  0.00    +0.000 C 
ATOM      3  C   UNL     1      74.855 222.981 337.388  0.00  0.00    +0.000 C 
ATOM      4  C   UNL     1      71.375 221.826 339.082  0.00  0.00    +0.000 C 
ATOM      5  C   UNL     1      74.785 224.433 337.941  0.00  0.00    +0.000 C 
ATOM      6  C   UNL     1      73.296 223.416 339.740  0.00  0.00    +0.000 C 
ATOM      7  C   UNL     1      74.110 224.540 339.190  0.00  0.00    +0.000 C 
ATOM      8  C   UNL     1      71.024 220.523 338.177  0.00  0.00    +0.000 C 
ATOM      9  C   UNL     1      75.156 225.671 337.106  0.00  0.00    +0.000 C 
ATOM     10  C   UNL     1      69.975 219.531 338.498  0.00  0.00    +0.000 C 
ATOM     11  C   UNL     1      73.159 221.037 336.934  0.00  0.00    +0.000 C 
ATOM     12  C   UNL     1      74.873 223.128 335.936  0.00  0.00    +0.000 C 
ATOM     13  C   UNL     1      70.724 221.536 340.373  0.00  0.00    +0.000 C 
ATOM     14  C   UNL     1      69.523 219.164 340.042  0.00  0.00    +0.000 C 
ATOM     15  C   UNL     1      73.690 220.978 340.115  0.00  0.00    +0.000 C 
ATOM     16  C   UNL     1      69.870 220.365 340.801  0.00  0.00    +0.000 C 
ATOM     17  C   UNL     1      75.548 225.461 335.619  0.00  0.00    +0.000 C 
ATOM     18  C   UNL     1      71.856 220.335 337.193  0.00  0.00    +0.000 C 
ATOM     19  C   UNL     1      76.194 222.367 337.872  0.00  0.00    +0.000 C 
ATOM     20  C   UNL     1      75.199 224.246 335.003  0.00  0.00    +0.000 C 
ATOM     21  C   UNL     1      70.631 223.038 338.370  0.00  0.00    +0.000 C 
ATOM     22  C   UNL     1      68.954 219.260 337.485  0.00  0.00    +0.000 C 
ATOM     23  C   UNL     1      68.070 218.865 339.932  0.00  0.00    +0.000 C 
ATOM     24  C   UNL     1      67.509 218.878 337.260  0.00  0.00    +0.000 C 
ATOM     25  C   UNL     1      76.336 226.417 337.812  0.00  0.00    +0.000 C 
ATOM     26  C   UNL     1      67.138 218.709 338.702  0.00  0.00    +0.000 C 
ATOM     27  C   UNL     1      66.727 220.026 336.598  0.00  0.00    +0.000 C 
ATOM     28  C   UNL     1      67.390 217.558 336.477  0.00  0.00    +0.000 C 
ENDROOT
BRANCH  17  29
ATOM     29  O   UNL     1      76.471 226.285 334.998  0.00  0.00    +0.000 OA
ATOM     30  H   UNL     1      77.385 225.978 335.172  0.00  0.00    +0.000 HD
ENDBRANCH  17  29
BRANCH  14  32
ATOM     31  O   UNL     1      69.859 216.788 340.599  0.00  0.00    +0.000 OA
ATOM     32  C   UNL     1      70.309 217.919 340.470  0.00  0.00    +0.000 C 
BRANCH  32  33
ATOM     33  O   UNL     1      71.601 218.158 340.789  0.00  0.00    +0.000 OA
ATOM     34  H   UNL     1      71.576 218.928 341.397  0.00  0.00    +0.000 HD
ENDBRANCH  32  33
ENDBRANCH  14  32
BRANCH   9  35
ATOM     35  C   UNL     1      73.957 226.567 337.070  0.00  0.00    +0.000 C 
BRANCH  35  36
ATOM     36  O   UNL     1      72.893 227.373 337.024  0.00  0.00    +0.000 OA
ATOM     37  H   UNL     1      72.175 227.038 337.593  0.00  0.00    +0.000 HD
ENDBRANCH  35  36
ENDBRANCH   9  35
TORSDOF 5
ENDMDL
MODEL 6
REMARK VINA RESULT:      -5.9      3.930      9.828
REMARK  Name = 73299_Hederagenin.pdbqt.pdb
REMARK  5 active torsions:
REMARK  status: ('A' for Active; 'I' for Inactive)
REMARK    1  A    between atoms: C_9  and  C_35
REMARK    2  A    between atoms: C_14  and  C_32
REMARK    3  A    between atoms: C_17  and  O_29
REMARK    4  A    between atoms: C_32  and  O_33
REMARK    5  A    between atoms: C_35  and  O_36
REMARK                            x       y       z     vdW  Elec       q    Type
REMARK                         _______ _______ _______ _____ _____    ______ ____
ROOT
ATOM      1  C   UNL     1      73.784 222.076 340.094  0.00  0.00    +0.000 C 
ATOM      2  C   UNL     1      73.577 221.577 341.585  0.00  0.00    +0.000 C 
ATOM      3  C   UNL     1      74.729 221.378 342.577  0.00  0.00    +0.000 C 
ATOM      4  C   UNL     1      72.808 221.272 339.025  0.00  0.00    +0.000 C 
ATOM      5  C   UNL     1      76.091 220.902 341.993  0.00  0.00    +0.000 C 
ATOM      6  C   UNL     1      75.202 221.839 339.799  0.00  0.00    +0.000 C 
ATOM      7  C   UNL     1      76.306 221.296 340.643  0.00  0.00    +0.000 C 
ATOM      8  C   UNL     1      71.264 221.216 339.526  0.00  0.00    +0.000 C 
ATOM      9  C   UNL     1      76.996 219.878 342.698  0.00  0.00    +0.000 C 
ATOM     10  C   UNL     1      70.086 221.415 338.654  0.00  0.00    +0.000 C 
ATOM     11  C   UNL     1      72.211 221.256 341.864  0.00  0.00    +0.000 C 
ATOM     12  C   UNL     1      74.363 220.365 343.562  0.00  0.00    +0.000 C 
ATOM     13  C   UNL     1      72.719 221.924 337.705  0.00  0.00    +0.000 C 
ATOM     14  C   UNL     1      70.108 222.378 337.314  0.00  0.00    +0.000 C 
ATOM     15  C   UNL     1      73.483 223.630 340.090  0.00  0.00    +0.000 C 
ATOM     16  C   UNL     1      71.517 222.394 336.920  0.00  0.00    +0.000 C 
ATOM     17  C   UNL     1      76.488 219.236 344.018  0.00  0.00    +0.000 C 
ATOM     18  C   UNL     1      71.140 221.121 340.818  0.00  0.00    +0.000 C 
ATOM     19  C   UNL     1      74.979 222.735 343.283  0.00  0.00    +0.000 C 
ATOM     20  C   UNL     1      75.116 219.319 344.315  0.00  0.00    +0.000 C 
ATOM     21  C   UNL     1      73.240 219.753 338.841  0.00  0.00    +0.000 C 
ATOM     22  C   UNL     1      69.063 220.368 338.633  0.00  0.00    +0.000 C 
ATOM     23  C   UNL     1      69.179 221.703 336.368  0.00  0.00    +0.000 C 
ATOM     24  C   UNL     1      68.029 219.670 337.779  0.00  0.00    +0.000 C 
ATOM     25  C   UNL     1      78.378 220.548 342.993  0.00  0.00    +0.000 C 
ATOM     26  C   UNL     1      68.217 220.501 336.547  0.00  0.00    +0.000 C 
ATOM     27  C   UNL     1      68.409 218.197 337.541  0.00  0.00    +0.000 C 
ATOM     28  C   UNL     1      66.615 219.824 338.367  0.00  0.00    +0.000 C 
ENDROOT
BRANCH  17  29
ATOM     29  O   UNL     1      77.368 218.869 345.021  0.00  0.00    +0.000 OA
ATOM     30  H   UNL     1      78.016 218.211 344.692  0.00  0.00    +0.000 HD
ENDBRANCH  17  29
BRANCH  14  32
ATOM     31  O   UNL     1      69.223 224.650 336.967  0.00  0.00    +0.000 OA
ATOM     32  C   UNL     1      69.571 223.754 337.725  0.00  0.00    +0.000 C 
BRANCH  32  33
ATOM     33  O   UNL     1      69.564 223.974 339.058  0.00  0.00    +0.000 OA
ATOM     34  H   UNL     1      69.552 223.081 339.465  0.00  0.00    +0.000 HD
ENDBRANCH  32  33
ENDBRANCH  14  32
BRANCH   9  35
ATOM     35  C   UNL     1      77.195 218.729 341.759  0.00  0.00    +0.000 C 
BRANCH  35  36
ATOM     36  O   UNL     1      77.367 217.712 340.910  0.00  0.00    +0.000 OA
ATOM     37  H   UNL     1      78.081 217.903 340.274  0.00  0.00    +0.000 HD
ENDBRANCH  35  36
ENDBRANCH   9  35
TORSDOF 5
ENDMDL
MODEL 7
REMARK VINA RESULT:      -5.7     32.262     34.334
REMARK  Name = 73299_Hederagenin.pdbqt.pdb
REMARK  5 active torsions:
REMARK  status: ('A' for Active; 'I' for Inactive)
REMARK    1  A    between atoms: C_9  and  C_35
REMARK    2  A    between atoms: C_14  and  C_32
REMARK    3  A    between atoms: C_17  and  O_29
REMARK    4  A    between atoms: C_32  and  O_33
REMARK    5  A    between atoms: C_35  and  O_36
REMARK                            x       y       z     vdW  Elec       q    Type
REMARK                         _______ _______ _______ _____ _____    ______ ____
ROOT
ATOM      1  C   UNL     1      53.499 247.444 323.214  0.00  0.00    +0.000 C 
ATOM      2  C   UNL     1      53.931 245.960 323.566  0.00  0.00    +0.000 C 
ATOM      3  C   UNL     1      53.118 245.039 324.482  0.00  0.00    +0.000 C 
ATOM      4  C   UNL     1      54.788 248.483 323.192  0.00  0.00    +0.000 C 
ATOM      5  C   UNL     1      52.348 245.709 325.657  0.00  0.00    +0.000 C 
ATOM      6  C   UNL     1      52.530 247.823 324.249  0.00  0.00    +0.000 C 
ATOM      7  C   UNL     1      51.970 247.057 325.400  0.00  0.00    +0.000 C 
ATOM      8  C   UNL     1      56.031 247.900 322.322  0.00  0.00    +0.000 C 
ATOM      9  C   UNL     1      52.242 245.085 327.058  0.00  0.00    +0.000 C 
ATOM     10  C   UNL     1      56.862 248.701 321.397  0.00  0.00    +0.000 C 
ATOM     11  C   UNL     1      55.201 245.617 323.002  0.00  0.00    +0.000 C 
ATOM     12  C   UNL     1      54.003 244.065 325.115  0.00  0.00    +0.000 C 
ATOM     13  C   UNL     1      54.492 249.776 322.548  0.00  0.00    +0.000 C 
ATOM     14  C   UNL     1      56.287 250.011 320.574  0.00  0.00    +0.000 C 
ATOM     15  C   UNL     1      52.785 247.386 321.802  0.00  0.00    +0.000 C 
ATOM     16  C   UNL     1      55.174 250.480 321.398  0.00  0.00    +0.000 C 
ATOM     17  C   UNL     1      53.004 243.760 327.330  0.00  0.00    +0.000 C 
ATOM     18  C   UNL     1      56.155 246.607 322.396  0.00  0.00    +0.000 C 
ATOM     19  C   UNL     1      52.072 244.307 323.602  0.00  0.00    +0.000 C 
ATOM     20  C   UNL     1      54.030 243.386 326.444  0.00  0.00    +0.000 C 
ATOM     21  C   UNL     1      55.382 248.735 324.646  0.00  0.00    +0.000 C 
ATOM     22  C   UNL     1      58.311 248.698 321.598  0.00  0.00    +0.000 C 
ATOM     23  C   UNL     1      57.458 250.925 320.486  0.00  0.00    +0.000 C 
ATOM     24  C   UNL     1      59.577 249.514 321.471  0.00  0.00    +0.000 C 
ATOM     25  C   UNL     1      50.732 244.845 327.389  0.00  0.00    +0.000 C 
ATOM     26  C   UNL     1      58.951 250.730 320.859  0.00  0.00    +0.000 C 
ATOM     27  C   UNL     1      60.185 249.817 322.853  0.00  0.00    +0.000 C 
ATOM     28  C   UNL     1      60.585 248.846 320.519  0.00  0.00    +0.000 C 
ENDROOT
BRANCH  17  29
ATOM     29  O   UNL     1      52.508 242.817 328.215  0.00  0.00    +0.000 OA
ATOM     30  H   UNL     1      52.330 241.969 327.757  0.00  0.00    +0.000 HD
ENDBRANCH  17  29
BRANCH  14  32
ATOM     31  O   UNL     1      54.720 249.249 318.833  0.00  0.00    +0.000 OA
ATOM     32  C   UNL     1      55.859 249.530 319.182  0.00  0.00    +0.000 C 
BRANCH  32  33
ATOM     33  O   UNL     1      56.881 249.353 318.315  0.00  0.00    +0.000 OA
ATOM     34  H   UNL     1      56.583 249.774 317.479  0.00  0.00    +0.000 HD
ENDBRANCH  32  33
ENDBRANCH  14  32
BRANCH   9  35
ATOM     35  C   UNL     1      52.811 246.067 328.034  0.00  0.00    +0.000 C 
BRANCH  35  36
ATOM     36  O   UNL     1      53.319 246.933 328.916  0.00  0.00    +0.000 OA
ATOM     37  H   UNL     1      53.632 247.743 328.472  0.00  0.00    +0.000 HD
ENDBRANCH  35  36
ENDBRANCH   9  35
TORSDOF 5
ENDMDL
MODEL 8
REMARK VINA RESULT:      -5.7      3.930      8.337
REMARK  Name = 73299_Hederagenin.pdbqt.pdb
REMARK  5 active torsions:
REMARK  status: ('A' for Active; 'I' for Inactive)
REMARK    1  A    between atoms: C_9  and  C_35
REMARK    2  A    between atoms: C_14  and  C_32
REMARK    3  A    between atoms: C_17  and  O_29
REMARK    4  A    between atoms: C_32  and  O_33
REMARK    5  A    between atoms: C_35  and  O_36
REMARK                            x       y       z     vdW  Elec       q    Type
REMARK                         _______ _______ _______ _____ _____    ______ ____
ROOT
ATOM      1  C   UNL     1      69.878 219.781 338.958  0.00  0.00    +0.000 C 
ATOM      2  C   UNL     1      70.367 220.975 339.880  0.00  0.00    +0.000 C 
ATOM      3  C   UNL     1      71.023 222.249 339.335  0.00  0.00    +0.000 C 
ATOM      4  C   UNL     1      70.215 218.301 339.621  0.00  0.00    +0.000 C 
ATOM      5  C   UNL     1      71.910 222.100 338.065  0.00  0.00    +0.000 C 
ATOM      6  C   UNL     1      70.580 219.963 337.682  0.00  0.00    +0.000 C 
ATOM      7  C   UNL     1      71.531 221.017 337.223  0.00  0.00    +0.000 C 
ATOM      8  C   UNL     1      69.755 218.206 341.176  0.00  0.00    +0.000 C 
ATOM      9  C   UNL     1      73.231 222.863 337.868  0.00  0.00    +0.000 C 
ATOM     10  C   UNL     1      69.098 217.033 341.791  0.00  0.00    +0.000 C 
ATOM     11  C   UNL     1      70.203 220.687 341.272  0.00  0.00    +0.000 C 
ATOM     12  C   UNL     1      71.903 222.824 340.348  0.00  0.00    +0.000 C 
ATOM     13  C   UNL     1      69.490 217.190 338.977  0.00  0.00    +0.000 C 
ATOM     14  C   UNL     1      68.120 216.003 340.950  0.00  0.00    +0.000 C 
ATOM     15  C   UNL     1      68.321 219.976 338.750  0.00  0.00    +0.000 C 
ATOM     16  C   UNL     1      68.577 216.140 339.567  0.00  0.00    +0.000 C 
ATOM     17  C   UNL     1      73.735 223.766 339.025  0.00  0.00    +0.000 C 
ATOM     18  C   UNL     1      69.883 219.327 341.825  0.00  0.00    +0.000 C 
ATOM     19  C   UNL     1      69.889 223.249 338.991  0.00  0.00    +0.000 C 
ATOM     20  C   UNL     1      73.193 223.572 340.308  0.00  0.00    +0.000 C 
ATOM     21  C   UNL     1      71.774 217.987 339.629  0.00  0.00    +0.000 C 
ATOM     22  C   UNL     1      69.712 216.449 342.984  0.00  0.00    +0.000 C 
ATOM     23  C   UNL     1      68.361 214.678 341.583  0.00  0.00    +0.000 C 
ATOM     24  C   UNL     1      69.944 215.167 343.751  0.00  0.00    +0.000 C 
ATOM     25  C   UNL     1      73.112 223.750 336.585  0.00  0.00    +0.000 C 
ATOM     26  C   UNL     1      69.156 214.268 342.849  0.00  0.00    +0.000 C 
ATOM     27  C   UNL     1      71.438 214.793 343.770  0.00  0.00    +0.000 C 
ATOM     28  C   UNL     1      69.339 215.239 345.164  0.00  0.00    +0.000 C 
ENDROOT
BRANCH  17  29
ATOM     29  O   UNL     1      74.454 224.922 338.771  0.00  0.00    +0.000 OA
ATOM     30  H   UNL     1      75.375 224.711 338.513  0.00  0.00    +0.000 HD
ENDBRANCH  17  29
BRANCH  14  32
ATOM     31  O   UNL     1      65.873 215.979 341.958  0.00  0.00    +0.000 OA
ATOM     32  C   UNL     1      66.672 216.460 341.166  0.00  0.00    +0.000 C 
BRANCH  32  33
ATOM     33  O   UNL     1      66.268 217.444 340.333  0.00  0.00    +0.000 OA
ATOM     34  H   UNL     1      66.251 217.034 339.441  0.00  0.00    +0.000 HD
ENDBRANCH  32  33
ENDBRANCH  14  32
BRANCH   9  35
ATOM     35  C   UNL     1      74.313 221.848 337.667  0.00  0.00    +0.000 C 
BRANCH  35  36
ATOM     36  O   UNL     1      75.277 220.943 337.473  0.00  0.00    +0.000 OA
ATOM     37  H   UNL     1      75.088 220.393 336.690  0.00  0.00    +0.000 HD
ENDBRANCH  35  36
ENDBRANCH   9  35
TORSDOF 5
ENDMDL
MODEL 9
REMARK VINA RESULT:      -5.6      5.025      8.720
REMARK  Name = 73299_Hederagenin.pdbqt.pdb
REMARK  5 active torsions:
REMARK  status: ('A' for Active; 'I' for Inactive)
REMARK    1  A    between atoms: C_9  and  C_35
REMARK    2  A    between atoms: C_14  and  C_32
REMARK    3  A    between atoms: C_17  and  O_29
REMARK    4  A    between atoms: C_32  and  O_33
REMARK    5  A    between atoms: C_35  and  O_36
REMARK                            x       y       z     vdW  Elec       q    Type
REMARK                         _______ _______ _______ _____ _____    ______ ____
ROOT
ATOM      1  C   UNL     1      73.701 223.102 338.870  0.00  0.00    +0.000 C 
ATOM      2  C   UNL     1      72.234 222.634 338.489  0.00  0.00    +0.000 C 
ATOM      3  C   UNL     1      71.222 222.112 339.515  0.00  0.00    +0.000 C 
ATOM      4  C   UNL     1      74.822 222.613 337.754  0.00  0.00    +0.000 C 
ATOM      5  C   UNL     1      71.787 221.311 340.723  0.00  0.00    +0.000 C 
ATOM      6  C   UNL     1      73.968 222.509 340.185  0.00  0.00    +0.000 C 
ATOM      7  C   UNL     1      73.116 221.672 341.080  0.00  0.00    +0.000 C 
ATOM      8  C   UNL     1      74.363 222.950 336.233  0.00  0.00    +0.000 C 
ATOM      9  C   UNL     1      71.096 220.066 341.304  0.00  0.00    +0.000 C 
ATOM     10  C   UNL     1      75.257 223.475 335.178  0.00  0.00    +0.000 C 
ATOM     11  C   UNL     1      72.001 222.675 337.078  0.00  0.00    +0.000 C 
ATOM     12  C   UNL     1      70.282 221.204 338.864  0.00  0.00    +0.000 C 
ATOM     13  C   UNL     1      76.120 223.301 337.884  0.00  0.00    +0.000 C 
ATOM     14  C   UNL     1      76.561 224.436 335.497  0.00  0.00    +0.000 C 
ATOM     15  C   UNL     1      73.658 224.680 338.987  0.00  0.00    +0.000 C 
ATOM     16  C   UNL     1      76.918 224.091 336.873  0.00  0.00    +0.000 C 
ATOM     17  C   UNL     1      69.813 219.545 340.602  0.00  0.00    +0.000 C 
ATOM     18  C   UNL     1      73.078 222.855 336.046  0.00  0.00    +0.000 C 
ATOM     19  C   UNL     1      70.462 223.336 340.087  0.00  0.00    +0.000 C 
ATOM     20  C   UNL     1      69.548 219.977 339.291  0.00  0.00    +0.000 C 
ATOM     21  C   UNL     1      75.049 221.039 337.779  0.00  0.00    +0.000 C 
ATOM     22  C   UNL     1      75.341 222.736 333.918  0.00  0.00    +0.000 C 
ATOM     23  C   UNL     1      77.553 224.055 334.456  0.00  0.00    +0.000 C 
ATOM     24  C   UNL     1      76.244 222.357 332.767  0.00  0.00    +0.000 C 
ATOM     25  C   UNL     1      70.742 220.342 342.803  0.00  0.00    +0.000 C 
ATOM     26  C   UNL     1      77.442 223.143 333.207  0.00  0.00    +0.000 C 
ATOM     27  C   UNL     1      76.525 220.843 332.756  0.00  0.00    +0.000 C 
ATOM     28  C   UNL     1      75.687 222.861 331.424  0.00  0.00    +0.000 C 
ENDROOT
BRANCH  17  29
ATOM     29  O   UNL     1      68.802 218.931 341.321  0.00  0.00    +0.000 OA
ATOM     30  H   UNL     1      69.156 218.197 341.864  0.00  0.00    +0.000 HD
ENDBRANCH  17  29
BRANCH  14  32
ATOM     31  O   UNL     1      75.182 226.436 335.903  0.00  0.00    +0.000 OA
ATOM     32  C   UNL     1      76.115 225.893 335.325  0.00  0.00    +0.000 C 
BRANCH  32  33
ATOM     33  O   UNL     1      76.805 226.580 334.389  0.00  0.00    +0.000 OA
ATOM     34  H   UNL     1      76.243 226.553 333.585  0.00  0.00    +0.000 HD
ENDBRANCH  32  33
ENDBRANCH  14  32
BRANCH   9  35
ATOM     35  C   UNL     1      72.070 218.932 341.228  0.00  0.00    +0.000 C 
BRANCH  35  36
ATOM     36  O   UNL     1      72.948 217.927 341.169  0.00  0.00    +0.000 OA
ATOM     37  H   UNL     1      73.633 218.019 341.856  0.00  0.00    +0.000 HD
ENDBRANCH  35  36
ENDBRANCH   9  35
TORSDOF 5
ENDMDL
