MODEL 1
REMARK VINA RESULT:      -6.6      0.000      0.000
REMARK  Name = 73659_MaslinicAcid.pdbqt.pdb
REMARK  4 active torsions:
REMARK  status: ('A' for Active; 'I' for Inactive)
REMARK    1  A    between atoms: C_14  and  C_35
REMARK    2  A    between atoms: C_17  and  O_30
REMARK    3  A    between atoms: C_19  and  O_32
REMARK    4  A    between atoms: C_35  and  O_36
REMARK                            x       y       z     vdW  Elec       q    Type
REMARK                         _______ _______ _______ _____ _____    ______ ____
ROOT
ATOM      1  C   UNL     1      72.311 219.158 342.260  0.00  0.00    +0.000 C 
ATOM      2  C   UNL     1      71.210 220.156 341.697  0.00  0.00    +0.000 C 
ATOM      3  C   UNL     1      71.106 220.553 340.222  0.00  0.00    +0.000 C 
ATOM      4  C   UNL     1      72.906 219.644 343.726  0.00  0.00    +0.000 C 
ATOM      5  C   UNL     1      72.410 220.626 339.419  0.00  0.00    +0.000 C 
ATOM      6  C   UNL     1      73.363 219.132 341.237  0.00  0.00    +0.000 C 
ATOM      7  C   UNL     1      73.457 219.796 339.903  0.00  0.00    +0.000 C 
ATOM      8  C   UNL     1      71.721 220.022 344.772  0.00  0.00    +0.000 C 
ATOM      9  C   UNL     1      72.558 221.645 338.299  0.00  0.00    +0.000 C 
ATOM     10  C   UNL     1      71.701 219.642 346.201  0.00  0.00    +0.000 C 
ATOM     11  C   UNL     1      70.387 220.693 342.736  0.00  0.00    +0.000 C 
ATOM     12  C   UNL     1      70.549 221.890 340.107  0.00  0.00    +0.000 C 
ATOM     13  C   UNL     1      73.665 218.593 344.428  0.00  0.00    +0.000 C 
ATOM     14  C   UNL     1      72.422 218.274 346.780  0.00  0.00    +0.000 C 
ATOM     15  C   UNL     1      71.623 217.736 342.358  0.00  0.00    +0.000 C 
ATOM     16  C   UNL     1      73.476 217.995 345.804  0.00  0.00    +0.000 C 
ATOM     17  C   UNL     1      71.583 222.849 338.256  0.00  0.00    +0.000 C 
ATOM     18  C   UNL     1      70.183 219.525 339.526  0.00  0.00    +0.000 C 
ATOM     19  C   UNL     1      70.639 223.025 339.307  0.00  0.00    +0.000 C 
ATOM     20  C   UNL     1      70.684 220.569 344.203  0.00  0.00    +0.000 C 
ATOM     21  C   UNL     1      73.791 220.958 343.606  0.00  0.00    +0.000 C 
ATOM     22  C   UNL     1      71.524 220.701 347.193  0.00  0.00    +0.000 C 
ATOM     23  C   UNL     1      72.883 218.657 348.141  0.00  0.00    +0.000 C 
ATOM     24  C   UNL     1      71.864 221.147 348.597  0.00  0.00    +0.000 C 
ATOM     25  C   UNL     1      73.977 222.304 338.411  0.00  0.00    +0.000 C 
ATOM     26  C   UNL     1      72.461 220.918 336.927  0.00  0.00    +0.000 C 
ATOM     27  C   UNL     1      72.637 219.927 348.996  0.00  0.00    +0.000 C 
ATOM     28  C   UNL     1      70.598 221.331 349.453  0.00  0.00    +0.000 C 
ATOM     29  C   UNL     1      72.751 222.406 348.581  0.00  0.00    +0.000 C 
ENDROOT
BRANCH  17  30
ATOM     30  O   UNL     1      71.553 223.780 337.221  0.00  0.00    +0.000 OA
ATOM     31  H   UNL     1      71.324 223.354 336.369  0.00  0.00    +0.000 HD
ENDBRANCH  17  30
BRANCH  19  32
ATOM     32  O   UNL     1      69.651 223.958 339.209  0.00  0.00    +0.000 OA
ATOM     33  H   UNL     1      69.274 224.163 340.087  0.00  0.00    +0.000 HD
ENDBRANCH  19  32
BRANCH  14  35
ATOM     34  O   UNL     1      71.110 216.346 345.985  0.00  0.00    +0.000 OA
ATOM     35  C   UNL     1      71.352 217.178 346.848  0.00  0.00    +0.000 C 
BRANCH  35  36
ATOM     36  O   UNL     1      70.584 217.221 347.961  0.00  0.00    +0.000 OA
ATOM     37  H   UNL     1      70.512 218.175 348.184  0.00  0.00    +0.000 HD
ENDBRANCH  35  36
ENDBRANCH  14  35
TORSDOF 4
ENDMDL
MODEL 2
REMARK VINA RESULT:      -6.5      4.892      7.387
REMARK  Name = 73659_MaslinicAcid.pdbqt.pdb
REMARK  4 active torsions:
REMARK  status: ('A' for Active; 'I' for Inactive)
REMARK    1  A    between atoms: C_14  and  C_35
REMARK    2  A    between atoms: C_17  and  O_30
REMARK    3  A    between atoms: C_19  and  O_32
REMARK    4  A    between atoms: C_35  and  O_36
REMARK                            x       y       z     vdW  Elec       q    Type
REMARK                         _______ _______ _______ _____ _____    ______ ____
ROOT
ATOM      1  C   UNL     1      72.962 222.144 339.366  0.00  0.00    +0.000 C 
ATOM      2  C   UNL     1      73.631 222.240 337.928  0.00  0.00    +0.000 C 
ATOM      3  C   UNL     1      74.724 223.251 337.572  0.00  0.00    +0.000 C 
ATOM      4  C   UNL     1      71.333 221.866 339.281  0.00  0.00    +0.000 C 
ATOM      5  C   UNL     1      74.680 224.613 338.275  0.00  0.00    +0.000 C 
ATOM      6  C   UNL     1      73.252 223.430 340.010  0.00  0.00    +0.000 C 
ATOM      7  C   UNL     1      74.044 224.608 339.546  0.00  0.00    +0.000 C 
ATOM      8  C   UNL     1      70.972 220.645 338.272  0.00  0.00    +0.000 C 
ATOM      9  C   UNL     1      75.154 225.861 337.547  0.00  0.00    +0.000 C 
ATOM     10  C   UNL     1      69.973 219.589 338.545  0.00  0.00    +0.000 C 
ATOM     11  C   UNL     1      73.040 221.329 336.996  0.00  0.00    +0.000 C 
ATOM     12  C   UNL     1      74.648 223.585 336.159  0.00  0.00    +0.000 C 
ATOM     13  C   UNL     1      70.743 221.441 340.564  0.00  0.00    +0.000 C 
ATOM     14  C   UNL     1      69.607 219.066 340.068  0.00  0.00    +0.000 C 
ATOM     15  C   UNL     1      73.708 220.979 340.134  0.00  0.00    +0.000 C 
ATOM     16  C   UNL     1      69.944 220.207 340.919  0.00  0.00    +0.000 C 
ATOM     17  C   UNL     1      75.277 225.820 336.003  0.00  0.00    +0.000 C 
ATOM     18  C   UNL     1      76.088 222.599 337.896  0.00  0.00    +0.000 C 
ATOM     19  C   UNL     1      74.859 224.655 335.297  0.00  0.00    +0.000 C 
ATOM     20  C   UNL     1      71.765 220.575 337.240  0.00  0.00    +0.000 C 
ATOM     21  C   UNL     1      70.540 223.121 338.715  0.00  0.00    +0.000 C 
ATOM     22  C   UNL     1      68.918 219.367 337.557  0.00  0.00    +0.000 C 
ATOM     23  C   UNL     1      68.163 218.718 339.992  0.00  0.00    +0.000 C 
ATOM     24  C   UNL     1      67.480 218.944 337.360  0.00  0.00    +0.000 C 
ATOM     25  C   UNL     1      74.128 227.016 337.819  0.00  0.00    +0.000 C 
ATOM     26  C   UNL     1      76.538 226.291 338.112  0.00  0.00    +0.000 C 
ATOM     27  C   UNL     1      67.182 218.632 338.795  0.00  0.00    +0.000 C 
ATOM     28  C   UNL     1      67.378 217.694 336.466  0.00  0.00    +0.000 C 
ATOM     29  C   UNL     1      66.623 220.112 336.838  0.00  0.00    +0.000 C 
ENDROOT
BRANCH  17  30
ATOM     30  O   UNL     1      75.804 226.861 335.242  0.00  0.00    +0.000 OA
ATOM     31  H   UNL     1      76.639 226.592 334.806  0.00  0.00    +0.000 HD
ENDBRANCH  17  30
BRANCH  19  32
ATOM     32  O   UNL     1      75.123 224.513 333.968  0.00  0.00    +0.000 OA
ATOM     33  H   UNL     1      75.004 223.586 333.684  0.00  0.00    +0.000 HD
ENDBRANCH  19  32
BRANCH  14  35
ATOM     34  O   UNL     1      71.682 217.764 340.330  0.00  0.00    +0.000 OA
ATOM     35  C   UNL     1      70.460 217.823 340.349  0.00  0.00    +0.000 C 
BRANCH  35  36
ATOM     36  O   UNL     1      69.745 216.697 340.569  0.00  0.00    +0.000 OA
ATOM     37  H   UNL     1      70.059 216.059 339.891  0.00  0.00    +0.000 HD
ENDBRANCH  35  36
ENDBRANCH  14  35
TORSDOF 4
ENDMDL
MODEL 3
REMARK VINA RESULT:      -6.2     33.824     36.294
REMARK  Name = 73659_MaslinicAcid.pdbqt.pdb
REMARK  4 active torsions:
REMARK  status: ('A' for Active; 'I' for Inactive)
REMARK    1  A    between atoms: C_14  and  C_35
REMARK    2  A    between atoms: C_17  and  O_30
REMARK    3  A    between atoms: C_19  and  O_32
REMARK    4  A    between atoms: C_35  and  O_36
REMARK                            x       y       z     vdW  Elec       q    Type
REMARK                         _______ _______ _______ _____ _____    ______ ____
ROOT
ATOM      1  C   UNL     1      48.122 235.920 322.710  0.00  0.00    +0.000 C 
ATOM      2  C   UNL     1      47.044 234.867 323.213  0.00  0.00    +0.000 C 
ATOM      3  C   UNL     1      46.829 233.500 322.557  0.00  0.00    +0.000 C 
ATOM      4  C   UNL     1      47.551 237.473 322.760  0.00  0.00    +0.000 C 
ATOM      5  C   UNL     1      47.066 233.400 321.045  0.00  0.00    +0.000 C 
ATOM      6  C   UNL     1      48.444 235.512 321.338  0.00  0.00    +0.000 C 
ATOM      7  C   UNL     1      47.982 234.351 320.521  0.00  0.00    +0.000 C 
ATOM      8  C   UNL     1      46.859 237.825 324.187  0.00  0.00    +0.000 C 
ATOM      9  C   UNL     1      46.236 232.440 320.207  0.00  0.00    +0.000 C 
ATOM     10  C   UNL     1      47.045 239.093 324.927  0.00  0.00    +0.000 C 
ATOM     11  C   UNL     1      46.254 235.376 324.292  0.00  0.00    +0.000 C 
ATOM     12  C   UNL     1      45.446 233.084 322.722  0.00  0.00    +0.000 C 
ATOM     13  C   UNL     1      48.609 238.491 322.627  0.00  0.00    +0.000 C 
ATOM     14  C   UNL     1      48.423 239.996 324.835  0.00  0.00    +0.000 C 
ATOM     15  C   UNL     1      49.393 235.742 323.636  0.00  0.00    +0.000 C 
ATOM     16  C   UNL     1      48.988 239.640 323.533  0.00  0.00    +0.000 C 
ATOM     17  C   UNL     1      44.909 231.896 320.794  0.00  0.00    +0.000 C 
ATOM     18  C   UNL     1      47.778 232.495 323.250  0.00  0.00    +0.000 C 
ATOM     19  C   UNL     1      44.452 232.374 322.056  0.00  0.00    +0.000 C 
ATOM     20  C   UNL     1      46.233 236.815 324.722  0.00  0.00    +0.000 C 
ATOM     21  C   UNL     1      46.420 237.729 321.674  0.00  0.00    +0.000 C 
ATOM     22  C   UNL     1      45.852 239.842 325.318  0.00  0.00    +0.000 C 
ATOM     23  C   UNL     1      47.945 241.398 324.974  0.00  0.00    +0.000 C 
ATOM     24  C   UNL     1      45.288 241.222 325.569  0.00  0.00    +0.000 C 
ATOM     25  C   UNL     1      45.800 233.177 318.892  0.00  0.00    +0.000 C 
ATOM     26  C   UNL     1      47.109 231.213 319.816  0.00  0.00    +0.000 C 
ATOM     27  C   UNL     1      46.553 241.986 325.322  0.00  0.00    +0.000 C 
ATOM     28  C   UNL     1      44.798 241.376 327.020  0.00  0.00    +0.000 C 
ATOM     29  C   UNL     1      44.198 241.573 324.540  0.00  0.00    +0.000 C 
ENDROOT
BRANCH  17  30
ATOM     30  O   UNL     1      44.125 230.931 320.167  0.00  0.00    +0.000 OA
ATOM     31  H   UNL     1      43.564 230.455 320.814  0.00  0.00    +0.000 HD
ENDBRANCH  17  30
BRANCH  19  32
ATOM     32  O   UNL     1      43.396 231.787 322.684  0.00  0.00    +0.000 OA
ATOM     33  H   UNL     1      43.546 230.829 322.802  0.00  0.00    +0.000 HD
ENDBRANCH  19  32
BRANCH  14  35
ATOM     34  O   UNL     1      49.478 240.236 327.049  0.00  0.00    +0.000 OA
ATOM     35  C   UNL     1      49.318 239.600 326.015  0.00  0.00    +0.000 C 
BRANCH  35  36
ATOM     36  O   UNL     1      50.026 238.465 325.818  0.00  0.00    +0.000 OA
ATOM     37  H   UNL     1      50.128 238.394 324.844  0.00  0.00    +0.000 HD
ENDBRANCH  35  36
ENDBRANCH  14  35
TORSDOF 4
ENDMDL
MODEL 4
REMARK VINA RESULT:      -6.0      1.712      2.947
REMARK  Name = 73659_MaslinicAcid.pdbqt.pdb
REMARK  4 active torsions:
REMARK  status: ('A' for Active; 'I' for Inactive)
REMARK    1  A    between atoms: C_14  and  C_35
REMARK    2  A    between atoms: C_17  and  O_30
REMARK    3  A    between atoms: C_19  and  O_32
REMARK    4  A    between atoms: C_35  and  O_36
REMARK                            x       y       z     vdW  Elec       q    Type
REMARK                         _______ _______ _______ _____ _____    ______ ____
ROOT
ATOM      1  C   UNL     1      72.493 219.128 345.097  0.00  0.00    +0.000 C 
ATOM      2  C   UNL     1      71.523 219.776 344.018  0.00  0.00    +0.000 C 
ATOM      3  C   UNL     1      71.648 219.524 342.513  0.00  0.00    +0.000 C 
ATOM      4  C   UNL     1      72.889 220.191 346.302  0.00  0.00    +0.000 C 
ATOM      5  C   UNL     1      73.055 219.291 341.952  0.00  0.00    +0.000 C 
ATOM      6  C   UNL     1      73.679 218.708 344.343  0.00  0.00    +0.000 C 
ATOM      7  C   UNL     1      73.989 218.762 342.883  0.00  0.00    +0.000 C 
ATOM      8  C   UNL     1      71.582 220.939 346.912  0.00  0.00    +0.000 C 
ATOM      9  C   UNL     1      73.401 219.759 340.546  0.00  0.00    +0.000 C 
ATOM     10  C   UNL     1      71.343 221.184 348.351  0.00  0.00    +0.000 C 
ATOM     11  C   UNL     1      70.580 220.675 344.610  0.00  0.00    +0.000 C 
ATOM     12  C   UNL     1      71.164 220.681 341.776  0.00  0.00    +0.000 C 
ATOM     13  C   UNL     1      73.499 219.544 347.478  0.00  0.00    +0.000 C 
ATOM     14  C   UNL     1      71.920 220.196 349.541  0.00  0.00    +0.000 C 
ATOM     15  C   UNL     1      71.744 217.857 345.671  0.00  0.00    +0.000 C 
ATOM     16  C   UNL     1      73.091 219.565 348.934  0.00  0.00    +0.000 C 
ATOM     17  C   UNL     1      72.490 220.813 339.868  0.00  0.00    +0.000 C 
ATOM     18  C   UNL     1      70.795 218.279 342.175  0.00  0.00    +0.000 C 
ATOM     19  C   UNL     1      71.412 221.384 340.602  0.00  0.00    +0.000 C 
ATOM     20  C   UNL     1      70.659 221.176 346.023  0.00  0.00    +0.000 C 
ATOM     21  C   UNL     1      73.832 221.359 345.782  0.00  0.00    +0.000 C 
ATOM     22  C   UNL     1      71.066 222.554 348.780  0.00  0.00    +0.000 C 
ATOM     23  C   UNL     1      72.195 221.119 350.674  0.00  0.00    +0.000 C 
ATOM     24  C   UNL     1      71.218 223.549 349.908  0.00  0.00    +0.000 C 
ATOM     25  C   UNL     1      74.814 220.440 340.582  0.00  0.00    +0.000 C 
ATOM     26  C   UNL     1      73.474 218.527 339.598  0.00  0.00    +0.000 C 
ATOM     27  C   UNL     1      71.877 222.622 350.884  0.00  0.00    +0.000 C 
ATOM     28  C   UNL     1      69.850 224.039 350.416  0.00  0.00    +0.000 C 
ATOM     29  C   UNL     1      72.146 224.710 349.505  0.00  0.00    +0.000 C 
ENDROOT
BRANCH  17  30
ATOM     30  O   UNL     1      72.644 221.231 338.548  0.00  0.00    +0.000 OA
ATOM     31  H   UNL     1      73.529 221.628 338.405  0.00  0.00    +0.000 HD
ENDBRANCH  17  30
BRANCH  19  32
ATOM     32  O   UNL     1      70.485 222.169 339.984  0.00  0.00    +0.000 OA
ATOM     33  H   UNL     1      69.582 221.942 340.278  0.00  0.00    +0.000 HD
ENDBRANCH  19  32
BRANCH  14  35
ATOM     34  O   UNL     1      70.746 218.030 349.549  0.00  0.00    +0.000 OA
ATOM     35  C   UNL     1      70.809 219.201 349.899  0.00  0.00    +0.000 C 
BRANCH  35  36
ATOM     36  O   UNL     1      69.794 219.736 350.613  0.00  0.00    +0.000 OA
ATOM     37  H   UNL     1      69.165 220.083 349.943  0.00  0.00    +0.000 HD
ENDBRANCH  35  36
ENDBRANCH  14  35
TORSDOF 4
ENDMDL
MODEL 5
REMARK VINA RESULT:      -5.9      5.220      9.076
REMARK  Name = 73659_MaslinicAcid.pdbqt.pdb
REMARK  4 active torsions:
REMARK  status: ('A' for Active; 'I' for Inactive)
REMARK    1  A    between atoms: C_14  and  C_35
REMARK    2  A    between atoms: C_17  and  O_30
REMARK    3  A    between atoms: C_19  and  O_32
REMARK    4  A    between atoms: C_35  and  O_36
REMARK                            x       y       z     vdW  Elec       q    Type
REMARK                         _______ _______ _______ _____ _____    ______ ____
ROOT
ATOM      1  C   UNL     1      67.546 219.793 336.241  0.00  0.00    +0.000 C 
ATOM      2  C   UNL     1      67.823 218.232 336.136  0.00  0.00    +0.000 C 
ATOM      3  C   UNL     1      66.881 217.254 335.427  0.00  0.00    +0.000 C 
ATOM      4  C   UNL     1      67.954 220.403 337.724  0.00  0.00    +0.000 C 
ATOM      5  C   UNL     1      65.382 217.569 335.464  0.00  0.00    +0.000 C 
ATOM      6  C   UNL     1      66.111 219.946 335.975  0.00  0.00    +0.000 C 
ATOM      7  C   UNL     1      65.064 218.946 335.611  0.00  0.00    +0.000 C 
ATOM      8  C   UNL     1      69.438 219.934 338.191  0.00  0.00    +0.000 C 
ATOM      9  C   UNL     1      64.367 216.436 335.495  0.00  0.00    +0.000 C 
ATOM     10  C   UNL     1      70.439 220.813 338.835  0.00  0.00    +0.000 C 
ATOM     11  C   UNL     1      69.005 217.844 336.843  0.00  0.00    +0.000 C 
ATOM     12  C   UNL     1      66.978 215.940 336.042  0.00  0.00    +0.000 C 
ATOM     13  C   UNL     1      68.031 221.875 337.752  0.00  0.00    +0.000 C 
ATOM     14  C   UNL     1      70.523 222.438 338.556  0.00  0.00    +0.000 C 
ATOM     15  C   UNL     1      68.382 220.478 335.084  0.00  0.00    +0.000 C 
ATOM     16  C   UNL     1      69.163 222.794 338.151  0.00  0.00    +0.000 C 
ATOM     17  C   UNL     1      64.845 215.020 335.906  0.00  0.00    +0.000 C 
ATOM     18  C   UNL     1      67.312 217.184 333.943  0.00  0.00    +0.000 C 
ATOM     19  C   UNL     1      66.191 214.831 336.332  0.00  0.00    +0.000 C 
ATOM     20  C   UNL     1      69.746 218.729 337.804  0.00  0.00    +0.000 C 
ATOM     21  C   UNL     1      66.977 219.894 338.869  0.00  0.00    +0.000 C 
ATOM     22  C   UNL     1      71.013 220.385 340.109  0.00  0.00    +0.000 C 
ATOM     23  C   UNL     1      70.982 223.003 339.853  0.00  0.00    +0.000 C 
ATOM     24  C   UNL     1      71.578 220.857 341.430  0.00  0.00    +0.000 C 
ATOM     25  C   UNL     1      63.260 216.788 336.549  0.00  0.00    +0.000 C 
ATOM     26  C   UNL     1      63.693 216.311 334.098  0.00  0.00    +0.000 C 
ATOM     27  C   UNL     1      71.482 222.327 341.156  0.00  0.00    +0.000 C 
ATOM     28  C   UNL     1      73.037 220.401 341.614  0.00  0.00    +0.000 C 
ATOM     29  C   UNL     1      70.677 220.434 342.604  0.00  0.00    +0.000 C 
ENDROOT
BRANCH  17  30
ATOM     30  O   UNL     1      64.033 213.889 335.865  0.00  0.00    +0.000 OA
ATOM     31  H   UNL     1      63.951 213.547 334.950  0.00  0.00    +0.000 HD
ENDBRANCH  17  30
BRANCH  19  32
ATOM     32  O   UNL     1      66.693 213.579 336.522  0.00  0.00    +0.000 OA
ATOM     33  H   UNL     1      66.578 213.292 337.449  0.00  0.00    +0.000 HD
ENDBRANCH  19  32
BRANCH  14  35
ATOM     34  O   UNL     1      72.362 221.841 337.028  0.00  0.00    +0.000 OA
ATOM     35  C   UNL     1      71.566 222.667 337.455  0.00  0.00    +0.000 C 
BRANCH  35  36
ATOM     36  O   UNL     1      71.615 223.936 336.992  0.00  0.00    +0.000 OA
ATOM     37  H   UNL     1      72.184 224.419 337.630  0.00  0.00    +0.000 HD
ENDBRANCH  35  36
ENDBRANCH  14  35
TORSDOF 4
ENDMDL
MODEL 6
REMARK VINA RESULT:      -5.8      5.805      8.539
REMARK  Name = 73659_MaslinicAcid.pdbqt.pdb
REMARK  4 active torsions:
REMARK  status: ('A' for Active; 'I' for Inactive)
REMARK    1  A    between atoms: C_14  and  C_35
REMARK    2  A    between atoms: C_17  and  O_30
REMARK    3  A    between atoms: C_19  and  O_32
REMARK    4  A    between atoms: C_35  and  O_36
REMARK                            x       y       z     vdW  Elec       q    Type
REMARK                         _______ _______ _______ _____ _____    ______ ____
ROOT
ATOM      1  C   UNL     1      70.247 220.149 337.851  0.00  0.00    +0.000 C 
ATOM      2  C   UNL     1      69.065 220.791 337.007  0.00  0.00    +0.000 C 
ATOM      3  C   UNL     1      67.830 220.007 336.552  0.00  0.00    +0.000 C 
ATOM      4  C   UNL     1      71.733 220.687 337.359  0.00  0.00    +0.000 C 
ATOM      5  C   UNL     1      68.017 218.519 336.236  0.00  0.00    +0.000 C 
ATOM      6  C   UNL     1      70.112 218.700 337.659  0.00  0.00    +0.000 C 
ATOM      7  C   UNL     1      69.095 217.895 336.919  0.00  0.00    +0.000 C 
ATOM      8  C   UNL     1      71.783 222.305 337.224  0.00  0.00    +0.000 C 
ATOM      9  C   UNL     1      67.182 217.861 335.148  0.00  0.00    +0.000 C 
ATOM     10  C   UNL     1      72.904 223.157 337.679  0.00  0.00    +0.000 C 
ATOM     11  C   UNL     1      69.327 222.154 336.659  0.00  0.00    +0.000 C 
ATOM     12  C   UNL     1      67.317 220.567 335.312  0.00  0.00    +0.000 C 
ATOM     13  C   UNL     1      72.813 220.384 338.316  0.00  0.00    +0.000 C 
ATOM     14  C   UNL     1      73.882 222.758 338.948  0.00  0.00    +0.000 C 
ATOM     15  C   UNL     1      69.972 220.517 339.366  0.00  0.00    +0.000 C 
ATOM     16  C   UNL     1      73.798 221.299 339.008  0.00  0.00    +0.000 C 
ATOM     17  C   UNL     1      66.471 218.765 334.108  0.00  0.00    +0.000 C 
ATOM     18  C   UNL     1      66.767 220.120 337.671  0.00  0.00    +0.000 C 
ATOM     19  C   UNL     1      66.688 220.172 334.137  0.00  0.00    +0.000 C 
ATOM     20  C   UNL     1      70.661 222.826 336.814  0.00  0.00    +0.000 C 
ATOM     21  C   UNL     1      72.120 220.137 335.919  0.00  0.00    +0.000 C 
ATOM     22  C   UNL     1      73.506 224.076 336.715  0.00  0.00    +0.000 C 
ATOM     23  C   UNL     1      75.207 223.317 338.571  0.00  0.00    +0.000 C 
ATOM     24  C   UNL     1      74.786 224.764 336.297  0.00  0.00    +0.000 C 
ATOM     25  C   UNL     1      68.120 216.948 334.284  0.00  0.00    +0.000 C 
ATOM     26  C   UNL     1      66.094 216.965 335.806  0.00  0.00    +0.000 C 
ATOM     27  C   UNL     1      75.648 224.236 337.403  0.00  0.00    +0.000 C 
ATOM     28  C   UNL     1      74.648 226.296 336.357  0.00  0.00    +0.000 C 
ATOM     29  C   UNL     1      75.259 224.270 334.918  0.00  0.00    +0.000 C 
ENDROOT
BRANCH  17  30
ATOM     30  O   UNL     1      65.595 218.283 333.138  0.00  0.00    +0.000 OA
ATOM     31  H   UNL     1      65.011 218.996 332.805  0.00  0.00    +0.000 HD
ENDBRANCH  17  30
BRANCH  19  32
ATOM     32  O   UNL     1      65.942 221.009 333.363  0.00  0.00    +0.000 OA
ATOM     33  H   UNL     1      65.466 221.662 333.912  0.00  0.00    +0.000 HD
ENDBRANCH  19  32
BRANCH  14  35
ATOM     34  O   UNL     1      72.155 223.474 340.554  0.00  0.00    +0.000 OA
ATOM     35  C   UNL     1      73.326 223.451 340.198  0.00  0.00    +0.000 C 
BRANCH  35  36
ATOM     36  O   UNL     1      74.247 224.145 340.904  0.00  0.00    +0.000 OA
ATOM     37  H   UNL     1      74.199 223.780 341.814  0.00  0.00    +0.000 HD
ENDBRANCH  35  36
ENDBRANCH  14  35
TORSDOF 4
ENDMDL
MODEL 7
REMARK VINA RESULT:      -5.8      5.099      8.020
REMARK  Name = 73659_MaslinicAcid.pdbqt.pdb
REMARK  4 active torsions:
REMARK  status: ('A' for Active; 'I' for Inactive)
REMARK    1  A    between atoms: C_14  and  C_35
REMARK    2  A    between atoms: C_17  and  O_30
REMARK    3  A    between atoms: C_19  and  O_32
REMARK    4  A    between atoms: C_35  and  O_36
REMARK                            x       y       z     vdW  Elec       q    Type
REMARK                         _______ _______ _______ _____ _____    ______ ____
ROOT
ATOM      1  C   UNL     1      69.333 221.158 337.466  0.00  0.00    +0.000 C 
ATOM      2  C   UNL     1      69.623 220.013 336.404  0.00  0.00    +0.000 C 
ATOM      3  C   UNL     1      68.525 219.310 335.600  0.00  0.00    +0.000 C 
ATOM      4  C   UNL     1      70.287 221.021 338.812  0.00  0.00    +0.000 C 
ATOM      5  C   UNL     1      67.161 219.132 336.277  0.00  0.00    +0.000 C 
ATOM      6  C   UNL     1      67.912 221.019 337.801  0.00  0.00    +0.000 C 
ATOM      7  C   UNL     1      66.862 220.095 337.278  0.00  0.00    +0.000 C 
ATOM      8  C   UNL     1      71.853 220.814 338.433  0.00  0.00    +0.000 C 
ATOM      9  C   UNL     1      66.312 217.909 335.967  0.00  0.00    +0.000 C 
ATOM     10  C   UNL     1      72.983 221.485 339.112  0.00  0.00    +0.000 C 
ATOM     11  C   UNL     1      71.010 219.667 336.348  0.00  0.00    +0.000 C 
ATOM     12  C   UNL     1      68.937 217.953 335.281  0.00  0.00    +0.000 C 
ATOM     13  C   UNL     1      70.291 222.231 339.654  0.00  0.00    +0.000 C 
ATOM     14  C   UNL     1      72.859 222.977 339.808  0.00  0.00    +0.000 C 
ATOM     15  C   UNL     1      69.577 222.534 336.723  0.00  0.00    +0.000 C 
ATOM     16  C   UNL     1      71.437 223.095 340.130  0.00  0.00    +0.000 C 
ATOM     17  C   UNL     1      66.991 216.678 335.316  0.00  0.00    +0.000 C 
ATOM     18  C   UNL     1      68.305 220.122 334.302  0.00  0.00    +0.000 C 
ATOM     19  C   UNL     1      68.400 216.681 335.110  0.00  0.00    +0.000 C 
ATOM     20  C   UNL     1      72.036 220.110 337.351  0.00  0.00    +0.000 C 
ATOM     21  C   UNL     1      69.901 219.755 339.691  0.00  0.00    +0.000 C 
ATOM     22  C   UNL     1      74.056 220.651 339.652  0.00  0.00    +0.000 C 
ATOM     23  C   UNL     1      73.784 222.911 340.970  0.00  0.00    +0.000 C 
ATOM     24  C   UNL     1      75.092 220.527 340.746  0.00  0.00    +0.000 C 
ATOM     25  C   UNL     1      65.725 217.357 337.313  0.00  0.00    +0.000 C 
ATOM     26  C   UNL     1      65.127 218.326 335.049  0.00  0.00    +0.000 C 
ATOM     27  C   UNL     1      74.814 221.839 341.412  0.00  0.00    +0.000 C 
ATOM     28  C   UNL     1      76.518 220.466 340.168  0.00  0.00    +0.000 C 
ATOM     29  C   UNL     1      74.782 219.337 341.673  0.00  0.00    +0.000 C 
ENDROOT
BRANCH  17  30
ATOM     30  O   UNL     1      66.296 215.549 334.889  0.00  0.00    +0.000 OA
ATOM     31  H   UNL     1      65.398 215.785 334.574  0.00  0.00    +0.000 HD
ENDBRANCH  17  30
BRANCH  19  32
ATOM     32  O   UNL     1      69.001 215.702 334.378  0.00  0.00    +0.000 OA
ATOM     33  H   UNL     1      68.615 214.827 334.579  0.00  0.00    +0.000 HD
ENDBRANCH  19  32
BRANCH  14  35
ATOM     34  O   UNL     1      73.249 223.916 337.563  0.00  0.00    +0.000 OA
ATOM     35  C   UNL     1      73.338 224.010 338.780  0.00  0.00    +0.000 C 
BRANCH  35  36
ATOM     36  O   UNL     1      73.971 225.076 339.319  0.00  0.00    +0.000 OA
ATOM     37  H   UNL     1      74.777 225.198 338.770  0.00  0.00    +0.000 HD
ENDBRANCH  35  36
ENDBRANCH  14  35
TORSDOF 4
ENDMDL
MODEL 8
REMARK VINA RESULT:      -5.8     34.296     37.214
REMARK  Name = 73659_MaslinicAcid.pdbqt.pdb
REMARK  4 active torsions:
REMARK  status: ('A' for Active; 'I' for Inactive)
REMARK    1  A    between atoms: C_14  and  C_35
REMARK    2  A    between atoms: C_17  and  O_30
REMARK    3  A    between atoms: C_19  and  O_32
REMARK    4  A    between atoms: C_35  and  O_36
REMARK                            x       y       z     vdW  Elec       q    Type
REMARK                         _______ _______ _______ _____ _____    ______ ____
ROOT
ATOM      1  C   UNL     1      53.229 245.865 323.442  0.00  0.00    +0.000 C 
ATOM      2  C   UNL     1      53.893 244.959 322.319  0.00  0.00    +0.000 C 
ATOM      3  C   UNL     1      54.617 245.528 321.095  0.00  0.00    +0.000 C 
ATOM      4  C   UNL     1      51.781 245.257 323.962  0.00  0.00    +0.000 C 
ATOM      5  C   UNL     1      54.108 246.859 320.531  0.00  0.00    +0.000 C 
ATOM      6  C   UNL     1      53.063 247.185 322.822  0.00  0.00    +0.000 C 
ATOM      7  C   UNL     1      53.454 247.696 321.475  0.00  0.00    +0.000 C 
ATOM      8  C   UNL     1      51.875 243.675 324.320  0.00  0.00    +0.000 C 
ATOM      9  C   UNL     1      54.188 247.133 319.037  0.00  0.00    +0.000 C 
ATOM     10  C   UNL     1      51.257 243.037 325.504  0.00  0.00    +0.000 C 
ATOM     11  C   UNL     1      53.666 243.565 322.545  0.00  0.00    +0.000 C 
ATOM     12  C   UNL     1      54.500 244.606 319.977  0.00  0.00    +0.000 C 
ATOM     13  C   UNL     1      51.304 245.868 325.216  0.00  0.00    +0.000 C 
ATOM     14  C   UNL     1      51.013 243.830 326.931  0.00  0.00    +0.000 C 
ATOM     15  C   UNL     1      54.276 245.956 324.625  0.00  0.00    +0.000 C 
ATOM     16  C   UNL     1      50.930 245.237 326.538  0.00  0.00    +0.000 C 
ATOM     17  C   UNL     1      54.384 245.937 318.071  0.00  0.00    +0.000 C 
ATOM     18  C   UNL     1      56.104 245.718 321.479  0.00  0.00    +0.000 C 
ATOM     19  C   UNL     1      54.392 244.610 318.590  0.00  0.00    +0.000 C 
ATOM     20  C   UNL     1      52.691 243.016 323.547  0.00  0.00    +0.000 C 
ATOM     21  C   UNL     1      50.652 245.365 322.849  0.00  0.00    +0.000 C 
ATOM     22  C   UNL     1      50.373 241.893 325.286  0.00  0.00    +0.000 C 
ATOM     23  C   UNL     1      49.762 243.231 327.467  0.00  0.00    +0.000 C 
ATOM     24  C   UNL     1      49.156 241.157 325.801  0.00  0.00    +0.000 C 
ATOM     25  C   UNL     1      52.834 247.779 318.576  0.00  0.00    +0.000 C 
ATOM     26  C   UNL     1      55.335 248.147 318.760  0.00  0.00    +0.000 C 
ATOM     27  C   UNL     1      48.913 242.021 327.001  0.00  0.00    +0.000 C 
ATOM     28  C   UNL     1      49.499 239.709 326.195  0.00  0.00    +0.000 C 
ATOM     29  C   UNL     1      47.993 241.233 324.795  0.00  0.00    +0.000 C 
ENDROOT
BRANCH  17  30
ATOM     30  O   UNL     1      54.580 246.076 316.699  0.00  0.00    +0.000 OA
ATOM     31  H   UNL     1      54.210 246.923 316.374  0.00  0.00    +0.000 HD
ENDBRANCH  17  30
BRANCH  19  32
ATOM     32  O   UNL     1      54.745 243.556 317.804  0.00  0.00    +0.000 OA
ATOM     33  H   UNL     1      55.434 243.812 317.161  0.00  0.00    +0.000 HD
ENDBRANCH  19  32
BRANCH  14  35
ATOM     34  O   UNL     1      53.389 243.688 327.570  0.00  0.00    +0.000 OA
ATOM     35  C   UNL     1      52.207 243.523 327.842  0.00  0.00    +0.000 C 
BRANCH  35  36
ATOM     36  O   UNL     1      51.872 242.955 329.023  0.00  0.00    +0.000 OA
ATOM     37  H   UNL     1      50.911 242.765 328.951  0.00  0.00    +0.000 HD
ENDBRANCH  35  36
ENDBRANCH  14  35
TORSDOF 4
ENDMDL
MODEL 9
REMARK VINA RESULT:      -5.8      4.985      8.943
REMARK  Name = 73659_MaslinicAcid.pdbqt.pdb
REMARK  4 active torsions:
REMARK  status: ('A' for Active; 'I' for Inactive)
REMARK    1  A    between atoms: C_14  and  C_35
REMARK    2  A    between atoms: C_17  and  O_30
REMARK    3  A    between atoms: C_19  and  O_32
REMARK    4  A    between atoms: C_35  and  O_36
REMARK                            x       y       z     vdW  Elec       q    Type
REMARK                         _______ _______ _______ _____ _____    ______ ____
ROOT
ATOM      1  C   UNL     1      70.465 221.154 339.229  0.00  0.00    +0.000 C 
ATOM      2  C   UNL     1      71.947 220.611 339.049  0.00  0.00    +0.000 C 
ATOM      3  C   UNL     1      73.161 221.218 339.759  0.00  0.00    +0.000 C 
ATOM      4  C   UNL     1      69.622 221.158 337.805  0.00  0.00    +0.000 C 
ATOM      5  C   UNL     1      73.133 222.725 340.037  0.00  0.00    +0.000 C 
ATOM      6  C   UNL     1      70.618 222.512 339.765  0.00  0.00    +0.000 C 
ATOM      7  C   UNL     1      71.833 223.286 340.156  0.00  0.00    +0.000 C 
ATOM      8  C   UNL     1      69.744 219.743 337.018  0.00  0.00    +0.000 C 
ATOM      9  C   UNL     1      74.425 223.527 340.017  0.00  0.00    +0.000 C 
ATOM     10  C   UNL     1      68.624 219.049 336.346  0.00  0.00    +0.000 C 
ATOM     11  C   UNL     1      72.020 219.549 338.093  0.00  0.00    +0.000 C 
ATOM     12  C   UNL     1      74.353 221.034 338.947  0.00  0.00    +0.000 C 
ATOM     13  C   UNL     1      68.168 221.330 337.985  0.00  0.00    +0.000 C 
ATOM     14  C   UNL     1      67.056 219.176 336.845  0.00  0.00    +0.000 C 
ATOM     15  C   UNL     1      69.773 220.226 340.308  0.00  0.00    +0.000 C 
ATOM     16  C   UNL     1      67.013 220.466 337.534  0.00  0.00    +0.000 C 
ATOM     17  C   UNL     1      75.668 222.917 339.320  0.00  0.00    +0.000 C 
ATOM     18  C   UNL     1      73.319 220.492 341.116  0.00  0.00    +0.000 C 
ATOM     19  C   UNL     1      75.549 221.671 338.639  0.00  0.00    +0.000 C 
ATOM     20  C   UNL     1      70.906 219.170 337.159  0.00  0.00    +0.000 C 
ATOM     21  C   UNL     1      70.170 222.249 336.789  0.00  0.00    +0.000 C 
ATOM     22  C   UNL     1      68.786 218.681 334.940  0.00  0.00    +0.000 C 
ATOM     23  C   UNL     1      66.268 219.086 335.586  0.00  0.00    +0.000 C 
ATOM     24  C   UNL     1      68.066 218.477 333.626  0.00  0.00    +0.000 C 
ATOM     25  C   UNL     1      74.169 224.866 339.240  0.00  0.00    +0.000 C 
ATOM     26  C   UNL     1      74.835 223.876 341.476  0.00  0.00    +0.000 C 
ATOM     27  C   UNL     1      66.682 218.755 334.129  0.00  0.00    +0.000 C 
ATOM     28  C   UNL     1      68.214 217.031 333.120  0.00  0.00    +0.000 C 
ATOM     29  C   UNL     1      68.513 219.515 332.580  0.00  0.00    +0.000 C 
ENDROOT
BRANCH  17  30
ATOM     30  O   UNL     1      76.929 223.507 339.335  0.00  0.00    +0.000 OA
ATOM     31  H   UNL     1      77.006 224.158 340.065  0.00  0.00    +0.000 HD
ENDBRANCH  17  30
BRANCH  19  32
ATOM     32  O   UNL     1      76.653 221.021 338.178  0.00  0.00    +0.000 OA
ATOM     33  H   UNL     1      76.407 220.195 337.717  0.00  0.00    +0.000 HD
ENDBRANCH  19  32
BRANCH  14  35
ATOM     34  O   UNL     1      66.695 216.810 337.430  0.00  0.00    +0.000 OA
ATOM     35  C   UNL     1      66.763 217.985 337.765  0.00  0.00    +0.000 C 
BRANCH  35  36
ATOM     36  O   UNL     1      66.495 218.326 339.046  0.00  0.00    +0.000 OA
ATOM     37  H   UNL     1      66.577 219.304 339.072  0.00  0.00    +0.000 HD
ENDBRANCH  35  36
ENDBRANCH  14  35
TORSDOF 4
ENDMDL
