MODEL 1
REMARK VINA RESULT:      -4.6      0.000      0.000
REMARK  Name = 76617_Cardol.pdbqt.pdb
REMARK  10 active torsions:
REMARK  status: ('A' for Active; 'I' for Inactive)
REMARK    1  A    between atoms: C_1  and  C_2
REMARK    2  A    between atoms: C_3  and  C_4
REMARK    3  A    between atoms: C_5  and  C_6
REMARK    4  A    between atoms: C_7  and  C_8
REMARK    5  A    between atoms: C_8  and  C_9
REMARK    6  A    between atoms: C_10  and  C_11
REMARK    7  A    between atoms: C_14  and  C_15
REMARK    8  A    between atoms: C_15  and  C_16
REMARK    9  A    between atoms: C_19  and  O_24
REMARK   10  A    between atoms: C_20  and  O_22
REMARK                            x       y       z     vdW  Elec       q    Type
REMARK                         _______ _______ _______ _____ _____    ______ ____
ROOT
ATOM      1  C   UNL     1      65.724 230.581 347.557  0.00  0.00    +0.000 C 
ATOM      2  C   UNL     1      65.670 229.774 348.444  0.00  0.00    +0.000 C 
ENDROOT
BRANCH   1   3
ATOM      3  C   UNL     1      65.793 231.610 346.426  0.00  0.00    +0.000 C 
ATOM      4  C   UNL     1      65.861 232.640 345.293  0.00  0.00    +0.000 C 
BRANCH   4   5
ATOM      5  C   UNL     1      65.928 233.670 344.163  0.00  0.00    +0.000 C 
ATOM      6  C   UNL     1      65.996 234.701 343.032  0.00  0.00    +0.000 C 
BRANCH   6   7
ATOM      7  C   UNL     1      66.065 235.733 341.901  0.00  0.00    +0.000 C 
ATOM      8  C   UNL     1      66.134 236.764 340.771  0.00  0.00    +0.000 C 
BRANCH   8   9
ATOM      9  C   UNL     1      66.203 237.795 339.641  0.00  0.00    +0.000 C 
BRANCH   9  10
ATOM     10  C   UNL     1      66.272 238.825 338.510  0.00  0.00    +0.000 C 
ATOM     11  C   UNL     1      66.341 239.855 337.378  0.00  0.00    +0.000 C 
BRANCH  11  12
ATOM     12  C   UNL     1      66.411 240.884 336.246  0.00  0.00    +0.000 C 
ATOM     13  C   UNL     1      66.481 241.914 335.115  0.00  0.00    +0.000 C 
ATOM     14  C   UNL     1      66.551 242.944 333.983  0.00  0.00    +0.000 C 
ENDBRANCH  11  12
ENDBRANCH   9  10
ENDBRANCH   8   9
ENDBRANCH   6   7
ENDBRANCH   4   5
ENDBRANCH   1   3
BRANCH   2  15
ATOM     15  C   UNL     1      65.600 228.744 349.576  0.00  0.00    +0.000 C 
BRANCH  15  16
ATOM     16  C   UNL     1      65.534 227.787 350.629  0.00  0.00    +0.000 A 
ATOM     17  C   UNL     1      64.691 226.683 350.512  0.00  0.00    +0.000 A 
ATOM     18  C   UNL     1      66.314 227.958 351.771  0.00  0.00    +0.000 A 
ATOM     19  C   UNL     1      66.243 227.016 352.795  0.00  0.00    +0.000 A 
ATOM     20  C   UNL     1      64.634 225.753 351.547  0.00  0.00    +0.000 A 
ATOM     21  C   UNL     1      65.406 225.910 352.694  0.00  0.00    +0.000 A 
BRANCH  20  22
ATOM     22  O   UNL     1      63.816 224.664 351.456  0.00  0.00    +0.000 OA
ATOM     23  H   UNL     1      63.509 224.586 350.536  0.00  0.00    +0.000 HD
ENDBRANCH  20  22
BRANCH  19  24
ATOM     24  O   UNL     1      66.996 227.160 353.925  0.00  0.00    +0.000 OA
ATOM     25  H   UNL     1      66.416 227.036 354.697  0.00  0.00    +0.000 HD
ENDBRANCH  19  24
ENDBRANCH  15  16
ENDBRANCH   2  15
TORSDOF 10
ENDMDL
MODEL 2
REMARK VINA RESULT:      -4.6      0.666      2.081
REMARK  Name = 76617_Cardol.pdbqt.pdb
REMARK  10 active torsions:
REMARK  status: ('A' for Active; 'I' for Inactive)
REMARK    1  A    between atoms: C_1  and  C_2
REMARK    2  A    between atoms: C_3  and  C_4
REMARK    3  A    between atoms: C_5  and  C_6
REMARK    4  A    between atoms: C_7  and  C_8
REMARK    5  A    between atoms: C_8  and  C_9
REMARK    6  A    between atoms: C_10  and  C_11
REMARK    7  A    between atoms: C_14  and  C_15
REMARK    8  A    between atoms: C_15  and  C_16
REMARK    9  A    between atoms: C_19  and  O_24
REMARK   10  A    between atoms: C_20  and  O_22
REMARK                            x       y       z     vdW  Elec       q    Type
REMARK                         _______ _______ _______ _____ _____    ______ ____
ROOT
ATOM      1  C   UNL     1      65.625 229.823 348.446  0.00  0.00    +0.000 C 
ATOM      2  C   UNL     1      65.564 229.018 349.333  0.00  0.00    +0.000 C 
ENDROOT
BRANCH   1   3
ATOM      3  C   UNL     1      65.702 230.849 347.312  0.00  0.00    +0.000 C 
ATOM      4  C   UNL     1      65.779 231.877 346.178  0.00  0.00    +0.000 C 
BRANCH   4   5
ATOM      5  C   UNL     1      65.856 232.905 345.046  0.00  0.00    +0.000 C 
ATOM      6  C   UNL     1      65.934 233.933 343.914  0.00  0.00    +0.000 C 
BRANCH   6   7
ATOM      7  C   UNL     1      66.012 234.963 342.781  0.00  0.00    +0.000 C 
ATOM      8  C   UNL     1      66.090 235.990 341.649  0.00  0.00    +0.000 C 
BRANCH   8   9
ATOM      9  C   UNL     1      66.168 237.018 340.516  0.00  0.00    +0.000 C 
BRANCH   9  10
ATOM     10  C   UNL     1      66.245 238.046 339.383  0.00  0.00    +0.000 C 
ATOM     11  C   UNL     1      66.323 239.073 338.250  0.00  0.00    +0.000 C 
BRANCH  11  12
ATOM     12  C   UNL     1      66.400 240.102 337.117  0.00  0.00    +0.000 C 
ATOM     13  C   UNL     1      66.477 241.130 335.986  0.00  0.00    +0.000 C 
ATOM     14  C   UNL     1      66.554 242.159 334.853  0.00  0.00    +0.000 C 
ENDBRANCH  11  12
ENDBRANCH   9  10
ENDBRANCH   8   9
ENDBRANCH   6   7
ENDBRANCH   4   5
ENDBRANCH   1   3
BRANCH   2  15
ATOM     15  C   UNL     1      65.487 227.991 350.468  0.00  0.00    +0.000 C 
BRANCH  15  16
ATOM     16  C   UNL     1      65.415 227.037 351.523  0.00  0.00    +0.000 A 
ATOM     17  C   UNL     1      66.153 227.234 352.689  0.00  0.00    +0.000 A 
ATOM     18  C   UNL     1      64.607 225.910 351.384  0.00  0.00    +0.000 A 
ATOM     19  C   UNL     1      64.544 224.982 352.421  0.00  0.00    +0.000 A 
ATOM     20  C   UNL     1      66.075 226.295 353.714  0.00  0.00    +0.000 A 
ATOM     21  C   UNL     1      65.274 225.165 353.591  0.00  0.00    +0.000 A 
BRANCH  20  22
ATOM     22  O   UNL     1      66.788 226.465 354.866  0.00  0.00    +0.000 OA
ATOM     23  H   UNL     1      66.184 226.794 355.555  0.00  0.00    +0.000 HD
ENDBRANCH  20  22
BRANCH  19  24
ATOM     24  O   UNL     1      63.761 223.869 352.311  0.00  0.00    +0.000 OA
ATOM     25  H   UNL     1      63.223 223.952 351.504  0.00  0.00    +0.000 HD
ENDBRANCH  19  24
ENDBRANCH  15  16
ENDBRANCH   2  15
TORSDOF 10
ENDMDL
MODEL 3
REMARK VINA RESULT:      -4.2      8.580     19.053
REMARK  Name = 76617_Cardol.pdbqt.pdb
REMARK  10 active torsions:
REMARK  status: ('A' for Active; 'I' for Inactive)
REMARK    1  A    between atoms: C_1  and  C_2
REMARK    2  A    between atoms: C_3  and  C_4
REMARK    3  A    between atoms: C_5  and  C_6
REMARK    4  A    between atoms: C_7  and  C_8
REMARK    5  A    between atoms: C_8  and  C_9
REMARK    6  A    between atoms: C_10  and  C_11
REMARK    7  A    between atoms: C_14  and  C_15
REMARK    8  A    between atoms: C_15  and  C_16
REMARK    9  A    between atoms: C_19  and  O_24
REMARK   10  A    between atoms: C_20  and  O_22
REMARK                            x       y       z     vdW  Elec       q    Type
REMARK                         _______ _______ _______ _____ _____    ______ ____
ROOT
ATOM      1  C   UNL     1      66.166 240.463 336.512  0.00  0.00    +0.000 C 
ATOM      2  C   UNL     1      66.195 241.256 335.613  0.00  0.00    +0.000 C 
ENDROOT
BRANCH   1   3
ATOM      3  C   UNL     1      66.130 239.449 337.660  0.00  0.00    +0.000 C 
ATOM      4  C   UNL     1      66.093 238.436 338.809  0.00  0.00    +0.000 C 
BRANCH   4   5
ATOM      5  C   UNL     1      66.055 237.422 339.956  0.00  0.00    +0.000 C 
ATOM      6  C   UNL     1      66.017 236.408 341.102  0.00  0.00    +0.000 C 
BRANCH   6   7
ATOM      7  C   UNL     1      65.978 235.394 342.250  0.00  0.00    +0.000 C 
ATOM      8  C   UNL     1      65.941 234.379 343.397  0.00  0.00    +0.000 C 
BRANCH   8   9
ATOM      9  C   UNL     1      65.903 233.365 344.543  0.00  0.00    +0.000 C 
BRANCH   9  10
ATOM     10  C   UNL     1      65.865 232.349 345.689  0.00  0.00    +0.000 C 
ATOM     11  C   UNL     1      65.828 231.333 346.834  0.00  0.00    +0.000 C 
BRANCH  11  12
ATOM     12  C   UNL     1      65.789 230.316 347.979  0.00  0.00    +0.000 C 
ATOM     13  C   UNL     1      65.750 229.299 349.124  0.00  0.00    +0.000 C 
ATOM     14  C   UNL     1      65.712 228.282 350.269  0.00  0.00    +0.000 C 
ENDBRANCH  11  12
ENDBRANCH   9  10
ENDBRANCH   8   9
ENDBRANCH   6   7
ENDBRANCH   4   5
ENDBRANCH   1   3
BRANCH   2  15
ATOM     15  C   UNL     1      66.230 242.270 334.465  0.00  0.00    +0.000 C 
BRANCH  15  16
ATOM     16  C   UNL     1      66.262 243.213 333.398  0.00  0.00    +0.000 A 
ATOM     17  C   UNL     1      67.399 243.993 333.195  0.00  0.00    +0.000 A 
ATOM     18  C   UNL     1      65.156 243.352 332.561  0.00  0.00    +0.000 A 
ATOM     19  C   UNL     1      65.198 244.277 331.521  0.00  0.00    +0.000 A 
ATOM     20  C   UNL     1      67.421 244.912 332.149  0.00  0.00    +0.000 A 
ATOM     21  C   UNL     1      66.325 245.063 331.305  0.00  0.00    +0.000 A 
BRANCH  20  22
ATOM     22  O   UNL     1      68.523 245.687 331.929  0.00  0.00    +0.000 OA
ATOM     23  H   UNL     1      68.422 246.514 332.432  0.00  0.00    +0.000 HD
ENDBRANCH  20  22
BRANCH  19  24
ATOM     24  O   UNL     1      64.128 244.433 330.687  0.00  0.00    +0.000 OA
ATOM     25  H   UNL     1      64.213 243.795 329.957  0.00  0.00    +0.000 HD
ENDBRANCH  19  24
ENDBRANCH  15  16
ENDBRANCH   2  15
TORSDOF 10
ENDMDL
MODEL 4
REMARK VINA RESULT:      -4.2      6.379     16.830
REMARK  Name = 76617_Cardol.pdbqt.pdb
REMARK  10 active torsions:
REMARK  status: ('A' for Active; 'I' for Inactive)
REMARK    1  A    between atoms: C_1  and  C_2
REMARK    2  A    between atoms: C_3  and  C_4
REMARK    3  A    between atoms: C_5  and  C_6
REMARK    4  A    between atoms: C_7  and  C_8
REMARK    5  A    between atoms: C_8  and  C_9
REMARK    6  A    between atoms: C_10  and  C_11
REMARK    7  A    between atoms: C_14  and  C_15
REMARK    8  A    between atoms: C_15  and  C_16
REMARK    9  A    between atoms: C_19  and  O_24
REMARK   10  A    between atoms: C_20  and  O_22
REMARK                            x       y       z     vdW  Elec       q    Type
REMARK                         _______ _______ _______ _____ _____    ______ ____
ROOT
ATOM      1  C   UNL     1      66.047 235.524 342.269  0.00  0.00    +0.000 C 
ATOM      2  C   UNL     1      66.071 236.316 341.368  0.00  0.00    +0.000 C 
ENDROOT
BRANCH   1   3
ATOM      3  C   UNL     1      66.017 234.513 343.420  0.00  0.00    +0.000 C 
ATOM      4  C   UNL     1      65.988 233.502 344.571  0.00  0.00    +0.000 C 
BRANCH   4   5
ATOM      5  C   UNL     1      65.960 232.492 345.721  0.00  0.00    +0.000 C 
ATOM      6  C   UNL     1      65.933 231.483 346.872  0.00  0.00    +0.000 C 
BRANCH   6   7
ATOM      7  C   UNL     1      65.906 230.472 348.024  0.00  0.00    +0.000 C 
ATOM      8  C   UNL     1      65.880 229.462 349.174  0.00  0.00    +0.000 C 
BRANCH   8   9
ATOM      9  C   UNL     1      65.854 228.453 350.325  0.00  0.00    +0.000 C 
BRANCH   9  10
ATOM     10  C   UNL     1      65.827 227.442 351.477  0.00  0.00    +0.000 C 
ATOM     11  C   UNL     1      65.800 226.433 352.628  0.00  0.00    +0.000 C 
BRANCH  11  12
ATOM     12  C   UNL     1      65.774 225.422 353.779  0.00  0.00    +0.000 C 
ATOM     13  C   UNL     1      65.748 224.413 354.930  0.00  0.00    +0.000 C 
ATOM     14  C   UNL     1      65.721 223.402 356.081  0.00  0.00    +0.000 C 
ENDBRANCH  11  12
ENDBRANCH   9  10
ENDBRANCH   8   9
ENDBRANCH   6   7
ENDBRANCH   4   5
ENDBRANCH   1   3
BRANCH   2  15
ATOM     15  C   UNL     1      66.100 237.327 340.217  0.00  0.00    +0.000 C 
BRANCH  15  16
ATOM     16  C   UNL     1      66.126 238.267 339.147  0.00  0.00    +0.000 A 
ATOM     17  C   UNL     1      64.962 238.537 338.431  0.00  0.00    +0.000 A 
ATOM     18  C   UNL     1      67.318 238.913 338.823  0.00  0.00    +0.000 A 
ATOM     19  C   UNL     1      67.334 239.831 337.775  0.00  0.00    +0.000 A 
ATOM     20  C   UNL     1      64.999 239.459 337.388  0.00  0.00    +0.000 A 
ATOM     21  C   UNL     1      66.180 240.111 337.050  0.00  0.00    +0.000 A 
BRANCH  20  22
ATOM     22  O   UNL     1      63.872 239.740 336.671  0.00  0.00    +0.000 OA
ATOM     23  H   UNL     1      63.726 239.021 336.032  0.00  0.00    +0.000 HD
ENDBRANCH  20  22
BRANCH  19  24
ATOM     24  O   UNL     1      68.488 240.478 337.436  0.00  0.00    +0.000 OA
ATOM     25  H   UNL     1      68.257 241.368 337.117  0.00  0.00    +0.000 HD
ENDBRANCH  19  24
ENDBRANCH  15  16
ENDBRANCH   2  15
TORSDOF 10
ENDMDL
MODEL 5
REMARK VINA RESULT:      -4.1      7.907     18.197
REMARK  Name = 76617_Cardol.pdbqt.pdb
REMARK  10 active torsions:
REMARK  status: ('A' for Active; 'I' for Inactive)
REMARK    1  A    between atoms: C_1  and  C_2
REMARK    2  A    between atoms: C_3  and  C_4
REMARK    3  A    between atoms: C_5  and  C_6
REMARK    4  A    between atoms: C_7  and  C_8
REMARK    5  A    between atoms: C_8  and  C_9
REMARK    6  A    between atoms: C_10  and  C_11
REMARK    7  A    between atoms: C_14  and  C_15
REMARK    8  A    between atoms: C_15  and  C_16
REMARK    9  A    between atoms: C_19  and  O_24
REMARK   10  A    between atoms: C_20  and  O_22
REMARK                            x       y       z     vdW  Elec       q    Type
REMARK                         _______ _______ _______ _____ _____    ______ ____
ROOT
ATOM      1  C   UNL     1      66.231 239.211 338.134  0.00  0.00    +0.000 C 
ATOM      2  C   UNL     1      66.279 240.027 337.256  0.00  0.00    +0.000 C 
ENDROOT
BRANCH   1   3
ATOM      3  C   UNL     1      66.170 238.170 339.256  0.00  0.00    +0.000 C 
ATOM      4  C   UNL     1      66.109 237.130 340.379  0.00  0.00    +0.000 C 
BRANCH   4   5
ATOM      5  C   UNL     1      66.047 236.091 341.502  0.00  0.00    +0.000 C 
ATOM      6  C   UNL     1      65.986 235.052 342.625  0.00  0.00    +0.000 C 
BRANCH   6   7
ATOM      7  C   UNL     1      65.925 234.013 343.750  0.00  0.00    +0.000 C 
ATOM      8  C   UNL     1      65.864 232.973 344.872  0.00  0.00    +0.000 C 
BRANCH   8   9
ATOM      9  C   UNL     1      65.803 231.934 345.995  0.00  0.00    +0.000 C 
BRANCH   9  10
ATOM     10  C   UNL     1      65.742 230.895 347.120  0.00  0.00    +0.000 C 
ATOM     11  C   UNL     1      65.679 229.856 348.243  0.00  0.00    +0.000 C 
BRANCH  11  12
ATOM     12  C   UNL     1      65.617 228.817 349.367  0.00  0.00    +0.000 C 
ATOM     13  C   UNL     1      65.555 227.779 350.491  0.00  0.00    +0.000 C 
ATOM     14  C   UNL     1      65.492 226.741 351.616  0.00  0.00    +0.000 C 
ENDBRANCH  11  12
ENDBRANCH   9  10
ENDBRANCH   8   9
ENDBRANCH   6   7
ENDBRANCH   4   5
ENDBRANCH   1   3
BRANCH   2  15
ATOM     15  C   UNL     1      66.340 241.068 336.133  0.00  0.00    +0.000 C 
BRANCH  15  16
ATOM     16  C   UNL     1      66.397 242.036 335.089  0.00  0.00    +0.000 A 
ATOM     17  C   UNL     1      67.178 243.180 335.245  0.00  0.00    +0.000 A 
ATOM     18  C   UNL     1      65.673 241.833 333.916  0.00  0.00    +0.000 A 
ATOM     19  C   UNL     1      65.735 242.785 332.901  0.00  0.00    +0.000 A 
ATOM     20  C   UNL     1      67.227 244.119 334.218  0.00  0.00    +0.000 A 
ATOM     21  C   UNL     1      66.510 243.932 333.042  0.00  0.00    +0.000 A 
BRANCH  20  22
ATOM     22  O   UNL     1      67.984 245.247 334.347  0.00  0.00    +0.000 OA
ATOM     23  H   UNL     1      67.823 245.627 335.228  0.00  0.00    +0.000 HD
ENDBRANCH  20  22
BRANCH  19  24
ATOM     24  O   UNL     1      65.035 242.611 331.742  0.00  0.00    +0.000 OA
ATOM     25  H   UNL     1      64.486 241.812 331.832  0.00  0.00    +0.000 HD
ENDBRANCH  19  24
ENDBRANCH  15  16
ENDBRANCH   2  15
TORSDOF 10
ENDMDL
MODEL 6
REMARK VINA RESULT:      -3.8     26.953     27.924
REMARK  Name = 76617_Cardol.pdbqt.pdb
REMARK  10 active torsions:
REMARK  status: ('A' for Active; 'I' for Inactive)
REMARK    1  A    between atoms: C_1  and  C_2
REMARK    2  A    between atoms: C_3  and  C_4
REMARK    3  A    between atoms: C_5  and  C_6
REMARK    4  A    between atoms: C_7  and  C_8
REMARK    5  A    between atoms: C_8  and  C_9
REMARK    6  A    between atoms: C_10  and  C_11
REMARK    7  A    between atoms: C_14  and  C_15
REMARK    8  A    between atoms: C_15  and  C_16
REMARK    9  A    between atoms: C_19  and  O_24
REMARK   10  A    between atoms: C_20  and  O_22
REMARK                            x       y       z     vdW  Elec       q    Type
REMARK                         _______ _______ _______ _____ _____    ______ ____
ROOT
ATOM      1  C   UNL     1      48.715 237.499 325.009  0.00  0.00    +0.000 C 
ATOM      2  C   UNL     1      48.254 236.456 324.636  0.00  0.00    +0.000 C 
ENDROOT
BRANCH   1   3
ATOM      3  C   UNL     1      49.303 238.830 325.484  0.00  0.00    +0.000 C 
ATOM      4  C   UNL     1      49.893 240.162 325.961  0.00  0.00    +0.000 C 
BRANCH   4   5
ATOM      5  C   UNL     1      50.483 241.493 326.436  0.00  0.00    +0.000 C 
ATOM      6  C   UNL     1      51.074 242.823 326.912  0.00  0.00    +0.000 C 
BRANCH   6   7
ATOM      7  C   UNL     1      51.665 244.154 327.388  0.00  0.00    +0.000 C 
ATOM      8  C   UNL     1      52.256 245.484 327.864  0.00  0.00    +0.000 C 
BRANCH   8   9
ATOM      9  C   UNL     1      52.848 246.814 328.339  0.00  0.00    +0.000 C 
BRANCH   9  10
ATOM     10  C   UNL     1      53.441 248.143 328.816  0.00  0.00    +0.000 C 
ATOM     11  C   UNL     1      54.034 249.472 329.293  0.00  0.00    +0.000 C 
BRANCH  11  12
ATOM     12  C   UNL     1      54.627 250.802 329.770  0.00  0.00    +0.000 C 
ATOM     13  C   UNL     1      55.220 252.131 330.246  0.00  0.00    +0.000 C 
ATOM     14  C   UNL     1      55.813 253.460 330.724  0.00  0.00    +0.000 C 
ENDBRANCH  11  12
ENDBRANCH   9  10
ENDBRANCH   8   9
ENDBRANCH   6   7
ENDBRANCH   4   5
ENDBRANCH   1   3
BRANCH   2  15
ATOM     15  C   UNL     1      47.666 235.123 324.160  0.00  0.00    +0.000 C 
BRANCH  15  16
ATOM     16  C   UNL     1      47.119 233.885 323.717  0.00  0.00    +0.000 A 
ATOM     17  C   UNL     1      47.959 232.899 323.202  0.00  0.00    +0.000 A 
ATOM     18  C   UNL     1      45.745 233.665 323.800  0.00  0.00    +0.000 A 
ATOM     19  C   UNL     1      45.219 232.451 323.364  0.00  0.00    +0.000 A 
ATOM     20  C   UNL     1      47.413 231.692 322.772  0.00  0.00    +0.000 A 
ATOM     21  C   UNL     1      46.045 231.457 322.848  0.00  0.00    +0.000 A 
BRANCH  20  22
ATOM     22  O   UNL     1      48.215 230.711 322.265  0.00  0.00    +0.000 OA
ATOM     23  H   UNL     1      49.084 231.099 322.060  0.00  0.00    +0.000 HD
ENDBRANCH  20  22
BRANCH  19  24
ATOM     24  O   UNL     1      43.877 232.210 323.434  0.00  0.00    +0.000 OA
ATOM     25  H   UNL     1      43.499 232.782 324.125  0.00  0.00    +0.000 HD
ENDBRANCH  19  24
ENDBRANCH  15  16
ENDBRANCH   2  15
TORSDOF 10
ENDMDL
MODEL 7
REMARK VINA RESULT:      -3.6     26.018     30.207
REMARK  Name = 76617_Cardol.pdbqt.pdb
REMARK  10 active torsions:
REMARK  status: ('A' for Active; 'I' for Inactive)
REMARK    1  A    between atoms: C_1  and  C_2
REMARK    2  A    between atoms: C_3  and  C_4
REMARK    3  A    between atoms: C_5  and  C_6
REMARK    4  A    between atoms: C_7  and  C_8
REMARK    5  A    between atoms: C_8  and  C_9
REMARK    6  A    between atoms: C_10  and  C_11
REMARK    7  A    between atoms: C_14  and  C_15
REMARK    8  A    between atoms: C_15  and  C_16
REMARK    9  A    between atoms: C_19  and  O_24
REMARK   10  A    between atoms: C_20  and  O_22
REMARK                            x       y       z     vdW  Elec       q    Type
REMARK                         _______ _______ _______ _____ _____    ______ ____
ROOT
ATOM      1  C   UNL     1      55.574 246.261 322.933  0.00  0.00    +0.000 C 
ATOM      2  C   UNL     1      54.856 245.533 323.561  0.00  0.00    +0.000 C 
ENDROOT
BRANCH   1   3
ATOM      3  C   UNL     1      56.490 247.191 322.132  0.00  0.00    +0.000 C 
ATOM      4  C   UNL     1      57.407 248.122 321.332  0.00  0.00    +0.000 C 
BRANCH   4   5
ATOM      5  C   UNL     1      58.325 249.052 320.533  0.00  0.00    +0.000 C 
ATOM      6  C   UNL     1      59.242 249.982 319.734  0.00  0.00    +0.000 C 
BRANCH   6   7
ATOM      7  C   UNL     1      60.159 250.913 318.934  0.00  0.00    +0.000 C 
ATOM      8  C   UNL     1      61.076 251.844 318.135  0.00  0.00    +0.000 C 
BRANCH   8   9
ATOM      9  C   UNL     1      61.992 252.775 317.337  0.00  0.00    +0.000 C 
BRANCH   9  10
ATOM     10  C   UNL     1      62.910 253.705 316.537  0.00  0.00    +0.000 C 
ATOM     11  C   UNL     1      63.828 254.634 315.737  0.00  0.00    +0.000 C 
BRANCH  11  12
ATOM     12  C   UNL     1      64.746 255.564 314.937  0.00  0.00    +0.000 C 
ATOM     13  C   UNL     1      65.665 256.492 314.138  0.00  0.00    +0.000 C 
ATOM     14  C   UNL     1      66.583 257.422 313.339  0.00  0.00    +0.000 C 
ENDBRANCH  11  12
ENDBRANCH   9  10
ENDBRANCH   8   9
ENDBRANCH   6   7
ENDBRANCH   4   5
ENDBRANCH   1   3
BRANCH   2  15
ATOM     15  C   UNL     1      53.939 244.602 324.361  0.00  0.00    +0.000 C 
BRANCH  15  16
ATOM     16  C   UNL     1      53.087 243.737 325.105  0.00  0.00    +0.000 A 
ATOM     17  C   UNL     1      52.077 243.030 324.456  0.00  0.00    +0.000 A 
ATOM     18  C   UNL     1      53.267 243.602 326.481  0.00  0.00    +0.000 A 
ATOM     19  C   UNL     1      52.428 242.754 327.200  0.00  0.00    +0.000 A 
ATOM     20  C   UNL     1      51.250 242.186 325.193  0.00  0.00    +0.000 A 
ATOM     21  C   UNL     1      51.416 242.041 326.566  0.00  0.00    +0.000 A 
BRANCH  20  22
ATOM     22  O   UNL     1      50.254 241.482 324.579  0.00  0.00    +0.000 OA
ATOM     23  H   UNL     1      49.751 241.003 325.261  0.00  0.00    +0.000 HD
ENDBRANCH  20  22
BRANCH  19  24
ATOM     24  O   UNL     1      52.582 242.605 328.548  0.00  0.00    +0.000 OA
ATOM     25  H   UNL     1      51.723 242.352 328.928  0.00  0.00    +0.000 HD
ENDBRANCH  19  24
ENDBRANCH  15  16
ENDBRANCH   2  15
TORSDOF 10
ENDMDL
MODEL 8
REMARK VINA RESULT:      -3.5     16.187     21.159
REMARK  Name = 76617_Cardol.pdbqt.pdb
REMARK  10 active torsions:
REMARK  status: ('A' for Active; 'I' for Inactive)
REMARK    1  A    between atoms: C_1  and  C_2
REMARK    2  A    between atoms: C_3  and  C_4
REMARK    3  A    between atoms: C_5  and  C_6
REMARK    4  A    between atoms: C_7  and  C_8
REMARK    5  A    between atoms: C_8  and  C_9
REMARK    6  A    between atoms: C_10  and  C_11
REMARK    7  A    between atoms: C_14  and  C_15
REMARK    8  A    between atoms: C_15  and  C_16
REMARK    9  A    between atoms: C_19  and  O_24
REMARK   10  A    between atoms: C_20  and  O_22
REMARK                            x       y       z     vdW  Elec       q    Type
REMARK                         _______ _______ _______ _____ _____    ______ ____
ROOT
ATOM      1  C   UNL     1      67.348 220.446 335.068  0.00  0.00    +0.000 C 
ATOM      2  C   UNL     1      66.832 220.462 333.984  0.00  0.00    +0.000 C 
ENDROOT
BRANCH   1   3
ATOM      3  C   UNL     1      68.007 220.424 336.450  0.00  0.00    +0.000 C 
ATOM      4  C   UNL     1      68.667 220.401 337.833  0.00  0.00    +0.000 C 
BRANCH   4   5
ATOM      5  C   UNL     1      69.327 220.378 339.214  0.00  0.00    +0.000 C 
ATOM      6  C   UNL     1      69.989 220.356 340.595  0.00  0.00    +0.000 C 
BRANCH   6   7
ATOM      7  C   UNL     1      70.651 220.334 341.976  0.00  0.00    +0.000 C 
ATOM      8  C   UNL     1      71.312 220.312 343.358  0.00  0.00    +0.000 C 
BRANCH   8   9
ATOM      9  C   UNL     1      71.972 220.289 344.739  0.00  0.00    +0.000 C 
BRANCH   9  10
ATOM     10  C   UNL     1      72.634 220.265 346.120  0.00  0.00    +0.000 C 
ATOM     11  C   UNL     1      73.297 220.239 347.500  0.00  0.00    +0.000 C 
BRANCH  11  12
ATOM     12  C   UNL     1      73.959 220.214 348.882  0.00  0.00    +0.000 C 
ATOM     13  C   UNL     1      74.620 220.188 350.262  0.00  0.00    +0.000 C 
ATOM     14  C   UNL     1      75.282 220.163 351.644  0.00  0.00    +0.000 C 
ENDBRANCH  11  12
ENDBRANCH   9  10
ENDBRANCH   8   9
ENDBRANCH   6   7
ENDBRANCH   4   5
ENDBRANCH   1   3
BRANCH   2  15
ATOM     15  C   UNL     1      66.172 220.484 332.602  0.00  0.00    +0.000 C 
BRANCH  15  16
ATOM     16  C   UNL     1      65.558 220.505 331.317  0.00  0.00    +0.000 A 
ATOM     17  C   UNL     1      64.904 219.370 330.841  0.00  0.00    +0.000 A 
ATOM     18  C   UNL     1      65.612 221.662 330.541  0.00  0.00    +0.000 A 
ATOM     19  C   UNL     1      65.008 221.672 329.286  0.00  0.00    +0.000 A 
ATOM     20  C   UNL     1      64.306 219.401 329.584  0.00  0.00    +0.000 A 
ATOM     21  C   UNL     1      64.352 220.547 328.797  0.00  0.00    +0.000 A 
BRANCH  20  22
ATOM     22  O   UNL     1      63.660 218.302 329.096  0.00  0.00    +0.000 OA
ATOM     23  H   UNL     1      63.623 217.630 329.799  0.00  0.00    +0.000 HD
ENDBRANCH  20  22
BRANCH  19  24
ATOM     24  O   UNL     1      65.048 222.792 328.506  0.00  0.00    +0.000 OA
ATOM     25  H   UNL     1      64.142 223.138 328.421  0.00  0.00    +0.000 HD
ENDBRANCH  19  24
ENDBRANCH  15  16
ENDBRANCH   2  15
TORSDOF 10
ENDMDL
MODEL 9
REMARK VINA RESULT:      -3.4     19.704     25.660
REMARK  Name = 76617_Cardol.pdbqt.pdb
REMARK  10 active torsions:
REMARK  status: ('A' for Active; 'I' for Inactive)
REMARK    1  A    between atoms: C_1  and  C_2
REMARK    2  A    between atoms: C_3  and  C_4
REMARK    3  A    between atoms: C_5  and  C_6
REMARK    4  A    between atoms: C_7  and  C_8
REMARK    5  A    between atoms: C_8  and  C_9
REMARK    6  A    between atoms: C_10  and  C_11
REMARK    7  A    between atoms: C_14  and  C_15
REMARK    8  A    between atoms: C_15  and  C_16
REMARK    9  A    between atoms: C_19  and  O_24
REMARK   10  A    between atoms: C_20  and  O_22
REMARK                            x       y       z     vdW  Elec       q    Type
REMARK                         _______ _______ _______ _____ _____    ______ ____
ROOT
ATOM      1  C   UNL     1      62.902 225.808 326.001  0.00  0.00    +0.000 C 
ATOM      2  C   UNL     1      62.687 226.600 325.126  0.00  0.00    +0.000 C 
ENDROOT
BRANCH   1   3
ATOM      3  C   UNL     1      63.176 224.796 327.117  0.00  0.00    +0.000 C 
ATOM      4  C   UNL     1      63.450 223.784 328.234  0.00  0.00    +0.000 C 
BRANCH   4   5
ATOM      5  C   UNL     1      63.722 222.772 329.351  0.00  0.00    +0.000 C 
ATOM      6  C   UNL     1      63.993 221.760 330.468  0.00  0.00    +0.000 C 
BRANCH   6   7
ATOM      7  C   UNL     1      64.265 220.747 331.585  0.00  0.00    +0.000 C 
ATOM      8  C   UNL     1      64.536 219.736 332.702  0.00  0.00    +0.000 C 
BRANCH   8   9
ATOM      9  C   UNL     1      64.807 218.725 333.820  0.00  0.00    +0.000 C 
BRANCH   9  10
ATOM     10  C   UNL     1      65.078 217.713 334.938  0.00  0.00    +0.000 C 
ATOM     11  C   UNL     1      65.347 216.701 336.055  0.00  0.00    +0.000 C 
BRANCH  11  12
ATOM     12  C   UNL     1      65.617 215.689 337.173  0.00  0.00    +0.000 C 
ATOM     13  C   UNL     1      65.886 214.678 338.291  0.00  0.00    +0.000 C 
ATOM     14  C   UNL     1      66.155 213.666 339.410  0.00  0.00    +0.000 C 
ENDBRANCH  11  12
ENDBRANCH   9  10
ENDBRANCH   8   9
ENDBRANCH   6   7
ENDBRANCH   4   5
ENDBRANCH   1   3
BRANCH   2  15
ATOM     15  C   UNL     1      62.412 227.614 324.010  0.00  0.00    +0.000 C 
BRANCH  15  16
ATOM     16  C   UNL     1      62.157 228.556 322.973  0.00  0.00    +0.000 A 
ATOM     17  C   UNL     1      63.136 229.483 322.621  0.00  0.00    +0.000 A 
ATOM     18  C   UNL     1      60.929 228.547 322.315  0.00  0.00    +0.000 A 
ATOM     19  C   UNL     1      60.688 229.473 321.303  0.00  0.00    +0.000 A 
ATOM     20  C   UNL     1      62.876 230.400 321.605  0.00  0.00    +0.000 A 
ATOM     21  C   UNL     1      61.655 230.404 320.939  0.00  0.00    +0.000 A 
BRANCH  20  22
ATOM     22  O   UNL     1      63.819 231.318 321.242  0.00  0.00    +0.000 OA
ATOM     23  H   UNL     1      64.379 230.926 320.549  0.00  0.00    +0.000 HD
ENDBRANCH  20  22
BRANCH  19  24
ATOM     24  O   UNL     1      59.493 229.486 320.643  0.00  0.00    +0.000 OA
ATOM     25  H   UNL     1      59.643 229.180 319.731  0.00  0.00    +0.000 HD
ENDBRANCH  19  24
ENDBRANCH  15  16
ENDBRANCH   2  15
TORSDOF 10
ENDMDL
