MODEL 1
REMARK VINA RESULT:      -4.7      0.000      0.000
REMARK  Name = 85668777_Hyaluronidase.pdbqt.pdb
REMARK  5 active torsions:
REMARK  status: ('A' for Active; 'I' for Inactive)
REMARK    1  A    between atoms: N_1  and  C_13
REMARK    2  A    between atoms: C_14  and  C_15
REMARK    3  A    between atoms: C_15  and  C_16
REMARK    4  A    between atoms: C_17  and  C_19
REMARK    5  A    between atoms: C_19  and  O_20
REMARK                            x       y       z     vdW  Elec       q    Type
REMARK                         _______ _______ _______ _____ _____    ______ ____
ROOT
ATOM      1  N   UNL     1      70.512 220.391 339.843  0.00  0.00    +0.000 N 
ATOM      2  C   UNL     1      70.545 219.559 337.571  0.00  0.00    +0.000 C 
ATOM      3  C   UNL     1      70.172 221.040 337.647  0.00  0.00    +0.000 A 
ATOM      4  C   UNL     1      70.751 219.233 339.101  0.00  0.00    +0.000 C 
ATOM      5  C   UNL     1      70.171 221.457 338.994  0.00  0.00    +0.000 A 
ATOM      6  C   UNL     1      69.355 218.763 336.948  0.00  0.00    +0.000 C 
ATOM      7  C   UNL     1      71.864 219.407 336.748  0.00  0.00    +0.000 C 
ATOM      8  C   UNL     1      69.862 221.926 336.625  0.00  0.00    +0.000 A 
ATOM      9  C   UNL     1      69.863 222.762 339.334  0.00  0.00    +0.000 A 
ATOM     10  C   UNL     1      71.096 218.075 339.699  0.00  0.00    +0.000 C 
ATOM     11  C   UNL     1      69.552 223.241 336.969  0.00  0.00    +0.000 A 
ATOM     12  C   UNL     1      69.554 223.654 338.308  0.00  0.00    +0.000 A 
ENDROOT
BRANCH   1  13
ATOM     13  C   UNL     1      70.598 220.510 341.279  0.00  0.00    +0.000 C 
ATOM     14  C   UNL     1      70.684 220.640 342.803  0.00  0.00    +0.000 C 
BRANCH  14  15
ATOM     15  C   UNL     1      70.770 220.771 344.327  0.00  0.00    +0.000 C 
BRANCH  15  16
ATOM     16  C   UNL     1      70.857 220.902 345.849  0.00  0.00    +0.000 C 
ATOM     17  C   UNL     1      70.943 221.034 347.373  0.00  0.00    +0.000 C 
BRANCH  17  19
ATOM     18  O   UNL     1      72.074 221.200 349.411  0.00  0.00    +0.000 OA
ATOM     19  C   UNL     1      71.021 221.157 348.797  0.00  0.00    +0.000 C 
BRANCH  19  20
ATOM     20  O   UNL     1      69.825 221.221 349.409  0.00  0.00    +0.000 OA
ATOM     21  H   UNL     1      69.230 221.572 348.716  0.00  0.00    +0.000 HD
ENDBRANCH  19  20
ENDBRANCH  17  19
ENDBRANCH  15  16
ENDBRANCH  14  15
ENDBRANCH   1  13
TORSDOF 5
ENDMDL
MODEL 2
REMARK VINA RESULT:      -4.7     15.211     17.752
REMARK  Name = 85668777_Hyaluronidase.pdbqt.pdb
REMARK  5 active torsions:
REMARK  status: ('A' for Active; 'I' for Inactive)
REMARK    1  A    between atoms: N_1  and  C_13
REMARK    2  A    between atoms: C_14  and  C_15
REMARK    3  A    between atoms: C_15  and  C_16
REMARK    4  A    between atoms: C_17  and  C_19
REMARK    5  A    between atoms: C_19  and  O_20
REMARK                            x       y       z     vdW  Elec       q    Type
REMARK                         _______ _______ _______ _____ _____    ______ ____
ROOT
ATOM      1  N   UNL     1      56.898 217.108 337.097  0.00  0.00    +0.000 N 
ATOM      2  C   UNL     1      57.470 215.916 339.124  0.00  0.00    +0.000 C 
ATOM      3  C   UNL     1      57.837 217.398 339.193  0.00  0.00    +0.000 A 
ATOM      4  C   UNL     1      56.848 215.839 337.676  0.00  0.00    +0.000 C 
ATOM      5  C   UNL     1      57.479 218.030 337.984  0.00  0.00    +0.000 A 
ATOM      6  C   UNL     1      58.768 215.060 339.260  0.00  0.00    +0.000 C 
ATOM      7  C   UNL     1      56.421 215.597 340.238  0.00  0.00    +0.000 C 
ATOM      8  C   UNL     1      58.431 218.113 340.224  0.00  0.00    +0.000 A 
ATOM      9  C   UNL     1      57.708 219.381 337.793  0.00  0.00    +0.000 A 
ATOM     10  C   UNL     1      56.330 214.786 337.012  0.00  0.00    +0.000 C 
ATOM     11  C   UNL     1      58.662 219.474 340.030  0.00  0.00    +0.000 A 
ATOM     12  C   UNL     1      58.304 220.101 338.828  0.00  0.00    +0.000 A 
ENDROOT
BRANCH   1  13
ATOM     13  C   UNL     1      56.427 217.458 335.778  0.00  0.00    +0.000 C 
ATOM     14  C   UNL     1      55.922 217.830 334.381  0.00  0.00    +0.000 C 
BRANCH  14  15
ATOM     15  C   UNL     1      55.417 218.201 332.983  0.00  0.00    +0.000 C 
BRANCH  15  16
ATOM     16  C   UNL     1      54.912 218.572 331.586  0.00  0.00    +0.000 C 
ATOM     17  C   UNL     1      54.408 218.943 330.188  0.00  0.00    +0.000 C 
BRANCH  17  19
ATOM     18  O   UNL     1      54.637 219.808 328.030  0.00  0.00    +0.000 OA
ATOM     19  C   UNL     1      53.936 219.287 328.881  0.00  0.00    +0.000 C 
BRANCH  19  20
ATOM     20  O   UNL     1      52.643 218.986 328.668  0.00  0.00    +0.000 OA
ATOM     21  H   UNL     1      52.416 219.494 327.863  0.00  0.00    +0.000 HD
ENDBRANCH  19  20
ENDBRANCH  17  19
ENDBRANCH  15  16
ENDBRANCH  14  15
ENDBRANCH   1  13
TORSDOF 5
ENDMDL
MODEL 3
REMARK VINA RESULT:      -4.7     32.654     34.944
REMARK  Name = 85668777_Hyaluronidase.pdbqt.pdb
REMARK  5 active torsions:
REMARK  status: ('A' for Active; 'I' for Inactive)
REMARK    1  A    between atoms: N_1  and  C_13
REMARK    2  A    between atoms: C_14  and  C_15
REMARK    3  A    between atoms: C_15  and  C_16
REMARK    4  A    between atoms: C_17  and  C_19
REMARK    5  A    between atoms: C_19  and  O_20
REMARK                            x       y       z     vdW  Elec       q    Type
REMARK                         _______ _______ _______ _____ _____    ______ ____
ROOT
ATOM      1  N   UNL     1      56.029 246.746 322.519  0.00  0.00    +0.000 N 
ATOM      2  C   UNL     1      57.611 247.734 320.977  0.00  0.00    +0.000 C 
ATOM      3  C   UNL     1      57.311 248.643 322.168  0.00  0.00    +0.000 A 
ATOM      4  C   UNL     1      56.698 246.494 321.320  0.00  0.00    +0.000 C 
ATOM      5  C   UNL     1      56.385 248.008 323.023  0.00  0.00    +0.000 A 
ATOM      6  C   UNL     1      57.171 248.451 319.662  0.00  0.00    +0.000 C 
ATOM      7  C   UNL     1      59.131 247.371 320.982  0.00  0.00    +0.000 C 
ATOM      8  C   UNL     1      57.807 249.905 322.463  0.00  0.00    +0.000 A 
ATOM      9  C   UNL     1      55.947 248.627 324.180  0.00  0.00    +0.000 A 
ATOM     10  C   UNL     1      56.517 245.340 320.646  0.00  0.00    +0.000 C 
ATOM     11  C   UNL     1      57.364 250.527 323.630  0.00  0.00    +0.000 A 
ATOM     12  C   UNL     1      56.445 249.895 324.479  0.00  0.00    +0.000 A 
ENDROOT
BRANCH   1  13
ATOM     13  C   UNL     1      55.100 245.858 323.175  0.00  0.00    +0.000 C 
ATOM     14  C   UNL     1      54.118 244.911 323.871  0.00  0.00    +0.000 C 
BRANCH  14  15
ATOM     15  C   UNL     1      53.136 243.964 324.567  0.00  0.00    +0.000 C 
BRANCH  15  16
ATOM     16  C   UNL     1      52.154 243.017 325.262  0.00  0.00    +0.000 C 
ATOM     17  C   UNL     1      51.171 242.070 325.959  0.00  0.00    +0.000 C 
BRANCH  17  19
ATOM     18  O   UNL     1      49.247 241.567 327.184  0.00  0.00    +0.000 OA
ATOM     19  C   UNL     1      50.253 241.186 326.611  0.00  0.00    +0.000 C 
BRANCH  19  20
ATOM     20  O   UNL     1      50.597 239.888 326.538  0.00  0.00    +0.000 OA
ATOM     21  H   UNL     1      51.550 239.913 326.319  0.00  0.00    +0.000 HD
ENDBRANCH  19  20
ENDBRANCH  17  19
ENDBRANCH  15  16
ENDBRANCH  14  15
ENDBRANCH   1  13
TORSDOF 5
ENDMDL
MODEL 4
REMARK VINA RESULT:      -4.6      1.737      2.905
REMARK  Name = 85668777_Hyaluronidase.pdbqt.pdb
REMARK  5 active torsions:
REMARK  status: ('A' for Active; 'I' for Inactive)
REMARK    1  A    between atoms: N_1  and  C_13
REMARK    2  A    between atoms: C_14  and  C_15
REMARK    3  A    between atoms: C_15  and  C_16
REMARK    4  A    between atoms: C_17  and  C_19
REMARK    5  A    between atoms: C_19  and  O_20
REMARK                            x       y       z     vdW  Elec       q    Type
REMARK                         _______ _______ _______ _____ _____    ______ ____
ROOT
ATOM      1  N   UNL     1      70.420 221.452 339.842  0.00  0.00    +0.000 N 
ATOM      2  C   UNL     1      70.411 222.543 337.682  0.00  0.00    +0.000 C 
ATOM      3  C   UNL     1      69.441 221.364 337.746  0.00  0.00    +0.000 A 
ATOM      4  C   UNL     1      71.008 222.507 339.142  0.00  0.00    +0.000 C 
ATOM      5  C   UNL     1      69.497 220.776 339.027  0.00  0.00    +0.000 A 
ATOM      6  C   UNL     1      71.490 222.260 336.590  0.00  0.00    +0.000 C 
ATOM      7  C   UNL     1      69.605 223.853 337.403  0.00  0.00    +0.000 C 
ATOM      8  C   UNL     1      68.595 220.862 336.766  0.00  0.00    +0.000 A 
ATOM      9  C   UNL     1      68.710 219.683 339.343  0.00  0.00    +0.000 A 
ATOM     10  C   UNL     1      71.930 223.304 339.720  0.00  0.00    +0.000 C 
ATOM     11  C   UNL     1      67.802 219.761 337.086  0.00  0.00    +0.000 A 
ATOM     12  C   UNL     1      67.859 219.178 338.360  0.00  0.00    +0.000 A 
ENDROOT
BRANCH   1  13
ATOM     13  C   UNL     1      70.697 221.083 341.210  0.00  0.00    +0.000 C 
ATOM     14  C   UNL     1      70.995 220.695 342.661  0.00  0.00    +0.000 C 
BRANCH  14  15
ATOM     15  C   UNL     1      71.294 220.307 344.113  0.00  0.00    +0.000 C 
BRANCH  15  16
ATOM     16  C   UNL     1      71.591 219.920 345.564  0.00  0.00    +0.000 C 
ATOM     17  C   UNL     1      71.889 219.533 347.016  0.00  0.00    +0.000 C 
BRANCH  17  19
ATOM     18  O   UNL     1      73.292 219.092 348.831  0.00  0.00    +0.000 OA
ATOM     19  C   UNL     1      72.165 219.170 348.373  0.00  0.00    +0.000 C 
BRANCH  19  20
ATOM     20  O   UNL     1      71.067 218.920 349.107  0.00  0.00    +0.000 OA
ATOM     21  H   UNL     1      71.255 219.358 349.962  0.00  0.00    +0.000 HD
ENDBRANCH  19  20
ENDBRANCH  17  19
ENDBRANCH  15  16
ENDBRANCH  14  15
ENDBRANCH   1  13
TORSDOF 5
ENDMDL
MODEL 5
REMARK VINA RESULT:      -4.5      7.426     10.330
REMARK  Name = 85668777_Hyaluronidase.pdbqt.pdb
REMARK  5 active torsions:
REMARK  status: ('A' for Active; 'I' for Inactive)
REMARK    1  A    between atoms: N_1  and  C_13
REMARK    2  A    between atoms: C_14  and  C_15
REMARK    3  A    between atoms: C_15  and  C_16
REMARK    4  A    between atoms: C_17  and  C_19
REMARK    5  A    between atoms: C_19  and  O_20
REMARK                            x       y       z     vdW  Elec       q    Type
REMARK                         _______ _______ _______ _____ _____    ______ ____
ROOT
ATOM      1  N   UNL     1      68.858 220.139 337.534  0.00  0.00    +0.000 N 
ATOM      2  C   UNL     1      70.037 219.239 339.447  0.00  0.00    +0.000 C 
ATOM      3  C   UNL     1      70.070 220.767 339.405  0.00  0.00    +0.000 A 
ATOM      4  C   UNL     1      69.198 218.931 338.146  0.00  0.00    +0.000 C 
ATOM      5  C   UNL     1      69.368 221.222 338.269  0.00  0.00    +0.000 A 
ATOM      6  C   UNL     1      71.497 218.693 339.357  0.00  0.00    +0.000 C 
ATOM      7  C   UNL     1      69.304 218.779 340.748  0.00  0.00    +0.000 C 
ATOM      8  C   UNL     1      70.664 221.661 340.284  0.00  0.00    +0.000 A 
ATOM      9  C   UNL     1      69.251 222.574 338.001  0.00  0.00    +0.000 A 
ATOM     10  C   UNL     1      68.819 217.748 337.621  0.00  0.00    +0.000 C 
ATOM     11  C   UNL     1      70.545 223.023 340.012  0.00  0.00    +0.000 A 
ATOM     12  C   UNL     1      69.846 223.475 338.884  0.00  0.00    +0.000 A 
ENDROOT
BRANCH   1  13
ATOM     13  C   UNL     1      68.093 220.288 336.320  0.00  0.00    +0.000 C 
ATOM     14  C   UNL     1      67.284 220.445 335.029  0.00  0.00    +0.000 C 
BRANCH  14  15
ATOM     15  C   UNL     1      66.476 220.602 333.737  0.00  0.00    +0.000 C 
BRANCH  15  16
ATOM     16  C   UNL     1      65.668 220.760 332.446  0.00  0.00    +0.000 C 
ATOM     17  C   UNL     1      64.861 220.917 331.153  0.00  0.00    +0.000 C 
BRANCH  17  19
ATOM     18  O   UNL     1      64.361 220.459 328.918  0.00  0.00    +0.000 OA
ATOM     19  C   UNL     1      64.105 221.062 329.946  0.00  0.00    +0.000 C 
BRANCH  19  20
ATOM     20  O   UNL     1      63.081 221.928 330.041  0.00  0.00    +0.000 OA
ATOM     21  H   UNL     1      63.517 222.804 330.041  0.00  0.00    +0.000 HD
ENDBRANCH  19  20
ENDBRANCH  17  19
ENDBRANCH  15  16
ENDBRANCH  14  15
ENDBRANCH   1  13
TORSDOF 5
ENDMDL
MODEL 6
REMARK VINA RESULT:      -4.5     31.008     33.680
REMARK  Name = 85668777_Hyaluronidase.pdbqt.pdb
REMARK  5 active torsions:
REMARK  status: ('A' for Active; 'I' for Inactive)
REMARK    1  A    between atoms: N_1  and  C_13
REMARK    2  A    between atoms: C_14  and  C_15
REMARK    3  A    between atoms: C_15  and  C_16
REMARK    4  A    between atoms: C_17  and  C_19
REMARK    5  A    between atoms: C_19  and  O_20
REMARK                            x       y       z     vdW  Elec       q    Type
REMARK                         _______ _______ _______ _____ _____    ______ ____
ROOT
ATOM      1  N   UNL     1      49.590 242.216 326.834  0.00  0.00    +0.000 N 
ATOM      2  C   UNL     1      50.422 244.394 327.485  0.00  0.00    +0.000 C 
ATOM      3  C   UNL     1      48.911 244.262 327.681  0.00  0.00    +0.000 A 
ATOM      4  C   UNL     1      50.767 242.963 326.915  0.00  0.00    +0.000 C 
ATOM      5  C   UNL     1      48.496 242.974 327.283  0.00  0.00    +0.000 A 
ATOM      6  C   UNL     1      50.707 245.530 326.453  0.00  0.00    +0.000 C 
ATOM      7  C   UNL     1      51.095 244.660 328.870  0.00  0.00    +0.000 C 
ATOM      8  C   UNL     1      47.999 245.191 328.161  0.00  0.00    +0.000 A 
ATOM      9  C   UNL     1      47.166 242.600 327.362  0.00  0.00    +0.000 A 
ATOM     10  C   UNL     1      51.954 242.446 326.539  0.00  0.00    +0.000 C 
ATOM     11  C   UNL     1      46.659 244.813 328.240  0.00  0.00    +0.000 A 
ATOM     12  C   UNL     1      46.248 243.532 327.846  0.00  0.00    +0.000 A 
ENDROOT
BRANCH   1  13
ATOM     13  C   UNL     1      49.481 240.856 326.364  0.00  0.00    +0.000 C 
ATOM     14  C   UNL     1      49.360 239.414 325.861  0.00  0.00    +0.000 C 
BRANCH  14  15
ATOM     15  C   UNL     1      49.238 237.973 325.358  0.00  0.00    +0.000 C 
BRANCH  15  16
ATOM     16  C   UNL     1      49.116 236.532 324.856  0.00  0.00    +0.000 C 
ATOM     17  C   UNL     1      48.994 235.090 324.353  0.00  0.00    +0.000 C 
BRANCH  17  19
ATOM     18  O   UNL     1      48.347 233.444 322.827  0.00  0.00    +0.000 OA
ATOM     19  C   UNL     1      48.879 233.743 323.882  0.00  0.00    +0.000 C 
BRANCH  19  20
ATOM     20  O   UNL     1      49.413 232.826 324.708  0.00  0.00    +0.000 OA
ATOM     21  H   UNL     1      49.860 233.363 325.393  0.00  0.00    +0.000 HD
ENDBRANCH  19  20
ENDBRANCH  17  19
ENDBRANCH  15  16
ENDBRANCH  14  15
ENDBRANCH   1  13
TORSDOF 5
ENDMDL
MODEL 7
REMARK VINA RESULT:      -4.4     22.185     25.526
REMARK  Name = 85668777_Hyaluronidase.pdbqt.pdb
REMARK  5 active torsions:
REMARK  status: ('A' for Active; 'I' for Inactive)
REMARK    1  A    between atoms: N_1  and  C_13
REMARK    2  A    between atoms: C_14  and  C_15
REMARK    3  A    between atoms: C_15  and  C_16
REMARK    4  A    between atoms: C_17  and  C_19
REMARK    5  A    between atoms: C_19  and  O_20
REMARK                            x       y       z     vdW  Elec       q    Type
REMARK                         _______ _______ _______ _____ _____    ______ ____
ROOT
ATOM      1  N   UNL     1      58.290 229.467 319.139  0.00  0.00    +0.000 N 
ATOM      2  C   UNL     1      57.171 230.498 317.257  0.00  0.00    +0.000 C 
ATOM      3  C   UNL     1      56.498 229.197 317.697  0.00  0.00    +0.000 A 
ATOM      4  C   UNL     1      58.357 230.576 318.295  0.00  0.00    +0.000 C 
ATOM      5  C   UNL     1      57.199 228.652 318.792  0.00  0.00    +0.000 A 
ATOM      6  C   UNL     1      57.675 230.341 315.787  0.00  0.00    +0.000 C 
ATOM      7  C   UNL     1      56.159 231.677 317.421  0.00  0.00    +0.000 C 
ATOM      8  C   UNL     1      55.379 228.562 317.176  0.00  0.00    +0.000 A 
ATOM      9  C   UNL     1      56.789 227.468 319.380  0.00  0.00    +0.000 A 
ATOM     10  C   UNL     1      59.324 231.506 318.434  0.00  0.00    +0.000 C 
ATOM     11  C   UNL     1      54.968 227.370 317.769  0.00  0.00    +0.000 A 
ATOM     12  C   UNL     1      55.664 226.829 318.859  0.00  0.00    +0.000 A 
ENDROOT
BRANCH   1  13
ATOM     13  C   UNL     1      59.195 229.170 320.223  0.00  0.00    +0.000 C 
ATOM     14  C   UNL     1      60.159 228.857 321.371  0.00  0.00    +0.000 C 
BRANCH  14  15
ATOM     15  C   UNL     1      61.125 228.544 322.519  0.00  0.00    +0.000 C 
BRANCH  15  16
ATOM     16  C   UNL     1      62.090 228.230 323.665  0.00  0.00    +0.000 C 
ATOM     17  C   UNL     1      63.056 227.917 324.812  0.00  0.00    +0.000 C 
BRANCH  17  19
ATOM     18  O   UNL     1      65.083 228.089 325.961  0.00  0.00    +0.000 OA
ATOM     19  C   UNL     1      63.958 227.626 325.885  0.00  0.00    +0.000 C 
BRANCH  19  20
ATOM     20  O   UNL     1      63.457 226.789 326.810  0.00  0.00    +0.000 OA
ATOM     21  H   UNL     1      64.227 226.246 327.073  0.00  0.00    +0.000 HD
ENDBRANCH  19  20
ENDBRANCH  17  19
ENDBRANCH  15  16
ENDBRANCH  14  15
ENDBRANCH   1  13
TORSDOF 5
ENDMDL
MODEL 8
REMARK VINA RESULT:      -4.3     12.511     15.304
REMARK  Name = 85668777_Hyaluronidase.pdbqt.pdb
REMARK  5 active torsions:
REMARK  status: ('A' for Active; 'I' for Inactive)
REMARK    1  A    between atoms: N_1  and  C_13
REMARK    2  A    between atoms: C_14  and  C_15
REMARK    3  A    between atoms: C_15  and  C_16
REMARK    4  A    between atoms: C_17  and  C_19
REMARK    5  A    between atoms: C_19  and  O_20
REMARK                            x       y       z     vdW  Elec       q    Type
REMARK                         _______ _______ _______ _____ _____    ______ ____
ROOT
ATOM      1  N   UNL     1      62.505 223.453 327.363  0.00  0.00    +0.000 N 
ATOM      2  C   UNL     1      61.872 224.534 325.293  0.00  0.00    +0.000 C 
ATOM      3  C   UNL     1      60.663 224.157 326.150  0.00  0.00    +0.000 A 
ATOM      4  C   UNL     1      63.049 224.015 326.207  0.00  0.00    +0.000 C 
ATOM      5  C   UNL     1      61.103 223.533 327.336  0.00  0.00    +0.000 A 
ATOM      6  C   UNL     1      61.794 223.771 323.933  0.00  0.00    +0.000 C 
ATOM      7  C   UNL     1      61.903 226.086 325.109  0.00  0.00    +0.000 C 
ATOM      8  C   UNL     1      59.311 224.347 325.901  0.00  0.00    +0.000 A 
ATOM      9  C   UNL     1      60.197 223.094 328.285  0.00  0.00    +0.000 A 
ATOM     10  C   UNL     1      64.382 224.054 326.006  0.00  0.00    +0.000 C 
ATOM     11  C   UNL     1      58.400 223.904 326.858  0.00  0.00    +0.000 A 
ATOM     12  C   UNL     1      58.838 223.285 328.037  0.00  0.00    +0.000 A 
ENDROOT
BRANCH   1  13
ATOM     13  C   UNL     1      63.250 222.867 328.452  0.00  0.00    +0.000 C 
ATOM     14  C   UNL     1      64.038 222.248 329.610  0.00  0.00    +0.000 C 
BRANCH  14  15
ATOM     15  C   UNL     1      64.826 221.630 330.769  0.00  0.00    +0.000 C 
BRANCH  15  16
ATOM     16  C   UNL     1      65.613 221.013 331.928  0.00  0.00    +0.000 C 
ATOM     17  C   UNL     1      66.401 220.396 333.088  0.00  0.00    +0.000 C 
BRANCH  17  19
ATOM     18  O   UNL     1      68.108 219.101 334.020  0.00  0.00    +0.000 OA
ATOM     19  C   UNL     1      67.136 219.820 334.174  0.00  0.00    +0.000 C 
BRANCH  19  20
ATOM     20  O   UNL     1      66.659 220.142 335.389  0.00  0.00    +0.000 OA
ATOM     21  H   UNL     1      66.817 219.335 335.920  0.00  0.00    +0.000 HD
ENDBRANCH  19  20
ENDBRANCH  17  19
ENDBRANCH  15  16
ENDBRANCH  14  15
ENDBRANCH   1  13
TORSDOF 5
ENDMDL
MODEL 9
REMARK VINA RESULT:      -4.3      6.284      8.540
REMARK  Name = 85668777_Hyaluronidase.pdbqt.pdb
REMARK  5 active torsions:
REMARK  status: ('A' for Active; 'I' for Inactive)
REMARK    1  A    between atoms: N_1  and  C_13
REMARK    2  A    between atoms: C_14  and  C_15
REMARK    3  A    between atoms: C_15  and  C_16
REMARK    4  A    between atoms: C_17  and  C_19
REMARK    5  A    between atoms: C_19  and  O_20
REMARK                            x       y       z     vdW  Elec       q    Type
REMARK                         _______ _______ _______ _____ _____    ______ ____
ROOT
ATOM      1  N   UNL     1      73.546 223.798 338.337  0.00  0.00    +0.000 N 
ATOM      2  C   UNL     1      75.557 225.123 338.092  0.00  0.00    +0.000 C 
ATOM      3  C   UNL     1      75.395 224.561 339.504  0.00  0.00    +0.000 A 
ATOM      4  C   UNL     1      74.261 224.546 337.400  0.00  0.00    +0.000 C 
ATOM      5  C   UNL     1      74.208 223.803 339.577  0.00  0.00    +0.000 A 
ATOM      6  C   UNL     1      75.551 226.683 338.158  0.00  0.00    +0.000 C 
ATOM      7  C   UNL     1      76.869 224.554 337.463  0.00  0.00    +0.000 C 
ATOM      8  C   UNL     1      76.217 224.708 340.612  0.00  0.00    +0.000 A 
ATOM      9  C   UNL     1      73.830 223.184 340.755  0.00  0.00    +0.000 A 
ATOM     10  C   UNL     1      73.821 224.687 336.133  0.00  0.00    +0.000 C 
ATOM     11  C   UNL     1      75.836 224.084 341.799  0.00  0.00    +0.000 A 
ATOM     12  C   UNL     1      74.656 223.331 341.870  0.00  0.00    +0.000 A 
ENDROOT
BRANCH   1  13
ATOM     13  C   UNL     1      72.303 223.105 338.099  0.00  0.00    +0.000 C 
ATOM     14  C   UNL     1      70.984 222.371 337.841  0.00  0.00    +0.000 C 
BRANCH  14  15
ATOM     15  C   UNL     1      69.664 221.637 337.582  0.00  0.00    +0.000 C 
BRANCH  15  16
ATOM     16  C   UNL     1      68.346 220.904 337.322  0.00  0.00    +0.000 C 
ATOM     17  C   UNL     1      67.026 220.171 337.061  0.00  0.00    +0.000 C 
BRANCH  17  19
ATOM     18  O   UNL     1      65.007 219.811 335.942  0.00  0.00    +0.000 OA
ATOM     19  C   UNL     1      65.793 219.486 336.816  0.00  0.00    +0.000 C 
BRANCH  19  20
ATOM     20  O   UNL     1      65.571 218.445 337.637  0.00  0.00    +0.000 OA
ATOM     21  H   UNL     1      65.376 218.867 338.498  0.00  0.00    +0.000 HD
ENDBRANCH  19  20
ENDBRANCH  17  19
ENDBRANCH  15  16
ENDBRANCH  14  15
ENDBRANCH   1  13
TORSDOF 5
ENDMDL
