MODEL 1
REMARK VINA RESULT:      -3.9      0.000      0.000
REMARK  Name = 86311066_OplopantriolA.pdbqt.pdb
REMARK  12 active torsions:
REMARK  status: ('A' for Active; 'I' for Inactive)
REMARK    1  A    between atoms: C_1  and  C_3
REMARK    2  A    between atoms: C_2  and  C_13
REMARK    3  A    between atoms: C_4  and  C_5
REMARK    4  A    between atoms: C_6  and  C_7
REMARK    5  A    between atoms: C_8  and  C_9
REMARK    6  A    between atoms: C_10  and  O_11
REMARK    7  A    between atoms: C_13  and  O_14
REMARK    8  A    between atoms: C_13  and  C_16
REMARK    9  A    between atoms: C_17  and  C_18
REMARK   10  A    between atoms: C_19  and  C_20
REMARK   11  A    between atoms: C_20  and  C_21
REMARK   12  A    between atoms: C_20  and  O_23
REMARK                            x       y       z     vdW  Elec       q    Type
REMARK                         _______ _______ _______ _____ _____    ______ ____
ROOT
ATOM      1  C   UNL     1      57.940 216.110 341.123  0.00  0.00    +0.000 C 
ATOM      2  C   UNL     1      58.302 215.810 342.228  0.00  0.00    +0.000 C 
ENDROOT
BRANCH   1   3
ATOM      3  C   UNL     1      57.477 216.492 339.715  0.00  0.00    +0.000 C 
ATOM      4  C   UNL     1      57.013 216.874 338.306  0.00  0.00    +0.000 C 
BRANCH   4   5
ATOM      5  C   UNL     1      56.548 217.256 336.897  0.00  0.00    +0.000 C 
ATOM      6  C   UNL     1      56.082 217.638 335.489  0.00  0.00    +0.000 C 
BRANCH   6   7
ATOM      7  C   UNL     1      55.616 218.020 334.081  0.00  0.00    +0.000 C 
ATOM      8  C   UNL     1      55.150 218.401 332.672  0.00  0.00    +0.000 C 
BRANCH   8   9
ATOM      9  C   UNL     1      54.686 218.783 331.264  0.00  0.00    +0.000 C 
ATOM     10  C   UNL     1      54.222 219.164 329.855  0.00  0.00    +0.000 C 
BRANCH  10  11
ATOM     11  O   UNL     1      53.819 219.495 328.634  0.00  0.00    +0.000 OA
ATOM     12  H   UNL     1      53.945 220.447 328.482  0.00  0.00    +0.000 HD
ENDBRANCH  10  11
ENDBRANCH   8   9
ENDBRANCH   6   7
ENDBRANCH   4   5
ENDBRANCH   1   3
BRANCH   2  13
ATOM     13  C   UNL     1      58.731 215.456 343.531  0.00  0.00    +0.000 C 
BRANCH  13  14
ATOM     14  O   UNL     1      57.763 215.286 344.495  0.00  0.00    +0.000 OA
ATOM     15  H   UNL     1      57.697 216.062 345.076  0.00  0.00    +0.000 HD
ENDBRANCH  13  14
BRANCH  13  16
ATOM     16  C   UNL     1      60.091 215.269 343.888  0.00  0.00    +0.000 C 
ATOM     17  C   UNL     1      61.242 215.112 344.191  0.00  0.00    +0.000 C 
BRANCH  17  18
ATOM     18  C   UNL     1      62.709 214.913 344.579  0.00  0.00    +0.000 C 
ATOM     19  C   UNL     1      63.860 214.757 344.883  0.00  0.00    +0.000 C 
BRANCH  19  20
ATOM     20  C   UNL     1      65.222 214.573 345.243  0.00  0.00    +0.000 C 
BRANCH  20  21
ATOM     21  C   UNL     1      65.825 215.204 346.367  0.00  0.00    +0.000 C 
ATOM     22  C   UNL     1      66.382 215.787 347.431  0.00  0.00    +0.000 C 
ENDBRANCH  20  21
BRANCH  20  23
ATOM     23  O   UNL     1      65.999 213.741 344.463  0.00  0.00    +0.000 OA
ATOM     24  H   UNL     1      66.458 213.069 344.997  0.00  0.00    +0.000 HD
ENDBRANCH  20  23
ENDBRANCH  19  20
ENDBRANCH  17  18
ENDBRANCH  13  16
ENDBRANCH   2  13
TORSDOF 12
ENDMDL
MODEL 2
REMARK VINA RESULT:      -3.9     13.239     16.242
REMARK  Name = 86311066_OplopantriolA.pdbqt.pdb
REMARK  12 active torsions:
REMARK  status: ('A' for Active; 'I' for Inactive)
REMARK    1  A    between atoms: C_1  and  C_3
REMARK    2  A    between atoms: C_2  and  C_13
REMARK    3  A    between atoms: C_4  and  C_5
REMARK    4  A    between atoms: C_6  and  C_7
REMARK    5  A    between atoms: C_8  and  C_9
REMARK    6  A    between atoms: C_10  and  O_11
REMARK    7  A    between atoms: C_13  and  O_14
REMARK    8  A    between atoms: C_13  and  C_16
REMARK    9  A    between atoms: C_17  and  C_18
REMARK   10  A    between atoms: C_19  and  C_20
REMARK   11  A    between atoms: C_20  and  C_21
REMARK   12  A    between atoms: C_20  and  O_23
REMARK                            x       y       z     vdW  Elec       q    Type
REMARK                         _______ _______ _______ _____ _____    ______ ____
ROOT
ATOM      1  C   UNL     1      54.199 219.221 328.887  0.00  0.00    +0.000 C 
ATOM      2  C   UNL     1      54.964 219.398 327.978  0.00  0.00    +0.000 C 
ENDROOT
BRANCH   1   3
ATOM      3  C   UNL     1      53.225 218.997 330.047  0.00  0.00    +0.000 C 
ATOM      4  C   UNL     1      52.250 218.774 331.207  0.00  0.00    +0.000 C 
BRANCH   4   5
ATOM      5  C   UNL     1      51.275 218.552 332.367  0.00  0.00    +0.000 C 
ATOM      6  C   UNL     1      50.299 218.327 333.526  0.00  0.00    +0.000 C 
BRANCH   6   7
ATOM      7  C   UNL     1      49.324 218.103 334.686  0.00  0.00    +0.000 C 
ATOM      8  C   UNL     1      48.348 217.880 335.845  0.00  0.00    +0.000 C 
BRANCH   8   9
ATOM      9  C   UNL     1      47.374 217.657 337.005  0.00  0.00    +0.000 C 
ATOM     10  C   UNL     1      46.398 217.435 338.165  0.00  0.00    +0.000 C 
BRANCH  10  11
ATOM     11  O   UNL     1      45.553 217.242 339.171  0.00  0.00    +0.000 OA
ATOM     12  H   UNL     1      44.652 217.498 338.910  0.00  0.00    +0.000 HD
ENDBRANCH  10  11
ENDBRANCH   8   9
ENDBRANCH   6   7
ENDBRANCH   4   5
ENDBRANCH   1   3
BRANCH   2  13
ATOM     13  C   UNL     1      55.866 219.604 326.906  0.00  0.00    +0.000 C 
BRANCH  13  14
ATOM     14  O   UNL     1      55.879 218.669 325.896  0.00  0.00    +0.000 OA
ATOM     15  H   UNL     1      55.950 217.766 326.246  0.00  0.00    +0.000 HD
ENDBRANCH  13  14
BRANCH  13  16
ATOM     16  C   UNL     1      56.747 220.714 326.821  0.00  0.00    +0.000 C 
ATOM     17  C   UNL     1      57.493 221.651 326.750  0.00  0.00    +0.000 C 
BRANCH  17  18
ATOM     18  C   UNL     1      58.446 222.846 326.660  0.00  0.00    +0.000 C 
ATOM     19  C   UNL     1      59.193 223.783 326.589  0.00  0.00    +0.000 C 
BRANCH  19  20
ATOM     20  C   UNL     1      60.078 224.891 326.507  0.00  0.00    +0.000 C 
BRANCH  20  21
ATOM     21  C   UNL     1      60.912 225.142 325.382  0.00  0.00    +0.000 C 
ATOM     22  C   UNL     1      61.707 225.373 324.335  0.00  0.00    +0.000 C 
ENDBRANCH  20  21
BRANCH  20  23
ATOM     23  O   UNL     1      60.131 225.767 327.572  0.00  0.00    +0.000 OA
ATOM     24  H   UNL     1      60.598 225.382 328.334  0.00  0.00    +0.000 HD
ENDBRANCH  20  23
ENDBRANCH  19  20
ENDBRANCH  17  18
ENDBRANCH  13  16
ENDBRANCH   2  13
TORSDOF 12
ENDMDL
MODEL 3
REMARK VINA RESULT:      -3.8     20.792     21.622
REMARK  Name = 86311066_OplopantriolA.pdbqt.pdb
REMARK  12 active torsions:
REMARK  status: ('A' for Active; 'I' for Inactive)
REMARK    1  A    between atoms: C_1  and  C_3
REMARK    2  A    between atoms: C_2  and  C_13
REMARK    3  A    between atoms: C_4  and  C_5
REMARK    4  A    between atoms: C_6  and  C_7
REMARK    5  A    between atoms: C_8  and  C_9
REMARK    6  A    between atoms: C_10  and  O_11
REMARK    7  A    between atoms: C_13  and  O_14
REMARK    8  A    between atoms: C_13  and  C_16
REMARK    9  A    between atoms: C_17  and  C_18
REMARK   10  A    between atoms: C_19  and  C_20
REMARK   11  A    between atoms: C_20  and  C_21
REMARK   12  A    between atoms: C_20  and  O_23
REMARK                            x       y       z     vdW  Elec       q    Type
REMARK                         _______ _______ _______ _____ _____    ______ ____
ROOT
ATOM      1  C   UNL     1      66.325 233.677 343.838  0.00  0.00    +0.000 C 
ATOM      2  C   UNL     1      66.247 232.554 344.257  0.00  0.00    +0.000 C 
ENDROOT
BRANCH   1   3
ATOM      3  C   UNL     1      66.424 235.108 343.304  0.00  0.00    +0.000 C 
ATOM      4  C   UNL     1      66.524 236.541 342.770  0.00  0.00    +0.000 C 
BRANCH   4   5
ATOM      5  C   UNL     1      66.623 237.974 342.238  0.00  0.00    +0.000 C 
ATOM      6  C   UNL     1      66.721 239.406 341.704  0.00  0.00    +0.000 C 
BRANCH   6   7
ATOM      7  C   UNL     1      66.819 240.838 341.170  0.00  0.00    +0.000 C 
ATOM      8  C   UNL     1      66.918 242.270 340.636  0.00  0.00    +0.000 C 
BRANCH   8   9
ATOM      9  C   UNL     1      67.018 243.703 340.103  0.00  0.00    +0.000 C 
ATOM     10  C   UNL     1      67.118 245.135 339.569  0.00  0.00    +0.000 C 
BRANCH  10  11
ATOM     11  O   UNL     1      67.204 246.376 339.107  0.00  0.00    +0.000 OA
ATOM     12  H   UNL     1      68.078 246.529 338.709  0.00  0.00    +0.000 HD
ENDBRANCH  10  11
ENDBRANCH   8   9
ENDBRANCH   6   7
ENDBRANCH   4   5
ENDBRANCH   1   3
BRANCH   2  13
ATOM     13  C   UNL     1      66.154 231.229 344.750  0.00  0.00    +0.000 C 
BRANCH  13  14
ATOM     14  O   UNL     1      66.700 230.226 343.982  0.00  0.00    +0.000 OA
ATOM     15  H   UNL     1      67.669 230.208 344.053  0.00  0.00    +0.000 HD
ENDBRANCH  13  14
BRANCH  13  16
ATOM     16  C   UNL     1      65.534 230.889 345.980  0.00  0.00    +0.000 C 
ATOM     17  C   UNL     1      65.009 230.601 347.020  0.00  0.00    +0.000 C 
BRANCH  17  18
ATOM     18  C   UNL     1      64.338 230.233 348.346  0.00  0.00    +0.000 C 
ATOM     19  C   UNL     1      63.811 229.945 349.385  0.00  0.00    +0.000 C 
BRANCH  19  20
ATOM     20  C   UNL     1      63.187 229.605 350.615  0.00  0.00    +0.000 C 
BRANCH  20  21
ATOM     21  C   UNL     1      61.790 229.744 350.847  0.00  0.00    +0.000 C 
ATOM     22  C   UNL     1      60.480 229.890 351.062  0.00  0.00    +0.000 C 
ENDBRANCH  20  21
BRANCH  20  23
ATOM     23  O   UNL     1      63.975 229.115 351.636  0.00  0.00    +0.000 OA
ATOM     24  H   UNL     1      64.790 228.704 351.299  0.00  0.00    +0.000 HD
ENDBRANCH  20  23
ENDBRANCH  19  20
ENDBRANCH  17  18
ENDBRANCH  13  16
ENDBRANCH   2  13
TORSDOF 12
ENDMDL
MODEL 4
REMARK VINA RESULT:      -3.8      3.959     16.281
REMARK  Name = 86311066_OplopantriolA.pdbqt.pdb
REMARK  12 active torsions:
REMARK  status: ('A' for Active; 'I' for Inactive)
REMARK    1  A    between atoms: C_1  and  C_3
REMARK    2  A    between atoms: C_2  and  C_13
REMARK    3  A    between atoms: C_4  and  C_5
REMARK    4  A    between atoms: C_6  and  C_7
REMARK    5  A    between atoms: C_8  and  C_9
REMARK    6  A    between atoms: C_10  and  O_11
REMARK    7  A    between atoms: C_13  and  O_14
REMARK    8  A    between atoms: C_13  and  C_16
REMARK    9  A    between atoms: C_17  and  C_18
REMARK   10  A    between atoms: C_19  and  C_20
REMARK   11  A    between atoms: C_20  and  C_21
REMARK   12  A    between atoms: C_20  and  O_23
REMARK                            x       y       z     vdW  Elec       q    Type
REMARK                         _______ _______ _______ _____ _____    ______ ____
ROOT
ATOM      1  C   UNL     1      54.815 218.615 331.559  0.00  0.00    +0.000 C 
ATOM      2  C   UNL     1      54.442 218.852 330.442  0.00  0.00    +0.000 C 
ENDROOT
BRANCH   1   3
ATOM      3  C   UNL     1      55.289 218.313 332.983  0.00  0.00    +0.000 C 
ATOM      4  C   UNL     1      55.764 218.013 334.408  0.00  0.00    +0.000 C 
BRANCH   4   5
ATOM      5  C   UNL     1      56.239 217.713 335.833  0.00  0.00    +0.000 C 
ATOM      6  C   UNL     1      56.714 217.415 337.259  0.00  0.00    +0.000 C 
BRANCH   6   7
ATOM      7  C   UNL     1      57.189 217.116 338.684  0.00  0.00    +0.000 C 
ATOM      8  C   UNL     1      57.664 216.818 340.109  0.00  0.00    +0.000 C 
BRANCH   8   9
ATOM      9  C   UNL     1      58.140 216.518 341.534  0.00  0.00    +0.000 C 
ATOM     10  C   UNL     1      58.615 216.217 342.958  0.00  0.00    +0.000 C 
BRANCH  10  11
ATOM     11  O   UNL     1      59.028 215.957 344.193  0.00  0.00    +0.000 OA
ATOM     12  H   UNL     1      59.383 215.054 344.248  0.00  0.00    +0.000 HD
ENDBRANCH  10  11
ENDBRANCH   8   9
ENDBRANCH   6   7
ENDBRANCH   4   5
ENDBRANCH   1   3
BRANCH   2  13
ATOM     13  C   UNL     1      54.003 219.132 329.125  0.00  0.00    +0.000 C 
BRANCH  13  14
ATOM     14  O   UNL     1      52.668 218.949 328.847  0.00  0.00    +0.000 OA
ATOM     15  H   UNL     1      52.210 218.493 329.573  0.00  0.00    +0.000 HD
ENDBRANCH  13  14
BRANCH  13  16
ATOM     16  C   UNL     1      54.861 219.585 328.090  0.00  0.00    +0.000 C 
ATOM     17  C   UNL     1      55.587 219.970 327.215  0.00  0.00    +0.000 C 
BRANCH  17  18
ATOM     18  C   UNL     1      56.514 220.462 326.100  0.00  0.00    +0.000 C 
ATOM     19  C   UNL     1      57.241 220.848 325.226  0.00  0.00    +0.000 C 
BRANCH  19  20
ATOM     20  C   UNL     1      58.101 221.305 324.192  0.00  0.00    +0.000 C 
BRANCH  20  21
ATOM     21  C   UNL     1      57.630 221.916 322.997  0.00  0.00    +0.000 C 
ATOM     22  C   UNL     1      57.182 222.501 321.883  0.00  0.00    +0.000 C 
ENDBRANCH  20  21
BRANCH  20  23
ATOM     23  O   UNL     1      59.463 221.148 324.356  0.00  0.00    +0.000 OA
ATOM     24  H   UNL     1      59.675 220.360 324.885  0.00  0.00    +0.000 HD
ENDBRANCH  20  23
ENDBRANCH  19  20
ENDBRANCH  17  18
ENDBRANCH  13  16
ENDBRANCH   2  13
TORSDOF 12
ENDMDL
MODEL 5
REMARK VINA RESULT:      -3.7     11.264     11.529
REMARK  Name = 86311066_OplopantriolA.pdbqt.pdb
REMARK  12 active torsions:
REMARK  status: ('A' for Active; 'I' for Inactive)
REMARK    1  A    between atoms: C_1  and  C_3
REMARK    2  A    between atoms: C_2  and  C_13
REMARK    3  A    between atoms: C_4  and  C_5
REMARK    4  A    between atoms: C_6  and  C_7
REMARK    5  A    between atoms: C_8  and  C_9
REMARK    6  A    between atoms: C_10  and  O_11
REMARK    7  A    between atoms: C_13  and  O_14
REMARK    8  A    between atoms: C_13  and  C_16
REMARK    9  A    between atoms: C_17  and  C_18
REMARK   10  A    between atoms: C_19  and  C_20
REMARK   11  A    between atoms: C_20  and  C_21
REMARK   12  A    between atoms: C_20  and  O_23
REMARK                            x       y       z     vdW  Elec       q    Type
REMARK                         _______ _______ _______ _____ _____    ______ ____
ROOT
ATOM      1  C   UNL     1      66.188 220.137 331.963  0.00  0.00    +0.000 C 
ATOM      2  C   UNL     1      67.038 219.757 332.722  0.00  0.00    +0.000 C 
ENDROOT
BRANCH   1   3
ATOM      3  C   UNL     1      65.104 220.622 330.998  0.00  0.00    +0.000 C 
ATOM      4  C   UNL     1      64.019 221.107 330.031  0.00  0.00    +0.000 C 
BRANCH   4   5
ATOM      5  C   UNL     1      62.934 221.592 329.064  0.00  0.00    +0.000 C 
ATOM      6  C   UNL     1      61.849 222.075 328.097  0.00  0.00    +0.000 C 
BRANCH   6   7
ATOM      7  C   UNL     1      60.765 222.559 327.130  0.00  0.00    +0.000 C 
ATOM      8  C   UNL     1      59.680 223.043 326.162  0.00  0.00    +0.000 C 
BRANCH   8   9
ATOM      9  C   UNL     1      58.595 223.528 325.196  0.00  0.00    +0.000 C 
ATOM     10  C   UNL     1      57.511 224.014 324.229  0.00  0.00    +0.000 C 
BRANCH  10  11
ATOM     11  O   UNL     1      56.571 224.434 323.391  0.00  0.00    +0.000 OA
ATOM     12  H   UNL     1      56.125 223.677 322.975  0.00  0.00    +0.000 HD
ENDBRANCH  10  11
ENDBRANCH   8   9
ENDBRANCH   6   7
ENDBRANCH   4   5
ENDBRANCH   1   3
BRANCH   2  13
ATOM     13  C   UNL     1      68.041 219.307 333.615  0.00  0.00    +0.000 C 
BRANCH  13  14
ATOM     14  O   UNL     1      68.646 218.102 333.338  0.00  0.00    +0.000 OA
ATOM     15  H   UNL     1      69.542 218.057 333.710  0.00  0.00    +0.000 HD
ENDBRANCH  13  14
BRANCH  13  16
ATOM     16  C   UNL     1      68.450 220.027 334.767  0.00  0.00    +0.000 C 
ATOM     17  C   UNL     1      68.795 220.636 335.742  0.00  0.00    +0.000 C 
BRANCH  17  18
ATOM     18  C   UNL     1      69.233 221.412 336.987  0.00  0.00    +0.000 C 
ATOM     19  C   UNL     1      69.577 222.021 337.963  0.00  0.00    +0.000 C 
BRANCH  19  20
ATOM     20  C   UNL     1      69.984 222.741 339.117  0.00  0.00    +0.000 C 
BRANCH  20  21
ATOM     21  C   UNL     1      70.749 222.164 340.169  0.00  0.00    +0.000 C 
ATOM     22  C   UNL     1      71.469 221.610 341.147  0.00  0.00    +0.000 C 
ENDBRANCH  20  21
BRANCH  20  23
ATOM     23  O   UNL     1      69.618 224.068 339.224  0.00  0.00    +0.000 OA
ATOM     24  H   UNL     1      69.172 224.253 340.068  0.00  0.00    +0.000 HD
ENDBRANCH  20  23
ENDBRANCH  19  20
ENDBRANCH  17  18
ENDBRANCH  13  16
ENDBRANCH   2  13
TORSDOF 12
ENDMDL
MODEL 6
REMARK VINA RESULT:      -3.6      9.176     14.376
REMARK  Name = 86311066_OplopantriolA.pdbqt.pdb
REMARK  12 active torsions:
REMARK  status: ('A' for Active; 'I' for Inactive)
REMARK    1  A    between atoms: C_1  and  C_3
REMARK    2  A    between atoms: C_2  and  C_13
REMARK    3  A    between atoms: C_4  and  C_5
REMARK    4  A    between atoms: C_6  and  C_7
REMARK    5  A    between atoms: C_8  and  C_9
REMARK    6  A    between atoms: C_10  and  O_11
REMARK    7  A    between atoms: C_13  and  O_14
REMARK    8  A    between atoms: C_13  and  C_16
REMARK    9  A    between atoms: C_17  and  C_18
REMARK   10  A    between atoms: C_19  and  C_20
REMARK   11  A    between atoms: C_20  and  C_21
REMARK   12  A    between atoms: C_20  and  O_23
REMARK                            x       y       z     vdW  Elec       q    Type
REMARK                         _______ _______ _______ _____ _____    ______ ____
ROOT
ATOM      1  C   UNL     1      65.339 216.081 342.432  0.00  0.00    +0.000 C 
ATOM      2  C   UNL     1      65.768 216.320 341.336  0.00  0.00    +0.000 C 
ENDROOT
BRANCH   1   3
ATOM      3  C   UNL     1      64.792 215.776 343.829  0.00  0.00    +0.000 C 
ATOM      4  C   UNL     1      64.244 215.470 345.226  0.00  0.00    +0.000 C 
BRANCH   4   5
ATOM      5  C   UNL     1      63.695 215.164 346.623  0.00  0.00    +0.000 C 
ATOM      6  C   UNL     1      63.144 214.859 348.019  0.00  0.00    +0.000 C 
BRANCH   6   7
ATOM      7  C   UNL     1      62.594 214.555 349.416  0.00  0.00    +0.000 C 
ATOM      8  C   UNL     1      62.044 214.250 350.812  0.00  0.00    +0.000 C 
BRANCH   8   9
ATOM      9  C   UNL     1      61.493 213.946 352.209  0.00  0.00    +0.000 C 
ATOM     10  C   UNL     1      60.942 213.643 353.606  0.00  0.00    +0.000 C 
BRANCH  10  11
ATOM     11  O   UNL     1      60.464 213.380 354.816  0.00  0.00    +0.000 OA
ATOM     12  H   UNL     1      60.515 214.171 355.379  0.00  0.00    +0.000 HD
ENDBRANCH  10  11
ENDBRANCH   8   9
ENDBRANCH   6   7
ENDBRANCH   4   5
ENDBRANCH   1   3
BRANCH   2  13
ATOM     13  C   UNL     1      66.273 216.602 340.043  0.00  0.00    +0.000 C 
BRANCH  13  14
ATOM     14  O   UNL     1      65.921 215.749 339.022  0.00  0.00    +0.000 OA
ATOM     15  H   UNL     1      66.238 216.070 338.161  0.00  0.00    +0.000 HD
ENDBRANCH  13  14
BRANCH  13  16
ATOM     16  C   UNL     1      67.114 217.707 339.750  0.00  0.00    +0.000 C 
ATOM     17  C   UNL     1      67.826 218.642 339.504  0.00  0.00    +0.000 C 
BRANCH  17  18
ATOM     18  C   UNL     1      68.734 219.834 339.191  0.00  0.00    +0.000 C 
ATOM     19  C   UNL     1      69.447 220.769 338.946  0.00  0.00    +0.000 C 
BRANCH  19  20
ATOM     20  C   UNL     1      70.290 221.874 338.658  0.00  0.00    +0.000 C 
BRANCH  20  21
ATOM     21  C   UNL     1      69.827 223.069 338.039  0.00  0.00    +0.000 C 
ATOM     22  C   UNL     1      69.391 224.197 337.473  0.00  0.00    +0.000 C 
ENDBRANCH  20  21
BRANCH  20  23
ATOM     23  O   UNL     1      71.626 221.784 338.993  0.00  0.00    +0.000 OA
ATOM     24  H   UNL     1      72.203 221.971 338.233  0.00  0.00    +0.000 HD
ENDBRANCH  20  23
ENDBRANCH  19  20
ENDBRANCH  17  18
ENDBRANCH  13  16
ENDBRANCH   2  13
TORSDOF 12
ENDMDL
MODEL 7
REMARK VINA RESULT:      -3.5     10.977     13.547
REMARK  Name = 86311066_OplopantriolA.pdbqt.pdb
REMARK  12 active torsions:
REMARK  status: ('A' for Active; 'I' for Inactive)
REMARK    1  A    between atoms: C_1  and  C_3
REMARK    2  A    between atoms: C_2  and  C_13
REMARK    3  A    between atoms: C_4  and  C_5
REMARK    4  A    between atoms: C_6  and  C_7
REMARK    5  A    between atoms: C_8  and  C_9
REMARK    6  A    between atoms: C_10  and  O_11
REMARK    7  A    between atoms: C_13  and  O_14
REMARK    8  A    between atoms: C_13  and  C_16
REMARK    9  A    between atoms: C_17  and  C_18
REMARK   10  A    between atoms: C_19  and  C_20
REMARK   11  A    between atoms: C_20  and  C_21
REMARK   12  A    between atoms: C_20  and  O_23
REMARK                            x       y       z     vdW  Elec       q    Type
REMARK                         _______ _______ _______ _____ _____    ______ ____
ROOT
ATOM      1  C   UNL     1      63.182 218.639 331.350  0.00  0.00    +0.000 C 
ATOM      2  C   UNL     1      62.278 217.982 331.790  0.00  0.00    +0.000 C 
ENDROOT
BRANCH   1   3
ATOM      3  C   UNL     1      64.335 219.476 330.791  0.00  0.00    +0.000 C 
ATOM      4  C   UNL     1      65.490 220.312 330.231  0.00  0.00    +0.000 C 
BRANCH   4   5
ATOM      5  C   UNL     1      66.644 221.150 329.673  0.00  0.00    +0.000 C 
ATOM      6  C   UNL     1      67.797 221.988 329.112  0.00  0.00    +0.000 C 
BRANCH   6   7
ATOM      7  C   UNL     1      68.951 222.826 328.552  0.00  0.00    +0.000 C 
ATOM      8  C   UNL     1      70.104 223.664 327.992  0.00  0.00    +0.000 C 
BRANCH   8   9
ATOM      9  C   UNL     1      71.259 224.500 327.432  0.00  0.00    +0.000 C 
ATOM     10  C   UNL     1      72.413 225.337 326.872  0.00  0.00    +0.000 C 
BRANCH  10  11
ATOM     11  O   UNL     1      73.414 226.062 326.386  0.00  0.00    +0.000 OA
ATOM     12  H   UNL     1      74.054 226.268 327.088  0.00  0.00    +0.000 HD
ENDBRANCH  10  11
ENDBRANCH   8   9
ENDBRANCH   6   7
ENDBRANCH   4   5
ENDBRANCH   1   3
BRANCH   2  13
ATOM     13  C   UNL     1      61.210 217.209 332.310  0.00  0.00    +0.000 C 
BRANCH  13  14
ATOM     14  O   UNL     1      60.901 216.036 331.661  0.00  0.00    +0.000 OA
ATOM     15  H   UNL     1      61.384 215.281 332.037  0.00  0.00    +0.000 HD
ENDBRANCH  13  14
BRANCH  13  16
ATOM     16  C   UNL     1      60.453 217.580 333.451  0.00  0.00    +0.000 C 
ATOM     17  C   UNL     1      59.812 217.894 334.416  0.00  0.00    +0.000 C 
BRANCH  17  18
ATOM     18  C   UNL     1      58.995 218.296 335.647  0.00  0.00    +0.000 C 
ATOM     19  C   UNL     1      58.354 218.612 336.612  0.00  0.00    +0.000 C 
BRANCH  19  20
ATOM     20  C   UNL     1      57.596 218.984 337.753  0.00  0.00    +0.000 C 
BRANCH  20  21
ATOM     21  C   UNL     1      58.181 219.308 339.009  0.00  0.00    +0.000 C 
ATOM     22  C   UNL     1      58.718 219.621 340.190  0.00  0.00    +0.000 C 
ENDBRANCH  20  21
BRANCH  20  23
ATOM     23  O   UNL     1      56.221 219.034 337.638  0.00  0.00    +0.000 OA
ATOM     24  H   UNL     1      55.900 218.489 336.899  0.00  0.00    +0.000 HD
ENDBRANCH  20  23
ENDBRANCH  19  20
ENDBRANCH  17  18
ENDBRANCH  13  16
ENDBRANCH   2  13
TORSDOF 12
ENDMDL
MODEL 8
REMARK VINA RESULT:      -3.4     23.949     29.383
REMARK  Name = 86311066_OplopantriolA.pdbqt.pdb
REMARK  12 active torsions:
REMARK  status: ('A' for Active; 'I' for Inactive)
REMARK    1  A    between atoms: C_1  and  C_3
REMARK    2  A    between atoms: C_2  and  C_13
REMARK    3  A    between atoms: C_4  and  C_5
REMARK    4  A    between atoms: C_6  and  C_7
REMARK    5  A    between atoms: C_8  and  C_9
REMARK    6  A    between atoms: C_10  and  O_11
REMARK    7  A    between atoms: C_13  and  O_14
REMARK    8  A    between atoms: C_13  and  C_16
REMARK    9  A    between atoms: C_17  and  C_18
REMARK   10  A    between atoms: C_19  and  C_20
REMARK   11  A    between atoms: C_20  and  C_21
REMARK   12  A    between atoms: C_20  and  O_23
REMARK                            x       y       z     vdW  Elec       q    Type
REMARK                         _______ _______ _______ _____ _____    ______ ____
ROOT
ATOM      1  C   UNL     1      42.776 237.878 335.867  0.00  0.00    +0.000 C 
ATOM      2  C   UNL     1      42.832 238.588 334.900  0.00  0.00    +0.000 C 
ENDROOT
BRANCH   1   3
ATOM      3  C   UNL     1      42.705 236.973 337.100  0.00  0.00    +0.000 C 
ATOM      4  C   UNL     1      42.634 236.067 338.333  0.00  0.00    +0.000 C 
BRANCH   4   5
ATOM      5  C   UNL     1      42.563 235.160 339.565  0.00  0.00    +0.000 C 
ATOM      6  C   UNL     1      42.490 234.255 340.799  0.00  0.00    +0.000 C 
BRANCH   6   7
ATOM      7  C   UNL     1      42.417 233.350 342.032  0.00  0.00    +0.000 C 
ATOM      8  C   UNL     1      42.345 232.444 343.265  0.00  0.00    +0.000 C 
BRANCH   8   9
ATOM      9  C   UNL     1      42.271 231.539 344.499  0.00  0.00    +0.000 C 
ATOM     10  C   UNL     1      42.197 230.633 345.732  0.00  0.00    +0.000 C 
BRANCH  10  11
ATOM     11  O   UNL     1      42.133 229.849 346.800  0.00  0.00    +0.000 OA
ATOM     12  H   UNL     1      42.056 230.383 347.609  0.00  0.00    +0.000 HD
ENDBRANCH  10  11
ENDBRANCH   8   9
ENDBRANCH   6   7
ENDBRANCH   4   5
ENDBRANCH   1   3
BRANCH   2  13
ATOM     13  C   UNL     1      42.899 239.425 333.759  0.00  0.00    +0.000 C 
BRANCH  13  14
ATOM     14  O   UNL     1      41.913 239.286 332.809  0.00  0.00    +0.000 OA
ATOM     15  H   UNL     1      42.062 238.504 332.251  0.00  0.00    +0.000 HD
ENDBRANCH  13  14
BRANCH  13  16
ATOM     16  C   UNL     1      43.919 240.389 333.549  0.00  0.00    +0.000 C 
ATOM     17  C   UNL     1      44.782 241.204 333.370  0.00  0.00    +0.000 C 
BRANCH  17  18
ATOM     18  C   UNL     1      45.882 242.243 333.140  0.00  0.00    +0.000 C 
ATOM     19  C   UNL     1      46.745 243.059 332.960  0.00  0.00    +0.000 C 
BRANCH  19  20
ATOM     20  C   UNL     1      47.765 244.024 332.748  0.00  0.00    +0.000 C 
BRANCH  20  21
ATOM     21  C   UNL     1      48.599 244.038 331.595  0.00  0.00    +0.000 C 
ATOM     22  C   UNL     1      49.387 244.037 330.518  0.00  0.00    +0.000 C 
ENDBRANCH  20  21
BRANCH  20  23
ATOM     23  O   UNL     1      47.956 244.997 333.708  0.00  0.00    +0.000 OA
ATOM     24  H   UNL     1      48.898 245.211 333.824  0.00  0.00    +0.000 HD
ENDBRANCH  20  23
ENDBRANCH  19  20
ENDBRANCH  17  18
ENDBRANCH  13  16
ENDBRANCH   2  13
TORSDOF 12
ENDMDL
MODEL 9
REMARK VINA RESULT:      -3.4     24.637     30.146
REMARK  Name = 86311066_OplopantriolA.pdbqt.pdb
REMARK  12 active torsions:
REMARK  status: ('A' for Active; 'I' for Inactive)
REMARK    1  A    between atoms: C_1  and  C_3
REMARK    2  A    between atoms: C_2  and  C_13
REMARK    3  A    between atoms: C_4  and  C_5
REMARK    4  A    between atoms: C_6  and  C_7
REMARK    5  A    between atoms: C_8  and  C_9
REMARK    6  A    between atoms: C_10  and  O_11
REMARK    7  A    between atoms: C_13  and  O_14
REMARK    8  A    between atoms: C_13  and  C_16
REMARK    9  A    between atoms: C_17  and  C_18
REMARK   10  A    between atoms: C_19  and  C_20
REMARK   11  A    between atoms: C_20  and  C_21
REMARK   12  A    between atoms: C_20  and  O_23
REMARK                            x       y       z     vdW  Elec       q    Type
REMARK                         _______ _______ _______ _____ _____    ______ ____
ROOT
ATOM      1  C   UNL     1      43.130 240.654 335.508  0.00  0.00    +0.000 C 
ATOM      2  C   UNL     1      43.365 241.624 334.839  0.00  0.00    +0.000 C 
ENDROOT
BRANCH   1   3
ATOM      3  C   UNL     1      42.829 239.420 336.362  0.00  0.00    +0.000 C 
ATOM      4  C   UNL     1      42.527 238.185 337.217  0.00  0.00    +0.000 C 
BRANCH   4   5
ATOM      5  C   UNL     1      42.226 236.950 338.072  0.00  0.00    +0.000 C 
ATOM      6  C   UNL     1      41.923 235.717 338.928  0.00  0.00    +0.000 C 
BRANCH   6   7
ATOM      7  C   UNL     1      41.621 234.483 339.784  0.00  0.00    +0.000 C 
ATOM      8  C   UNL     1      41.319 233.249 340.640  0.00  0.00    +0.000 C 
BRANCH   8   9
ATOM      9  C   UNL     1      41.019 232.016 341.497  0.00  0.00    +0.000 C 
ATOM     10  C   UNL     1      40.719 230.783 342.354  0.00  0.00    +0.000 C 
BRANCH  10  11
ATOM     11  O   UNL     1      40.458 229.714 343.097  0.00  0.00    +0.000 OA
ATOM     12  H   UNL     1      41.082 229.658 343.841  0.00  0.00    +0.000 HD
ENDBRANCH  10  11
ENDBRANCH   8   9
ENDBRANCH   6   7
ENDBRANCH   4   5
ENDBRANCH   1   3
BRANCH   2  13
ATOM     13  C   UNL     1      43.645 242.766 334.050  0.00  0.00    +0.000 C 
BRANCH  13  14
ATOM     14  O   UNL     1      42.598 243.613 333.764  0.00  0.00    +0.000 OA
ATOM     15  H   UNL     1      41.749 243.141 333.751  0.00  0.00    +0.000 HD
ENDBRANCH  13  14
BRANCH  13  16
ATOM     16  C   UNL     1      44.933 243.078 333.546  0.00  0.00    +0.000 C 
ATOM     17  C   UNL     1      46.024 243.343 333.119  0.00  0.00    +0.000 C 
BRANCH  17  18
ATOM     18  C   UNL     1      47.413 243.683 332.574  0.00  0.00    +0.000 C 
ATOM     19  C   UNL     1      48.504 243.950 332.147  0.00  0.00    +0.000 C 
BRANCH  19  20
ATOM     20  C   UNL     1      49.792 244.267 331.642  0.00  0.00    +0.000 C 
BRANCH  20  21
ATOM     21  C   UNL     1      50.421 245.528 331.838  0.00  0.00    +0.000 C 
ATOM     22  C   UNL     1      51.010 246.714 332.007  0.00  0.00    +0.000 C 
ENDBRANCH  20  21
BRANCH  20  23
ATOM     23  O   UNL     1      50.469 243.302 330.923  0.00  0.00    +0.000 OA
ATOM     24  H   UNL     1      51.181 243.686 330.383  0.00  0.00    +0.000 HD
ENDBRANCH  20  23
ENDBRANCH  19  20
ENDBRANCH  17  18
ENDBRANCH  13  16
ENDBRANCH   2  13
TORSDOF 12
ENDMDL
