MODEL 1
REMARK VINA RESULT:      -7.0      0.000      0.000
REMARK  Name = 91746246_sitosterol.pdbqt.pdb
REMARK  10 active torsions:
REMARK  status: ('A' for Active; 'I' for Inactive)
REMARK    1  A    between atoms: C_5  and  C_20
REMARK    2  A    between atoms: C_19  and  O_30
REMARK    3  A    between atoms: C_20  and  C_22
REMARK    4  A    between atoms: C_23  and  C_24
REMARK    5  A    between atoms: C_24  and  C_28
REMARK    6  A    between atoms: O_30  and  C_32
REMARK    7  A    between atoms: C_32  and  C_33
REMARK    8  A    between atoms: C_34  and  C_35
REMARK    9  A    between atoms: C_38  and  O_41
REMARK   10  A    between atoms: C_40  and  O_43
REMARK                            x       y       z     vdW  Elec       q    Type
REMARK                         _______ _______ _______ _____ _____    ______ ____
ROOT
ATOM      1  C   UNL     1      54.721 217.710 332.222  0.00  0.00    +0.000 C 
ATOM      2  C   UNL     1      55.352 216.426 332.983  0.00  0.00    +0.000 C 
ATOM      3  C   UNL     1      56.271 216.562 334.131  0.00  0.00    +0.000 C 
ATOM      4  C   UNL     1      56.541 217.830 334.903  0.00  0.00    +0.000 C 
ATOM      5  C   UNL     1      53.265 217.307 332.019  0.00  0.00    +0.000 C 
ATOM      6  C   UNL     1      54.931 218.824 333.144  0.00  0.00    +0.000 C 
ATOM      7  C   UNL     1      57.559 217.927 336.069  0.00  0.00    +0.000 C 
ATOM      8  C   UNL     1      54.361 215.395 332.974  0.00  0.00    +0.000 C 
ATOM      9  C   UNL     1      55.791 218.917 334.381  0.00  0.00    +0.000 C 
ATOM     10  C   UNL     1      53.080 215.948 332.410  0.00  0.00    +0.000 C 
ATOM     11  C   UNL     1      56.882 215.427 334.718  0.00  0.00    +0.000 C 
ATOM     12  C   UNL     1      55.462 217.842 330.865  0.00  0.00    +0.000 C 
ATOM     13  C   UNL     1      57.991 216.467 336.707  0.00  0.00    +0.000 C 
ATOM     14  C   UNL     1      56.958 218.654 337.226  0.00  0.00    +0.000 C 
ATOM     15  C   UNL     1      57.705 215.437 335.971  0.00  0.00    +0.000 C 
ATOM     16  C   UNL     1      58.862 218.611 335.560  0.00  0.00    +0.000 C 
ATOM     17  C   UNL     1      57.813 216.339 338.136  0.00  0.00    +0.000 C 
ATOM     18  C   UNL     1      56.799 218.332 338.721  0.00  0.00    +0.000 C 
ATOM     19  C   UNL     1      57.270 217.079 339.244  0.00  0.00    +0.000 C 
ENDROOT
BRANCH   5  20
ATOM     20  C   UNL     1      52.308 218.088 331.304  0.00  0.00    +0.000 C 
ATOM     21  C   UNL     1      52.575 218.621 329.922  0.00  0.00    +0.000 C 
BRANCH  20  22
ATOM     22  C   UNL     1      51.157 218.613 331.956  0.00  0.00    +0.000 C 
ATOM     23  C   UNL     1      49.914 219.180 332.658  0.00  0.00    +0.000 C 
BRANCH  23  24
ATOM     24  C   UNL     1      48.757 219.720 333.297  0.00  0.00    +0.000 C 
ATOM     25  C   UNL     1      48.244 219.149 334.524  0.00  0.00    +0.000 C 
ATOM     26  C   UNL     1      46.999 219.654 335.221  0.00  0.00    +0.000 C 
ATOM     27  C   UNL     1      48.913 217.986 335.229  0.00  0.00    +0.000 C 
BRANCH  24  28
ATOM     28  C   UNL     1      48.096 220.837 332.720  0.00  0.00    +0.000 C 
ATOM     29  C   UNL     1      47.383 222.073 332.159  0.00  0.00    +0.000 C 
ENDBRANCH  24  28
ENDBRANCH  23  24
ENDBRANCH  20  22
ENDBRANCH   5  20
BRANCH  19  30
ATOM     30  O   UNL     1      57.933 217.023 340.466  0.00  0.00    +0.000 OA
BRANCH  30  32
ATOM     31  O   UNL     1      56.751 215.081 340.955  0.00  0.00    +0.000 OA
ATOM     32  C   UNL     1      57.686 215.850 341.120  0.00  0.00    +0.000 C 
BRANCH  32  33
ATOM     33  C   UNL     1      58.720 215.551 342.079  0.00  0.00    +0.000 C 
ATOM     34  C   UNL     1      59.569 215.304 342.893  0.00  0.00    +0.000 C 
BRANCH  34  35
ATOM     35  C   UNL     1      60.563 215.012 343.872  0.00  0.00    +0.000 A 
ATOM     36  C   UNL     1      61.895 214.871 343.485  0.00  0.00    +0.000 A 
ATOM     37  C   UNL     1      60.203 214.861 345.209  0.00  0.00    +0.000 A 
ATOM     38  C   UNL     1      62.883 214.580 344.429  0.00  0.00    +0.000 A 
ATOM     39  C   UNL     1      61.178 214.570 346.160  0.00  0.00    +0.000 A 
ATOM     40  C   UNL     1      62.508 214.430 345.767  0.00  0.00    +0.000 A 
BRANCH  38  41
ATOM     41  O   UNL     1      64.215 214.424 344.133  0.00  0.00    +0.000 OA
ATOM     42  C   UNL     1      64.896 215.597 343.769  0.00  0.00    +0.000 C 
ENDBRANCH  38  41
BRANCH  40  43
ATOM     43  O   UNL     1      63.461 214.143 346.706  0.00  0.00    +0.000 OA
ATOM     44  H   UNL     1      63.868 213.284 346.485  0.00  0.00    +0.000 HD
ENDBRANCH  40  43
ENDBRANCH  34  35
ENDBRANCH  32  33
ENDBRANCH  30  32
ENDBRANCH  19  30
TORSDOF 10
ENDMDL
MODEL 2
REMARK VINA RESULT:      -6.9     18.715     21.540
REMARK  Name = 91746246_sitosterol.pdbqt.pdb
REMARK  10 active torsions:
REMARK  status: ('A' for Active; 'I' for Inactive)
REMARK    1  A    between atoms: C_5  and  C_20
REMARK    2  A    between atoms: C_19  and  O_30
REMARK    3  A    between atoms: C_20  and  C_22
REMARK    4  A    between atoms: C_23  and  C_24
REMARK    5  A    between atoms: C_24  and  C_28
REMARK    6  A    between atoms: O_30  and  C_32
REMARK    7  A    between atoms: C_32  and  C_33
REMARK    8  A    between atoms: C_34  and  C_35
REMARK    9  A    between atoms: C_38  and  O_41
REMARK   10  A    between atoms: C_40  and  O_43
REMARK                            x       y       z     vdW  Elec       q    Type
REMARK                         _______ _______ _______ _____ _____    ______ ____
ROOT
ATOM      1  C   UNL     1      58.418 231.597 354.682  0.00  0.00    +0.000 C 
ATOM      2  C   UNL     1      59.661 232.567 354.306  0.00  0.00    +0.000 C 
ATOM      3  C   UNL     1      60.872 232.069 353.624  0.00  0.00    +0.000 C 
ATOM      4  C   UNL     1      61.027 230.720 352.967  0.00  0.00    +0.000 C 
ATOM      5  C   UNL     1      57.203 232.431 354.296  0.00  0.00    +0.000 C 
ATOM      6  C   UNL     1      58.628 230.399 353.871  0.00  0.00    +0.000 C 
ATOM      7  C   UNL     1      62.344 230.228 352.311  0.00  0.00    +0.000 C 
ATOM      8  C   UNL     1      59.115 233.844 353.962  0.00  0.00    +0.000 C 
ATOM      9  C   UNL     1      59.838 229.953 353.087  0.00  0.00    +0.000 C 
ATOM     10  C   UNL     1      57.614 233.746 353.931  0.00  0.00    +0.000 C 
ATOM     11  C   UNL     1      61.982 232.919 353.392  0.00  0.00    +0.000 C 
ATOM     12  C   UNL     1      58.475 231.361 356.215  0.00  0.00    +0.000 C 
ATOM     13  C   UNL     1      63.418 231.436 351.975  0.00  0.00    +0.000 C 
ATOM     14  C   UNL     1      62.066 229.622 350.976  0.00  0.00    +0.000 C 
ATOM     15  C   UNL     1      63.191 232.561 352.582  0.00  0.00    +0.000 C 
ATOM     16  C   UNL     1      63.056 229.231 353.271  0.00  0.00    +0.000 C 
ATOM     17  C   UNL     1      63.876 231.494 350.605  0.00  0.00    +0.000 C 
ATOM     18  C   UNL     1      62.626 229.854 349.562  0.00  0.00    +0.000 C 
ATOM     19  C   UNL     1      63.624 230.861 349.337  0.00  0.00    +0.000 C 
ENDROOT
BRANCH   5  20
ATOM     20  C   UNL     1      55.851 232.032 354.522  0.00  0.00    +0.000 C 
ATOM     21  C   UNL     1      54.898 232.850 355.352  0.00  0.00    +0.000 C 
BRANCH  20  22
ATOM     22  C   UNL     1      55.407 230.722 354.186  0.00  0.00    +0.000 C 
ATOM     23  C   UNL     1      54.926 229.309 353.823  0.00  0.00    +0.000 C 
BRANCH  23  24
ATOM     24  C   UNL     1      54.468 227.996 353.500  0.00  0.00    +0.000 C 
ATOM     25  C   UNL     1      55.368 226.862 353.522  0.00  0.00    +0.000 C 
ATOM     26  C   UNL     1      54.946 225.458 353.149  0.00  0.00    +0.000 C 
ATOM     27  C   UNL     1      56.823 226.980 353.926  0.00  0.00    +0.000 C 
BRANCH  24  28
ATOM     28  C   UNL     1      53.106 227.797 353.150  0.00  0.00    +0.000 C 
ATOM     29  C   UNL     1      51.655 227.527 352.735  0.00  0.00    +0.000 C 
ENDBRANCH  24  28
ENDBRANCH  23  24
ENDBRANCH  20  22
ENDBRANCH   5  20
BRANCH  19  30
ATOM     30  O   UNL     1      64.703 230.617 348.493  0.00  0.00    +0.000 OA
BRANCH  30  32
ATOM     31  O   UNL     1      66.893 230.889 349.227  0.00  0.00    +0.000 OA
ATOM     32  C   UNL     1      65.828 230.293 349.197  0.00  0.00    +0.000 C 
BRANCH  32  33
ATOM     33  C   UNL     1      65.630 229.106 349.992  0.00  0.00    +0.000 C 
ATOM     34  C   UNL     1      65.448 228.125 350.661  0.00  0.00    +0.000 C 
BRANCH  34  35
ATOM     35  C   UNL     1      65.216 226.968 351.462  0.00  0.00    +0.000 A 
ATOM     36  C   UNL     1      66.004 226.737 352.589  0.00  0.00    +0.000 A 
ATOM     37  C   UNL     1      64.211 226.069 351.116  0.00  0.00    +0.000 A 
ATOM     38  C   UNL     1      65.797 225.607 353.383  0.00  0.00    +0.000 A 
ATOM     39  C   UNL     1      63.994 224.937 351.898  0.00  0.00    +0.000 A 
ATOM     40  C   UNL     1      64.785 224.712 353.024  0.00  0.00    +0.000 A 
BRANCH  38  41
ATOM     41  O   UNL     1      66.528 225.304 354.506  0.00  0.00    +0.000 OA
ATOM     42  C   UNL     1      66.307 226.138 355.615  0.00  0.00    +0.000 C 
ENDBRANCH  38  41
BRANCH  40  43
ATOM     43  O   UNL     1      64.568 223.598 353.787  0.00  0.00    +0.000 OA
ATOM     44  H   UNL     1      65.311 223.497 354.411  0.00  0.00    +0.000 HD
ENDBRANCH  40  43
ENDBRANCH  34  35
ENDBRANCH  32  33
ENDBRANCH  30  32
ENDBRANCH  19  30
TORSDOF 10
ENDMDL
MODEL 3
REMARK VINA RESULT:      -6.7     11.171     21.549
REMARK  Name = 91746246_sitosterol.pdbqt.pdb
REMARK  10 active torsions:
REMARK  status: ('A' for Active; 'I' for Inactive)
REMARK    1  A    between atoms: C_5  and  C_20
REMARK    2  A    between atoms: C_19  and  O_30
REMARK    3  A    between atoms: C_20  and  C_22
REMARK    4  A    between atoms: C_23  and  C_24
REMARK    5  A    between atoms: C_24  and  C_28
REMARK    6  A    between atoms: O_30  and  C_32
REMARK    7  A    between atoms: C_32  and  C_33
REMARK    8  A    between atoms: C_34  and  C_35
REMARK    9  A    between atoms: C_38  and  O_41
REMARK   10  A    between atoms: C_40  and  O_43
REMARK                            x       y       z     vdW  Elec       q    Type
REMARK                         _______ _______ _______ _____ _____    ______ ____
ROOT
ATOM      1  C   UNL     1      74.431 222.109 348.553  0.00  0.00    +0.000 C 
ATOM      2  C   UNL     1      74.999 222.483 347.082  0.00  0.00    +0.000 C 
ATOM      3  C   UNL     1      74.556 221.778 345.863  0.00  0.00    +0.000 C 
ATOM      4  C   UNL     1      73.380 220.839 345.761  0.00  0.00    +0.000 C 
ATOM      5  C   UNL     1      74.187 223.474 349.185  0.00  0.00    +0.000 C 
ATOM      6  C   UNL     1      73.225 221.324 348.294  0.00  0.00    +0.000 C 
ATOM      7  C   UNL     1      72.993 220.082 344.463  0.00  0.00    +0.000 C 
ATOM      8  C   UNL     1      75.217 223.897 347.057  0.00  0.00    +0.000 C 
ATOM      9  C   UNL     1      72.726 220.699 347.014  0.00  0.00    +0.000 C 
ATOM     10  C   UNL     1      74.693 224.499 348.333  0.00  0.00    +0.000 C 
ATOM     11  C   UNL     1      75.138 222.062 344.602  0.00  0.00    +0.000 C 
ATOM     12  C   UNL     1      75.559 221.341 349.293  0.00  0.00    +0.000 C 
ATOM     13  C   UNL     1      73.664 220.712 343.093  0.00  0.00    +0.000 C 
ATOM     14  C   UNL     1      71.524 220.189 344.217  0.00  0.00    +0.000 C 
ATOM     15  C   UNL     1      74.663 221.518 343.288  0.00  0.00    +0.000 C 
ATOM     16  C   UNL     1      73.464 218.602 344.570  0.00  0.00    +0.000 C 
ATOM     17  C   UNL     1      72.729 221.046 342.042  0.00  0.00    +0.000 C 
ATOM     18  C   UNL     1      70.674 220.635 343.016  0.00  0.00    +0.000 C 
ATOM     19  C   UNL     1      71.309 221.095 341.813  0.00  0.00    +0.000 C 
ENDROOT
BRANCH   5  20
ATOM     20  C   UNL     1      73.760 223.671 350.533  0.00  0.00    +0.000 C 
ATOM     21  C   UNL     1      74.407 224.679 351.443  0.00  0.00    +0.000 C 
BRANCH  20  22
ATOM     22  C   UNL     1      72.872 222.753 351.161  0.00  0.00    +0.000 C 
ATOM     23  C   UNL     1      71.915 221.762 351.841  0.00  0.00    +0.000 C 
BRANCH  23  24
ATOM     24  C   UNL     1      71.036 220.827 352.466  0.00  0.00    +0.000 C 
ATOM     25  C   UNL     1      70.500 221.071 353.789  0.00  0.00    +0.000 C 
ATOM     26  C   UNL     1      69.599 220.096 354.514  0.00  0.00    +0.000 C 
ATOM     27  C   UNL     1      70.794 222.335 354.570  0.00  0.00    +0.000 C 
BRANCH  24  28
ATOM     28  C   UNL     1      70.680 219.635 351.780  0.00  0.00    +0.000 C 
ATOM     29  C   UNL     1      70.229 218.362 351.055  0.00  0.00    +0.000 C 
ENDBRANCH  24  28
ENDBRANCH  23  24
ENDBRANCH  20  22
ENDBRANCH   5  20
BRANCH  19  30
ATOM     30  O   UNL     1      70.828 220.715 340.564  0.00  0.00    +0.000 OA
BRANCH  30  32
ATOM     31  O   UNL     1      70.681 222.967 340.002  0.00  0.00    +0.000 OA
ATOM     32  C   UNL     1      70.394 221.789 339.843  0.00  0.00    +0.000 C 
BRANCH  32  33
ATOM     33  C   UNL     1      69.521 221.388 338.768  0.00  0.00    +0.000 C 
ATOM     34  C   UNL     1      68.802 221.036 337.871  0.00  0.00    +0.000 C 
BRANCH  34  35
ATOM     35  C   UNL     1      67.960 220.603 336.806  0.00  0.00    +0.000 A 
ATOM     36  C   UNL     1      66.727 220.018 337.092  0.00  0.00    +0.000 A 
ATOM     37  C   UNL     1      68.370 220.758 335.484  0.00  0.00    +0.000 A 
ATOM     38  C   UNL     1      65.889 219.581 336.063  0.00  0.00    +0.000 A 
ATOM     39  C   UNL     1      67.545 220.327 334.448  0.00  0.00    +0.000 A 
ATOM     40  C   UNL     1      66.314 219.742 334.741  0.00  0.00    +0.000 A 
BRANCH  38  41
ATOM     41  O   UNL     1      64.663 218.994 336.258  0.00  0.00    +0.000 OA
ATOM     42  C   UNL     1      64.693 217.641 336.634  0.00  0.00    +0.000 C 
ENDBRANCH  38  41
BRANCH  40  43
ATOM     43  O   UNL     1      65.509 219.319 333.718  0.00  0.00    +0.000 OA
ATOM     44  H   UNL     1      64.841 218.706 334.079  0.00  0.00    +0.000 HD
ENDBRANCH  40  43
ENDBRANCH  34  35
ENDBRANCH  32  33
ENDBRANCH  30  32
ENDBRANCH  19  30
TORSDOF 10
ENDMDL
MODEL 4
REMARK VINA RESULT:      -6.6     22.148     25.043
REMARK  Name = 91746246_sitosterol.pdbqt.pdb
REMARK  10 active torsions:
REMARK  status: ('A' for Active; 'I' for Inactive)
REMARK    1  A    between atoms: C_5  and  C_20
REMARK    2  A    between atoms: C_19  and  O_30
REMARK    3  A    between atoms: C_20  and  C_22
REMARK    4  A    between atoms: C_23  and  C_24
REMARK    5  A    between atoms: C_24  and  C_28
REMARK    6  A    between atoms: O_30  and  C_32
REMARK    7  A    between atoms: C_32  and  C_33
REMARK    8  A    between atoms: C_34  and  C_35
REMARK    9  A    between atoms: C_38  and  O_41
REMARK   10  A    between atoms: C_40  and  O_43
REMARK                            x       y       z     vdW  Elec       q    Type
REMARK                         _______ _______ _______ _____ _____    ______ ____
ROOT
ATOM      1  C   UNL     1      57.497 239.807 353.096  0.00  0.00    +0.000 C 
ATOM      2  C   UNL     1      58.260 238.753 354.062  0.00  0.00    +0.000 C 
ATOM      3  C   UNL     1      57.606 237.529 354.567  0.00  0.00    +0.000 C 
ATOM      4  C   UNL     1      56.297 236.959 354.080  0.00  0.00    +0.000 C 
ATOM      5  C   UNL     1      58.552 240.139 352.048  0.00  0.00    +0.000 C 
ATOM      6  C   UNL     1      56.336 239.073 352.594  0.00  0.00    +0.000 C 
ATOM      7  C   UNL     1      55.629 235.697 354.685  0.00  0.00    +0.000 C 
ATOM      8  C   UNL     1      59.632 238.722 353.658  0.00  0.00    +0.000 C 
ATOM      9  C   UNL     1      55.741 237.763 353.049  0.00  0.00    +0.000 C 
ATOM     10  C   UNL     1      59.798 239.548 352.411  0.00  0.00    +0.000 C 
ATOM     11  C   UNL     1      58.264 236.674 355.485  0.00  0.00    +0.000 C 
ATOM     12  C   UNL     1      57.154 241.049 353.961  0.00  0.00    +0.000 C 
ATOM     13  C   UNL     1      56.652 234.761 355.580  0.00  0.00    +0.000 C 
ATOM     14  C   UNL     1      55.170 234.780 353.601  0.00  0.00    +0.000 C 
ATOM     15  C   UNL     1      57.757 235.339 355.941  0.00  0.00    +0.000 C 
ATOM     16  C   UNL     1      54.463 236.130 355.621  0.00  0.00    +0.000 C 
ATOM     17  C   UNL     1      56.720 233.371 355.190  0.00  0.00    +0.000 C 
ATOM     18  C   UNL     1      55.394 233.289 353.299  0.00  0.00    +0.000 C 
ATOM     19  C   UNL     1      56.226 232.495 354.160  0.00  0.00    +0.000 C 
ENDROOT
BRANCH   5  20
ATOM     20  C   UNL     1      58.379 241.106 351.012  0.00  0.00    +0.000 C 
ATOM     21  C   UNL     1      59.153 242.396 350.978  0.00  0.00    +0.000 C 
BRANCH  20  22
ATOM     22  C   UNL     1      57.291 241.015 350.099  0.00  0.00    +0.000 C 
ATOM     23  C   UNL     1      56.117 240.915 349.113  0.00  0.00    +0.000 C 
BRANCH  23  24
ATOM     24  C   UNL     1      55.038 240.824 348.183  0.00  0.00    +0.000 C 
ATOM     25  C   UNL     1      53.941 239.904 348.396  0.00  0.00    +0.000 C 
ATOM     26  C   UNL     1      52.794 239.737 347.423  0.00  0.00    +0.000 C 
ATOM     27  C   UNL     1      53.839 239.021 349.623  0.00  0.00    +0.000 C 
BRANCH  24  28
ATOM     28  C   UNL     1      55.040 241.649 347.027  0.00  0.00    +0.000 C 
ATOM     29  C   UNL     1      55.064 242.593 345.819  0.00  0.00    +0.000 C 
ENDBRANCH  24  28
ENDBRANCH  23  24
ENDBRANCH  20  22
ENDBRANCH   5  20
BRANCH  19  30
ATOM     30  O   UNL     1      55.855 231.201 354.513  0.00  0.00    +0.000 OA
BRANCH  30  32
ATOM     31  O   UNL     1      57.495 230.299 353.133  0.00  0.00    +0.000 OA
ATOM     32  C   UNL     1      56.398 230.275 353.671  0.00  0.00    +0.000 C 
BRANCH  32  33
ATOM     33  C   UNL     1      55.511 229.155 353.475  0.00  0.00    +0.000 C 
ATOM     34  C   UNL     1      54.758 228.232 353.316  0.00  0.00    +0.000 C 
BRANCH  34  35
ATOM     35  C   UNL     1      53.848 227.149 353.133  0.00  0.00    +0.000 A 
ATOM     36  C   UNL     1      52.557 227.401 352.674  0.00  0.00    +0.000 A 
ATOM     37  C   UNL     1      54.248 225.846 353.418  0.00  0.00    +0.000 A 
ATOM     38  C   UNL     1      51.649 226.353 352.493  0.00  0.00    +0.000 A 
ATOM     39  C   UNL     1      53.353 224.793 353.243  0.00  0.00    +0.000 A 
ATOM     40  C   UNL     1      52.063 225.051 352.784  0.00  0.00    +0.000 A 
BRANCH  38  41
ATOM     41  O   UNL     1      50.360 226.514 352.047  0.00  0.00    +0.000 OA
ATOM     42  C   UNL     1      49.444 226.986 353.001  0.00  0.00    +0.000 C 
ENDBRANCH  38  41
BRANCH  40  43
ATOM     43  O   UNL     1      51.188 224.012 352.616  0.00  0.00    +0.000 OA
ATOM     44  H   UNL     1      51.367 223.340 353.300  0.00  0.00    +0.000 HD
ENDBRANCH  40  43
ENDBRANCH  34  35
ENDBRANCH  32  33
ENDBRANCH  30  32
ENDBRANCH  19  30
TORSDOF 10
ENDMDL
MODEL 5
REMARK VINA RESULT:      -6.5     12.659     19.492
REMARK  Name = 91746246_sitosterol.pdbqt.pdb
REMARK  10 active torsions:
REMARK  status: ('A' for Active; 'I' for Inactive)
REMARK    1  A    between atoms: C_5  and  C_20
REMARK    2  A    between atoms: C_19  and  O_30
REMARK    3  A    between atoms: C_20  and  C_22
REMARK    4  A    between atoms: C_23  and  C_24
REMARK    5  A    between atoms: C_24  and  C_28
REMARK    6  A    between atoms: O_30  and  C_32
REMARK    7  A    between atoms: C_32  and  C_33
REMARK    8  A    between atoms: C_34  and  C_35
REMARK    9  A    between atoms: C_38  and  O_41
REMARK   10  A    between atoms: C_40  and  O_43
REMARK                            x       y       z     vdW  Elec       q    Type
REMARK                         _______ _______ _______ _____ _____    ______ ____
ROOT
ATOM      1  C   UNL     1      74.256 222.781 336.776  0.00  0.00    +0.000 C 
ATOM      2  C   UNL     1      74.485 223.537 335.361  0.00  0.00    +0.000 C 
ATOM      3  C   UNL     1      74.206 222.887 334.065  0.00  0.00    +0.000 C 
ATOM      4  C   UNL     1      73.458 221.593 333.866  0.00  0.00    +0.000 C 
ATOM      5  C   UNL     1      73.593 223.851 337.635  0.00  0.00    +0.000 C 
ATOM      6  C   UNL     1      73.406 221.637 336.449  0.00  0.00    +0.000 C 
ATOM      7  C   UNL     1      73.241 220.927 332.482  0.00  0.00    +0.000 C 
ATOM      8  C   UNL     1      74.160 224.916 335.559  0.00  0.00    +0.000 C 
ATOM      9  C   UNL     1      73.040 221.047 335.109  0.00  0.00    +0.000 C 
ATOM     10  C   UNL     1      73.590 225.096 336.940  0.00  0.00    +0.000 C 
ATOM     11  C   UNL     1      74.504 223.538 332.842  0.00  0.00    +0.000 C 
ATOM     12  C   UNL     1      75.660 222.410 337.324  0.00  0.00    +0.000 C 
ATOM     13  C   UNL     1      73.482 221.943 331.204  0.00  0.00    +0.000 C 
ATOM     14  C   UNL     1      71.821 220.497 332.328  0.00  0.00    +0.000 C 
ATOM     15  C   UNL     1      74.127 223.035 331.481  0.00  0.00    +0.000 C 
ATOM     16  C   UNL     1      74.235 219.740 332.321  0.00  0.00    +0.000 C 
ATOM     17  C   UNL     1      72.383 222.033 330.269  0.00  0.00    +0.000 C 
ATOM     18  C   UNL     1      70.743 220.741 331.258  0.00  0.00    +0.000 C 
ATOM     19  C   UNL     1      71.030 221.566 330.118  0.00  0.00    +0.000 C 
ENDROOT
BRANCH   5  20
ATOM     20  C   UNL     1      73.270 223.687 339.016  0.00  0.00    +0.000 C 
ATOM     21  C   UNL     1      74.086 224.316 340.113  0.00  0.00    +0.000 C 
BRANCH  20  22
ATOM     22  C   UNL     1      72.315 222.720 339.435  0.00  0.00    +0.000 C 
ATOM     23  C   UNL     1      71.283 221.674 339.884  0.00  0.00    +0.000 C 
BRANCH  23  24
ATOM     24  C   UNL     1      70.315 220.705 340.287  0.00  0.00    +0.000 C 
ATOM     25  C   UNL     1      69.322 220.207 339.360  0.00  0.00    +0.000 C 
ATOM     26  C   UNL     1      68.249 219.212 339.745  0.00  0.00    +0.000 C 
ATOM     27  C   UNL     1      69.269 220.637 337.908  0.00  0.00    +0.000 C 
BRANCH  24  28
ATOM     28  C   UNL     1      70.325 220.221 341.623  0.00  0.00    +0.000 C 
ATOM     29  C   UNL     1      70.323 219.764 343.086  0.00  0.00    +0.000 C 
ENDBRANCH  24  28
ENDBRANCH  23  24
ENDBRANCH  20  22
ENDBRANCH   5  20
BRANCH  19  30
ATOM     30  O   UNL     1      70.593 221.201 328.848  0.00  0.00    +0.000 OA
BRANCH  30  32
ATOM     31  O   UNL     1      70.063 223.028 327.510  0.00  0.00    +0.000 OA
ATOM     32  C   UNL     1      69.773 222.149 328.308  0.00  0.00    +0.000 C 
BRANCH  32  33
ATOM     33  C   UNL     1      68.415 221.997 328.768  0.00  0.00    +0.000 C 
ATOM     34  C   UNL     1      67.290 221.866 329.169  0.00  0.00    +0.000 C 
BRANCH  34  35
ATOM     35  C   UNL     1      65.961 221.705 329.662  0.00  0.00    +0.000 A 
ATOM     36  C   UNL     1      64.879 222.097 328.875  0.00  0.00    +0.000 A 
ATOM     37  C   UNL     1      65.747 221.165 330.927  0.00  0.00    +0.000 A 
ATOM     38  C   UNL     1      63.570 221.953 329.342  0.00  0.00    +0.000 A 
ATOM     39  C   UNL     1      64.447 221.015 331.405  0.00  0.00    +0.000 A 
ATOM     40  C   UNL     1      63.369 221.410 330.614  0.00  0.00    +0.000 A 
BRANCH  38  41
ATOM     41  O   UNL     1      62.451 222.315 328.633  0.00  0.00    +0.000 OA
ATOM     42  C   UNL     1      62.604 223.423 327.784  0.00  0.00    +0.000 C 
ENDBRANCH  38  41
BRANCH  40  43
ATOM     43  O   UNL     1      62.095 221.263 331.091  0.00  0.00    +0.000 OA
ATOM     44  H   UNL     1      61.838 222.082 331.555  0.00  0.00    +0.000 HD
ENDBRANCH  40  43
ENDBRANCH  34  35
ENDBRANCH  32  33
ENDBRANCH  30  32
ENDBRANCH  19  30
TORSDOF 10
ENDMDL
MODEL 6
REMARK VINA RESULT:      -6.5     28.830     32.623
REMARK  Name = 91746246_sitosterol.pdbqt.pdb
REMARK  10 active torsions:
REMARK  status: ('A' for Active; 'I' for Inactive)
REMARK    1  A    between atoms: C_5  and  C_20
REMARK    2  A    between atoms: C_19  and  O_30
REMARK    3  A    between atoms: C_20  and  C_22
REMARK    4  A    between atoms: C_23  and  C_24
REMARK    5  A    between atoms: C_24  and  C_28
REMARK    6  A    between atoms: O_30  and  C_32
REMARK    7  A    between atoms: C_32  and  C_33
REMARK    8  A    between atoms: C_34  and  C_35
REMARK    9  A    between atoms: C_38  and  O_41
REMARK   10  A    between atoms: C_40  and  O_43
REMARK                            x       y       z     vdW  Elec       q    Type
REMARK                         _______ _______ _______ _____ _____    ______ ____
ROOT
ATOM      1  C   UNL     1      53.765 246.378 323.289  0.00  0.00    +0.000 C 
ATOM      2  C   UNL     1      55.063 247.298 322.984  0.00  0.00    +0.000 C 
ATOM      3  C   UNL     1      55.482 248.395 323.880  0.00  0.00    +0.000 C 
ATOM      4  C   UNL     1      54.961 248.647 325.273  0.00  0.00    +0.000 C 
ATOM      5  C   UNL     1      54.257 244.972 322.966  0.00  0.00    +0.000 C 
ATOM      6  C   UNL     1      53.466 246.619 324.700  0.00  0.00    +0.000 C 
ATOM      7  C   UNL     1      55.398 249.848 326.151  0.00  0.00    +0.000 C 
ATOM      8  C   UNL     1      56.044 246.459 322.367  0.00  0.00    +0.000 C 
ATOM      9  C   UNL     1      53.985 247.681 325.638  0.00  0.00    +0.000 C 
ATOM     10  C   UNL     1      55.558 245.036 322.385  0.00  0.00    +0.000 C 
ATOM     11  C   UNL     1      56.564 249.243 323.542  0.00  0.00    +0.000 C 
ATOM     12  C   UNL     1      52.652 246.824 322.304  0.00  0.00    +0.000 C 
ATOM     13  C   UNL     1      56.794 250.573 325.651  0.00  0.00    +0.000 C 
ATOM     14  C   UNL     1      55.713 249.393 327.537  0.00  0.00    +0.000 C 
ATOM     15  C   UNL     1      57.163 250.283 324.441  0.00  0.00    +0.000 C 
ATOM     16  C   UNL     1      54.282 250.934 326.130  0.00  0.00    +0.000 C 
ATOM     17  C   UNL     1      57.826 250.688 326.657  0.00  0.00    +0.000 C 
ATOM     18  C   UNL     1      56.928 249.564 328.465  0.00  0.00    +0.000 C 
ATOM     19  C   UNL     1      58.088 250.278 328.011  0.00  0.00    +0.000 C 
ENDROOT
BRANCH   5  20
ATOM     20  C   UNL     1      53.434 243.806 322.999  0.00  0.00    +0.000 C 
ATOM     21  C   UNL     1      52.948 243.200 324.288  0.00  0.00    +0.000 C 
BRANCH  20  22
ATOM     22  C   UNL     1      53.240 243.014 321.833  0.00  0.00    +0.000 C 
ATOM     23  C   UNL     1      53.028 242.161 320.573  0.00  0.00    +0.000 C 
BRANCH  23  24
ATOM     24  C   UNL     1      52.813 241.368 319.405  0.00  0.00    +0.000 C 
ATOM     25  C   UNL     1      52.080 240.122 319.469  0.00  0.00    +0.000 C 
ATOM     26  C   UNL     1      51.860 239.224 318.271  0.00  0.00    +0.000 C 
ATOM     27  C   UNL     1      51.460 239.602 320.749  0.00  0.00    +0.000 C 
BRANCH  24  28
ATOM     28  C   UNL     1      53.329 241.810 318.157  0.00  0.00    +0.000 C 
ATOM     29  C   UNL     1      53.863 242.350 316.825  0.00  0.00    +0.000 C 
ENDBRANCH  24  28
ENDBRANCH  23  24
ENDBRANCH  20  22
ENDBRANCH   5  20
BRANCH  19  30
ATOM     30  O   UNL     1      58.752 251.165 328.854  0.00  0.00    +0.000 OA
BRANCH  30  32
ATOM     31  O   UNL     1      60.976 250.484 328.873  0.00  0.00    +0.000 OA
ATOM     32  C   UNL     1      59.875 250.604 329.390  0.00  0.00    +0.000 C 
BRANCH  32  33
ATOM     33  C   UNL     1      59.648 250.153 330.741  0.00  0.00    +0.000 C 
ATOM     34  C   UNL     1      59.441 249.774 331.862  0.00  0.00    +0.000 C 
BRANCH  34  35
ATOM     35  C   UNL     1      59.176 249.319 333.187  0.00  0.00    +0.000 A 
ATOM     36  C   UNL     1      58.091 249.837 333.893  0.00  0.00    +0.000 A 
ATOM     37  C   UNL     1      60.003 248.366 333.777  0.00  0.00    +0.000 A 
ATOM     38  C   UNL     1      57.818 249.409 335.195  0.00  0.00    +0.000 A 
ATOM     39  C   UNL     1      59.743 247.931 335.074  0.00  0.00    +0.000 A 
ATOM     40  C   UNL     1      58.657 248.453 335.774  0.00  0.00    +0.000 A 
BRANCH  38  41
ATOM     41  O   UNL     1      56.773 249.868 335.958  0.00  0.00    +0.000 OA
ATOM     42  C   UNL     1      55.509 249.813 335.350  0.00  0.00    +0.000 C 
ENDBRANCH  38  41
BRANCH  40  43
ATOM     43  O   UNL     1      58.408 248.022 337.049  0.00  0.00    +0.000 OA
ATOM     44  H   UNL     1      58.784 248.668 337.676  0.00  0.00    +0.000 HD
ENDBRANCH  40  43
ENDBRANCH  34  35
ENDBRANCH  32  33
ENDBRANCH  30  32
ENDBRANCH  19  30
TORSDOF 10
ENDMDL
MODEL 7
REMARK VINA RESULT:      -6.5     12.255     22.745
REMARK  Name = 91746246_sitosterol.pdbqt.pdb
REMARK  10 active torsions:
REMARK  status: ('A' for Active; 'I' for Inactive)
REMARK    1  A    between atoms: C_5  and  C_20
REMARK    2  A    between atoms: C_19  and  O_30
REMARK    3  A    between atoms: C_20  and  C_22
REMARK    4  A    between atoms: C_23  and  C_24
REMARK    5  A    between atoms: C_24  and  C_28
REMARK    6  A    between atoms: O_30  and  C_32
REMARK    7  A    between atoms: C_32  and  C_33
REMARK    8  A    between atoms: C_34  and  C_35
REMARK    9  A    between atoms: C_38  and  O_41
REMARK   10  A    between atoms: C_40  and  O_43
REMARK                            x       y       z     vdW  Elec       q    Type
REMARK                         _______ _______ _______ _____ _____    ______ ____
ROOT
ATOM      1  C   UNL     1      74.486 222.218 348.140  0.00  0.00    +0.000 C 
ATOM      2  C   UNL     1      75.056 222.508 346.651  0.00  0.00    +0.000 C 
ATOM      3  C   UNL     1      74.570 221.777 345.464  0.00  0.00    +0.000 C 
ATOM      4  C   UNL     1      73.352 220.889 345.408  0.00  0.00    +0.000 C 
ATOM      5  C   UNL     1      74.311 223.616 348.719  0.00  0.00    +0.000 C 
ATOM      6  C   UNL     1      73.243 221.479 347.921  0.00  0.00    +0.000 C 
ATOM      7  C   UNL     1      72.918 220.102 344.144  0.00  0.00    +0.000 C 
ATOM      8  C   UNL     1      75.338 223.907 346.569  0.00  0.00    +0.000 C 
ATOM      9  C   UNL     1      72.704 220.828 346.670  0.00  0.00    +0.000 C 
ATOM     10  C   UNL     1      74.855 224.583 347.824  0.00  0.00    +0.000 C 
ATOM     11  C   UNL     1      75.152 221.984 344.189  0.00  0.00    +0.000 C 
ATOM     12  C   UNL     1      75.584 221.428 348.901  0.00  0.00    +0.000 C 
ATOM     13  C   UNL     1      73.605 220.646 342.745  0.00  0.00    +0.000 C 
ATOM     14  C   UNL     1      71.453 220.266 343.905  0.00  0.00    +0.000 C 
ATOM     15  C   UNL     1      74.641 221.412 342.901  0.00  0.00    +0.000 C 
ATOM     16  C   UNL     1      73.322 218.607 344.305  0.00  0.00    +0.000 C 
ATOM     17  C   UNL     1      72.676 220.981 341.689  0.00  0.00    +0.000 C 
ATOM     18  C   UNL     1      70.614 220.704 342.694  0.00  0.00    +0.000 C 
ATOM     19  C   UNL     1      71.258 221.087 341.469  0.00  0.00    +0.000 C 
ENDROOT
BRANCH   5  20
ATOM     20  C   UNL     1      73.906 223.884 350.062  0.00  0.00    +0.000 C 
ATOM     21  C   UNL     1      72.510 223.606 350.552  0.00  0.00    +0.000 C 
BRANCH  20  22
ATOM     22  C   UNL     1      74.722 224.659 350.932  0.00  0.00    +0.000 C 
ATOM     23  C   UNL     1      75.605 225.497 351.871  0.00  0.00    +0.000 C 
BRANCH  23  24
ATOM     24  C   UNL     1      76.437 226.276 352.730  0.00  0.00    +0.000 C 
ATOM     25  C   UNL     1      75.882 227.010 353.847  0.00  0.00    +0.000 C 
ATOM     26  C   UNL     1      76.711 227.883 354.763  0.00  0.00    +0.000 C 
ATOM     27  C   UNL     1      74.410 226.966 354.205  0.00  0.00    +0.000 C 
BRANCH  24  28
ATOM     28  C   UNL     1      77.835 226.334 352.484  0.00  0.00    +0.000 C 
ATOM     29  C   UNL     1      79.345 226.460 352.249  0.00  0.00    +0.000 C 
ENDBRANCH  24  28
ENDBRANCH  23  24
ENDBRANCH  20  22
ENDBRANCH   5  20
BRANCH  19  30
ATOM     30  O   UNL     1      70.748 220.680 340.239  0.00  0.00    +0.000 OA
BRANCH  30  32
ATOM     31  O   UNL     1      70.561 222.918 339.634  0.00  0.00    +0.000 OA
ATOM     32  C   UNL     1      70.270 221.737 339.519  0.00  0.00    +0.000 C 
BRANCH  32  33
ATOM     33  C   UNL     1      69.339 221.307 338.505  0.00  0.00    +0.000 C 
ATOM     34  C   UNL     1      68.574 220.934 337.656  0.00  0.00    +0.000 C 
BRANCH  34  35
ATOM     35  C   UNL     1      67.678 220.477 336.645  0.00  0.00    +0.000 A 
ATOM     36  C   UNL     1      66.489 219.847 337.008  0.00  0.00    +0.000 A 
ATOM     37  C   UNL     1      67.994 220.654 335.301  0.00  0.00    +0.000 A 
ATOM     38  C   UNL     1      65.601 219.387 336.032  0.00  0.00    +0.000 A 
ATOM     39  C   UNL     1      67.118 220.200 334.318  0.00  0.00    +0.000 A 
ATOM     40  C   UNL     1      65.931 219.570 334.687  0.00  0.00    +0.000 A 
BRANCH  38  41
ATOM     41  O   UNL     1      64.412 218.755 336.303  0.00  0.00    +0.000 OA
ATOM     42  C   UNL     1      64.503 217.378 336.560  0.00  0.00    +0.000 C 
ENDBRANCH  38  41
BRANCH  40  43
ATOM     43  O   UNL     1      65.076 219.125 333.716  0.00  0.00    +0.000 OA
ATOM     44  H   UNL     1      64.455 218.486 334.116  0.00  0.00    +0.000 HD
ENDBRANCH  40  43
ENDBRANCH  34  35
ENDBRANCH  32  33
ENDBRANCH  30  32
ENDBRANCH  19  30
TORSDOF 10
ENDMDL
MODEL 8
REMARK VINA RESULT:      -6.5      4.566     11.023
REMARK  Name = 91746246_sitosterol.pdbqt.pdb
REMARK  10 active torsions:
REMARK  status: ('A' for Active; 'I' for Inactive)
REMARK    1  A    between atoms: C_5  and  C_20
REMARK    2  A    between atoms: C_19  and  O_30
REMARK    3  A    between atoms: C_20  and  C_22
REMARK    4  A    between atoms: C_23  and  C_24
REMARK    5  A    between atoms: C_24  and  C_28
REMARK    6  A    between atoms: O_30  and  C_32
REMARK    7  A    between atoms: C_32  and  C_33
REMARK    8  A    between atoms: C_34  and  C_35
REMARK    9  A    between atoms: C_38  and  O_41
REMARK   10  A    between atoms: C_40  and  O_43
REMARK                            x       y       z     vdW  Elec       q    Type
REMARK                         _______ _______ _______ _____ _____    ______ ____
ROOT
ATOM      1  C   UNL     1      57.607 217.349 336.072  0.00  0.00    +0.000 C 
ATOM      2  C   UNL     1      56.836 218.415 335.126  0.00  0.00    +0.000 C 
ATOM      3  C   UNL     1      55.756 218.013 334.202  0.00  0.00    +0.000 C 
ATOM      4  C   UNL     1      55.058 216.676 334.183  0.00  0.00    +0.000 C 
ATOM      5  C   UNL     1      57.697 218.077 337.408  0.00  0.00    +0.000 C 
ATOM      6  C   UNL     1      56.748 216.166 336.070  0.00  0.00    +0.000 C 
ATOM      7  C   UNL     1      53.966 216.289 333.152  0.00  0.00    +0.000 C 
ATOM      8  C   UNL     1      56.736 219.640 335.859  0.00  0.00    +0.000 C 
ATOM      9  C   UNL     1      55.576 215.814 335.187  0.00  0.00    +0.000 C 
ATOM     10  C   UNL     1      57.238 219.419 337.260  0.00  0.00    +0.000 C 
ATOM     11  C   UNL     1      55.164 218.949 333.319  0.00  0.00    +0.000 C 
ATOM     12  C   UNL     1      59.014 217.131 335.455  0.00  0.00    +0.000 C 
ATOM     13  C   UNL     1      53.297 217.578 332.368  0.00  0.00    +0.000 C 
ATOM     14  C   UNL     1      52.804 215.651 333.838  0.00  0.00    +0.000 C 
ATOM     15  C   UNL     1      53.969 218.685 332.453  0.00  0.00    +0.000 C 
ATOM     16  C   UNL     1      54.588 215.362 332.067  0.00  0.00    +0.000 C 
ATOM     17  C   UNL     1      51.855 217.662 332.434  0.00  0.00    +0.000 C 
ATOM     18  C   UNL     1      51.290 215.917 333.839  0.00  0.00    +0.000 C 
ATOM     19  C   UNL     1      50.746 217.001 333.070  0.00  0.00    +0.000 C 
ENDROOT
BRANCH   5  20
ATOM     20  C   UNL     1      58.380 217.570 338.554  0.00  0.00    +0.000 C 
ATOM     21  C   UNL     1      59.852 217.790 338.776  0.00  0.00    +0.000 C 
BRANCH  20  22
ATOM     22  C   UNL     1      57.762 216.621 339.415  0.00  0.00    +0.000 C 
ATOM     23  C   UNL     1      57.096 215.597 340.347  0.00  0.00    +0.000 C 
BRANCH  23  24
ATOM     24  C   UNL     1      56.492 214.637 341.215  0.00  0.00    +0.000 C 
ATOM     25  C   UNL     1      55.102 214.263 341.067  0.00  0.00    +0.000 C 
ATOM     26  C   UNL     1      54.402 213.283 341.983  0.00  0.00    +0.000 C 
ATOM     27  C   UNL     1      54.217 214.820 339.972  0.00  0.00    +0.000 C 
BRANCH  24  28
ATOM     28  C   UNL     1      57.269 214.038 342.242  0.00  0.00    +0.000 C 
ATOM     29  C   UNL     1      58.056 213.407 343.397  0.00  0.00    +0.000 C 
ENDBRANCH  24  28
ENDBRANCH  23  24
ENDBRANCH  20  22
ENDBRANCH   5  20
BRANCH  19  30
ATOM     30  O   UNL     1      49.569 216.840 332.346  0.00  0.00    +0.000 OA
BRANCH  30  32
ATOM     31  O   UNL     1      48.063 218.558 331.913  0.00  0.00    +0.000 OA
ATOM     32  C   UNL     1      48.646 217.793 332.666  0.00  0.00    +0.000 C 
BRANCH  32  33
ATOM     33  C   UNL     1      48.368 217.805 334.081  0.00  0.00    +0.000 C 
ATOM     34  C   UNL     1      48.146 217.831 335.262  0.00  0.00    +0.000 C 
BRANCH  34  35
ATOM     35  C   UNL     1      47.892 217.878 336.664  0.00  0.00    +0.000 A 
ATOM     36  C   UNL     1      48.680 217.126 337.535  0.00  0.00    +0.000 A 
ATOM     37  C   UNL     1      46.858 218.667 337.161  0.00  0.00    +0.000 A 
ATOM     38  C   UNL     1      48.444 217.154 338.912  0.00  0.00    +0.000 A 
ATOM     39  C   UNL     1      46.612 218.704 338.532  0.00  0.00    +0.000 A 
ATOM     40  C   UNL     1      47.402 217.949 339.397  0.00  0.00    +0.000 A 
BRANCH  38  41
ATOM     41  O   UNL     1      49.171 216.444 339.837  0.00  0.00    +0.000 OA
ATOM     42  C   UNL     1      50.539 216.753 339.898  0.00  0.00    +0.000 C 
ENDBRANCH  38  41
BRANCH  40  43
ATOM     43  O   UNL     1      47.154 217.989 340.742  0.00  0.00    +0.000 OA
ATOM     44  H   UNL     1      48.002 218.091 341.213  0.00  0.00    +0.000 HD
ENDBRANCH  40  43
ENDBRANCH  34  35
ENDBRANCH  32  33
ENDBRANCH  30  32
ENDBRANCH  19  30
TORSDOF 10
ENDMDL
MODEL 9
REMARK VINA RESULT:      -6.1      1.978      2.745
REMARK  Name = 91746246_sitosterol.pdbqt.pdb
REMARK  10 active torsions:
REMARK  status: ('A' for Active; 'I' for Inactive)
REMARK    1  A    between atoms: C_5  and  C_20
REMARK    2  A    between atoms: C_19  and  O_30
REMARK    3  A    between atoms: C_20  and  C_22
REMARK    4  A    between atoms: C_23  and  C_24
REMARK    5  A    between atoms: C_24  and  C_28
REMARK    6  A    between atoms: O_30  and  C_32
REMARK    7  A    between atoms: C_32  and  C_33
REMARK    8  A    between atoms: C_34  and  C_35
REMARK    9  A    between atoms: C_38  and  O_41
REMARK   10  A    between atoms: C_40  and  O_43
REMARK                            x       y       z     vdW  Elec       q    Type
REMARK                         _______ _______ _______ _____ _____    ______ ____
ROOT
ATOM      1  C   UNL     1      54.599 217.800 332.258  0.00  0.00    +0.000 C 
ATOM      2  C   UNL     1      55.314 216.523 332.956  0.00  0.00    +0.000 C 
ATOM      3  C   UNL     1      56.268 216.667 334.074  0.00  0.00    +0.000 C 
ATOM      4  C   UNL     1      56.512 217.922 334.874  0.00  0.00    +0.000 C 
ATOM      5  C   UNL     1      53.156 217.340 332.096  0.00  0.00    +0.000 C 
ATOM      6  C   UNL     1      54.796 218.896 333.207  0.00  0.00    +0.000 C 
ATOM      7  C   UNL     1      57.568 218.029 336.005  0.00  0.00    +0.000 C 
ATOM      8  C   UNL     1      54.367 215.451 332.950  0.00  0.00    +0.000 C 
ATOM      9  C   UNL     1      55.697 218.989 334.413  0.00  0.00    +0.000 C 
ATOM     10  C   UNL     1      53.043 215.964 332.450  0.00  0.00    +0.000 C 
ATOM     11  C   UNL     1      56.948 215.542 334.602  0.00  0.00    +0.000 C 
ATOM     12  C   UNL     1      55.283 218.005 330.880  0.00  0.00    +0.000 C 
ATOM     13  C   UNL     1      58.085 216.571 336.581  0.00  0.00    +0.000 C 
ATOM     14  C   UNL     1      56.980 218.694 337.205  0.00  0.00    +0.000 C 
ATOM     15  C   UNL     1      57.817 215.552 335.824  0.00  0.00    +0.000 C 
ATOM     16  C   UNL     1      58.820 218.784 335.470  0.00  0.00    +0.000 C 
ATOM     17  C   UNL     1      57.967 216.393 338.011  0.00  0.00    +0.000 C 
ATOM     18  C   UNL     1      56.891 218.321 338.694  0.00  0.00    +0.000 C 
ATOM     19  C   UNL     1      57.434 217.076 339.161  0.00  0.00    +0.000 C 
ENDROOT
BRANCH   5  20
ATOM     20  C   UNL     1      52.140 218.099 331.441  0.00  0.00    +0.000 C 
ATOM     21  C   UNL     1      52.337 218.697 330.073  0.00  0.00    +0.000 C 
BRANCH  20  22
ATOM     22  C   UNL     1      50.986 218.541 332.146  0.00  0.00    +0.000 C 
ATOM     23  C   UNL     1      49.741 219.018 332.910  0.00  0.00    +0.000 C 
BRANCH  23  24
ATOM     24  C   UNL     1      48.588 219.450 333.633  0.00  0.00    +0.000 C 
ATOM     25  C   UNL     1      47.656 220.398 333.060  0.00  0.00    +0.000 C 
ATOM     26  C   UNL     1      46.442 220.920 333.797  0.00  0.00    +0.000 C 
ATOM     27  C   UNL     1      47.811 220.953 331.659  0.00  0.00    +0.000 C 
BRANCH  24  28
ATOM     28  C   UNL     1      48.351 218.942 334.938  0.00  0.00    +0.000 C 
ATOM     29  C   UNL     1      48.029 218.381 336.328  0.00  0.00    +0.000 C 
ENDBRANCH  24  28
ENDBRANCH  23  24
ENDBRANCH  20  22
ENDBRANCH   5  20
BRANCH  19  30
ATOM     30  O   UNL     1      58.145 217.013 340.356  0.00  0.00    +0.000 OA
BRANCH  30  32
ATOM     31  O   UNL     1      57.085 215.204 341.361  0.00  0.00    +0.000 OA
ATOM     32  C   UNL     1      58.072 215.772 340.919  0.00  0.00    +0.000 C 
BRANCH  32  33
ATOM     33  C   UNL     1      59.357 215.117 340.923  0.00  0.00    +0.000 C 
ATOM     34  C   UNL     1      60.435 214.587 340.934  0.00  0.00    +0.000 C 
BRANCH  34  35
ATOM     35  C   UNL     1      61.723 213.974 340.953  0.00  0.00    +0.000 A 
ATOM     36  C   UNL     1      61.850 212.622 340.639  0.00  0.00    +0.000 A 
ATOM     37  C   UNL     1      62.847 214.722 341.291  0.00  0.00    +0.000 A 
ATOM     38  C   UNL     1      63.102 212.002 340.657  0.00  0.00    +0.000 A 
ATOM     39  C   UNL     1      64.102 214.117 341.314  0.00  0.00    +0.000 A 
ATOM     40  C   UNL     1      64.222 212.764 340.999  0.00  0.00    +0.000 A 
BRANCH  38  41
ATOM     41  O   UNL     1      63.315 210.677 340.363  0.00  0.00    +0.000 OA
ATOM     42  C   UNL     1      62.471 209.768 341.022  0.00  0.00    +0.000 C 
ENDBRANCH  38  41
BRANCH  40  43
ATOM     43  O   UNL     1      65.457 212.175 341.025  0.00  0.00    +0.000 OA
ATOM     44  H   UNL     1      65.450 211.465 341.695  0.00  0.00    +0.000 HD
ENDBRANCH  40  43
ENDBRANCH  34  35
ENDBRANCH  32  33
ENDBRANCH  30  32
ENDBRANCH  19  30
TORSDOF 10
ENDMDL
