MODEL 1
REMARK VINA RESULT:      -3.7      0.000      0.000
REMARK  Name = 92041_2Ethoxy5fluorouracil.pdbqt.pdb
REMARK  2 active torsions:
REMARK  status: ('A' for Active; 'I' for Inactive)
REMARK    1  A    between atoms: C_5  and  O_10
REMARK    2  A    between atoms: O_10  and  C_11
REMARK                            x       y       z     vdW  Elec       q    Type
REMARK                         _______ _______ _______ _____ _____    ______ ____
ROOT
ATOM      1  F   UNL     1      52.201 243.111 328.614  0.00  0.00    +0.000 F 
ATOM      2  O   UNL     1      50.739 241.509 326.762  0.00  0.00    +0.000 OA
ATOM      3  N   UNL     1      52.007 242.416 325.073  0.00  0.00    +0.000 N 
ATOM      4  N   UNL     1      53.818 243.886 325.461  0.00  0.00    +0.000 NA
ATOM      5  C   UNL     1      53.028 243.256 324.638  0.00  0.00    +0.000 C 
ATOM      6  C   UNL     1      51.700 242.183 326.416  0.00  0.00    +0.000 C 
ATOM      7  C   UNL     1      52.640 242.851 327.371  0.00  0.00    +0.000 C 
ATOM      8  C   UNL     1      53.484 243.582 326.721  0.00  0.00    +0.000 C 
ATOM      9  H   UNL     1      51.398 241.984 324.395  0.00  0.00    +0.000 HD
ENDROOT
BRANCH   5  10
ATOM     10  O   UNL     1      53.094 243.337 323.289  0.00  0.00    +0.000 OA
BRANCH  10  11
ATOM     11  C   UNL     1      54.086 244.072 322.795  0.00  0.00    +0.000 C 
ATOM     12  C   UNL     1      55.228 244.953 322.279  0.00  0.00    +0.000 C 
ENDBRANCH  10  11
ENDBRANCH   5  10
TORSDOF 2
ENDMDL
MODEL 2
REMARK VINA RESULT:      -3.6     20.981     22.184
REMARK  Name = 92041_2Ethoxy5fluorouracil.pdbqt.pdb
REMARK  2 active torsions:
REMARK  status: ('A' for Active; 'I' for Inactive)
REMARK    1  A    between atoms: C_5  and  O_10
REMARK    2  A    between atoms: O_10  and  C_11
REMARK                            x       y       z     vdW  Elec       q    Type
REMARK                         _______ _______ _______ _____ _____    ______ ____
ROOT
ATOM      1  F   UNL     1      55.436 238.734 348.658  0.00  0.00    +0.000 F 
ATOM      2  O   UNL     1      57.189 240.971 348.889  0.00  0.00    +0.000 OA
ATOM      3  N   UNL     1      55.816 242.116 347.445  0.00  0.00    +0.000 N 
ATOM      4  N   UNL     1      53.769 241.247 346.641  0.00  0.00    +0.000 NA
ATOM      5  C   UNL     1      54.673 242.185 346.654  0.00  0.00    +0.000 C 
ATOM      6  C   UNL     1      56.133 241.038 348.275  0.00  0.00    +0.000 C 
ATOM      7  C   UNL     1      55.073 239.982 348.317  0.00  0.00    +0.000 C 
ATOM      8  C   UNL     1      54.127 240.271 347.486  0.00  0.00    +0.000 C 
ATOM      9  H   UNL     1      56.503 242.853 347.388  0.00  0.00    +0.000 HD
ENDROOT
BRANCH   5  10
ATOM     10  O   UNL     1      54.619 243.319 345.917  0.00  0.00    +0.000 OA
BRANCH  10  11
ATOM     11  C   UNL     1      53.419 243.877 345.789  0.00  0.00    +0.000 C 
ATOM     12  C   UNL     1      52.055 244.545 345.587  0.00  0.00    +0.000 C 
ENDBRANCH  10  11
ENDBRANCH   5  10
TORSDOF 2
ENDMDL
MODEL 3
REMARK VINA RESULT:      -3.2     26.731     27.664
REMARK  Name = 92041_2Ethoxy5fluorouracil.pdbqt.pdb
REMARK  2 active torsions:
REMARK  status: ('A' for Active; 'I' for Inactive)
REMARK    1  A    between atoms: C_5  and  O_10
REMARK    2  A    between atoms: O_10  and  C_11
REMARK                            x       y       z     vdW  Elec       q    Type
REMARK                         _______ _______ _______ _____ _____    ______ ____
ROOT
ATOM      1  F   UNL     1      60.287 218.155 338.797  0.00  0.00    +0.000 F 
ATOM      2  O   UNL     1      57.689 218.628 339.873  0.00  0.00    +0.000 OA
ATOM      3  N   UNL     1      56.922 218.923 337.727  0.00  0.00    +0.000 N 
ATOM      4  N   UNL     1      58.270 218.585 335.813  0.00  0.00    +0.000 NA
ATOM      5  C   UNL     1      57.139 218.945 336.352  0.00  0.00    +0.000 C 
ATOM      6  C   UNL     1      57.885 218.551 338.668  0.00  0.00    +0.000 C 
ATOM      7  C   UNL     1      59.168 218.076 338.058  0.00  0.00    +0.000 C 
ATOM      8  C   UNL     1      59.123 218.210 336.774  0.00  0.00    +0.000 C 
ATOM      9  H   UNL     1      56.041 219.249 338.095  0.00  0.00    +0.000 HD
ENDROOT
BRANCH   5  10
ATOM     10  O   UNL     1      56.057 219.377 335.662  0.00  0.00    +0.000 OA
BRANCH  10  11
ATOM     11  C   UNL     1      55.875 218.836 334.462  0.00  0.00    +0.000 C 
ATOM     12  C   UNL     1      55.667 218.271 333.053  0.00  0.00    +0.000 C 
ENDBRANCH  10  11
ENDBRANCH   5  10
TORSDOF 2
ENDMDL
MODEL 4
REMARK VINA RESULT:      -3.1      3.339      5.298
REMARK  Name = 92041_2Ethoxy5fluorouracil.pdbqt.pdb
REMARK  2 active torsions:
REMARK  status: ('A' for Active; 'I' for Inactive)
REMARK    1  A    between atoms: C_5  and  O_10
REMARK    2  A    between atoms: O_10  and  C_11
REMARK                            x       y       z     vdW  Elec       q    Type
REMARK                         _______ _______ _______ _____ _____    ______ ____
ROOT
ATOM      1  F   UNL     1      53.722 245.239 325.300  0.00  0.00    +0.000 F 
ATOM      2  O   UNL     1      54.284 242.791 326.650  0.00  0.00    +0.000 OA
ATOM      3  N   UNL     1      52.414 243.146 327.939  0.00  0.00    +0.000 N 
ATOM      4  N   UNL     1      50.921 244.945 327.586  0.00  0.00    +0.000 NA
ATOM      5  C   UNL     1      51.298 243.906 328.275  0.00  0.00    +0.000 C 
ATOM      6  C   UNL     1      53.260 243.427 326.863  0.00  0.00    +0.000 C 
ATOM      7  C   UNL     1      52.804 244.582 326.026  0.00  0.00    +0.000 C 
ATOM      8  C   UNL     1      51.758 245.125 326.556  0.00  0.00    +0.000 C 
ATOM      9  H   UNL     1      52.685 242.374 328.530  0.00  0.00    +0.000 HD
ENDROOT
BRANCH   5  10
ATOM     10  O   UNL     1      50.668 243.442 329.380  0.00  0.00    +0.000 OA
BRANCH  10  11
ATOM     11  C   UNL     1      49.627 244.154 329.802  0.00  0.00    +0.000 C 
ATOM     12  C   UNL     1      48.392 244.923 330.281  0.00  0.00    +0.000 C 
ENDBRANCH  10  11
ENDBRANCH   5  10
TORSDOF 2
ENDMDL
MODEL 5
REMARK VINA RESULT:      -3.0      8.324      9.591
REMARK  Name = 92041_2Ethoxy5fluorouracil.pdbqt.pdb
REMARK  2 active torsions:
REMARK  status: ('A' for Active; 'I' for Inactive)
REMARK    1  A    between atoms: C_5  and  O_10
REMARK    2  A    between atoms: O_10  and  C_11
REMARK                            x       y       z     vdW  Elec       q    Type
REMARK                         _______ _______ _______ _____ _____    ______ ____
ROOT
ATOM      1  F   UNL     1      48.179 232.480 322.162  0.00  0.00    +0.000 F 
ATOM      2  O   UNL     1      49.429 233.075 324.655  0.00  0.00    +0.000 OA
ATOM      3  N   UNL     1      49.464 235.288 324.037  0.00  0.00    +0.000 N 
ATOM      4  N   UNL     1      48.463 236.095 322.052  0.00  0.00    +0.000 NA
ATOM      5  C   UNL     1      49.168 236.301 323.129  0.00  0.00    +0.000 C 
ATOM      6  C   UNL     1      49.075 233.956 323.883  0.00  0.00    +0.000 C 
ATOM      7  C   UNL     1      48.213 233.718 322.682  0.00  0.00    +0.000 C 
ATOM      8  C   UNL     1      48.100 234.807 321.997  0.00  0.00    +0.000 C 
ATOM      9  H   UNL     1      50.047 235.494 324.835  0.00  0.00    +0.000 HD
ENDROOT
BRANCH   5  10
ATOM     10  O   UNL     1      49.690 237.495 323.493  0.00  0.00    +0.000 OA
BRANCH  10  11
ATOM     11  C   UNL     1      49.163 238.057 324.577  0.00  0.00    +0.000 C 
ATOM     12  C   UNL     1      48.563 238.761 325.798  0.00  0.00    +0.000 C 
ENDBRANCH  10  11
ENDBRANCH   5  10
TORSDOF 2
ENDMDL
MODEL 6
REMARK VINA RESULT:      -3.0     22.291     22.701
REMARK  Name = 92041_2Ethoxy5fluorouracil.pdbqt.pdb
REMARK  2 active torsions:
REMARK  status: ('A' for Active; 'I' for Inactive)
REMARK    1  A    between atoms: C_5  and  O_10
REMARK    2  A    between atoms: O_10  and  C_11
REMARK                            x       y       z     vdW  Elec       q    Type
REMARK                         _______ _______ _______ _____ _____    ______ ____
ROOT
ATOM      1  F   UNL     1      75.089 236.149 330.574  0.00  0.00    +0.000 F 
ATOM      2  O   UNL     1      72.552 235.076 331.311  0.00  0.00    +0.000 OA
ATOM      3  N   UNL     1      72.408 234.142 329.216  0.00  0.00    +0.000 N 
ATOM      4  N   UNL     1      74.163 234.237 327.633  0.00  0.00    +0.000 NA
ATOM      5  C   UNL     1      72.947 233.897 327.956  0.00  0.00    +0.000 C 
ATOM      6  C   UNL     1      73.087 234.798 330.246  0.00  0.00    +0.000 C 
ATOM      7  C   UNL     1      74.506 235.138 329.909  0.00  0.00    +0.000 C 
ATOM      8  C   UNL     1      74.755 234.823 328.682  0.00  0.00    +0.000 C 
ATOM      9  H   UNL     1      71.448 233.894 329.401  0.00  0.00    +0.000 HD
ENDROOT
BRANCH   5  10
ATOM     10  O   UNL     1      72.073 233.278 327.129  0.00  0.00    +0.000 OA
BRANCH  10  11
ATOM     11  C   UNL     1      71.672 232.067 327.501  0.00  0.00    +0.000 C 
ATOM     12  C   UNL     1      71.184 230.664 327.875  0.00  0.00    +0.000 C 
ENDBRANCH  10  11
ENDBRANCH   5  10
TORSDOF 2
ENDMDL
MODEL 7
REMARK VINA RESULT:      -2.9     30.630     31.417
REMARK  Name = 92041_2Ethoxy5fluorouracil.pdbqt.pdb
REMARK  2 active torsions:
REMARK  status: ('A' for Active; 'I' for Inactive)
REMARK    1  A    between atoms: C_5  and  O_10
REMARK    2  A    between atoms: O_10  and  C_11
REMARK                            x       y       z     vdW  Elec       q    Type
REMARK                         _______ _______ _______ _____ _____    ______ ____
ROOT
ATOM      1  F   UNL     1      75.492 223.961 337.609  0.00  0.00    +0.000 F 
ATOM      2  O   UNL     1      72.966 224.023 336.286  0.00  0.00    +0.000 OA
ATOM      3  N   UNL     1      71.967 223.576 338.307  0.00  0.00    +0.000 N 
ATOM      4  N   UNL     1      73.162 223.461 340.345  0.00  0.00    +0.000 NA
ATOM      5  C   UNL     1      72.049 223.347 339.677  0.00  0.00    +0.000 C 
ATOM      6  C   UNL     1      73.057 223.916 337.501  0.00  0.00    +0.000 C 
ATOM      7  C   UNL     1      74.330 224.112 338.265  0.00  0.00    +0.000 C 
ATOM      8  C   UNL     1      74.146 223.824 339.511  0.00  0.00    +0.000 C 
ATOM      9  H   UNL     1      71.088 223.435 337.832  0.00  0.00    +0.000 HD
ENDROOT
BRANCH   5  10
ATOM     10  O   UNL     1      70.858 222.998 340.217  0.00  0.00    +0.000 OA
BRANCH  10  11
ATOM     11  C   UNL     1      70.490 221.730 340.055  0.00  0.00    +0.000 C 
ATOM     12  C   UNL     1      70.048 220.284 339.809  0.00  0.00    +0.000 C 
ENDBRANCH  10  11
ENDBRANCH   5  10
TORSDOF 2
ENDMDL
MODEL 8
REMARK VINA RESULT:      -2.9      7.098      8.514
REMARK  Name = 92041_2Ethoxy5fluorouracil.pdbqt.pdb
REMARK  2 active torsions:
REMARK  status: ('A' for Active; 'I' for Inactive)
REMARK    1  A    between atoms: C_5  and  O_10
REMARK    2  A    between atoms: O_10  and  C_11
REMARK                            x       y       z     vdW  Elec       q    Type
REMARK                         _______ _______ _______ _____ _____    ______ ____
ROOT
ATOM      1  F   UNL     1      48.316 240.070 324.925  0.00  0.00    +0.000 F 
ATOM      2  O   UNL     1      48.053 239.093 322.259  0.00  0.00    +0.000 OA
ATOM      3  N   UNL     1      48.848 237.064 322.992  0.00  0.00    +0.000 N 
ATOM      4  N   UNL     1      49.297 236.594 325.266  0.00  0.00    +0.000 NA
ATOM      5  C   UNL     1      49.307 236.237 324.013  0.00  0.00    +0.000 C 
ATOM      6  C   UNL     1      48.365 238.360 323.189  0.00  0.00    +0.000 C 
ATOM      7  C   UNL     1      48.290 238.760 324.630  0.00  0.00    +0.000 C 
ATOM      8  C   UNL     1      48.788 237.828 325.374  0.00  0.00    +0.000 C 
ATOM      9  H   UNL     1      48.914 236.753 322.035  0.00  0.00    +0.000 HD
ENDROOT
BRANCH   5  10
ATOM     10  O   UNL     1      49.754 235.045 323.554  0.00  0.00    +0.000 OA
BRANCH  10  11
ATOM     11  C   UNL     1      48.880 234.043 323.577  0.00  0.00    +0.000 C 
ATOM     12  C   UNL     1      47.858 232.905 323.664  0.00  0.00    +0.000 C 
ENDBRANCH  10  11
ENDBRANCH   5  10
TORSDOF 2
ENDMDL
MODEL 9
REMARK VINA RESULT:      -2.9      2.583      4.248
REMARK  Name = 92041_2Ethoxy5fluorouracil.pdbqt.pdb
REMARK  2 active torsions:
REMARK  status: ('A' for Active; 'I' for Inactive)
REMARK    1  A    between atoms: C_5  and  O_10
REMARK    2  A    between atoms: O_10  and  C_11
REMARK                            x       y       z     vdW  Elec       q    Type
REMARK                         _______ _______ _______ _____ _____    ______ ____
ROOT
ATOM      1  F   UNL     1      53.808 245.759 325.688  0.00  0.00    +0.000 F 
ATOM      2  O   UNL     1      51.267 245.248 324.498  0.00  0.00    +0.000 OA
ATOM      3  N   UNL     1      51.169 243.291 325.698  0.00  0.00    +0.000 N 
ATOM      4  N   UNL     1      52.795 242.671 327.300  0.00  0.00    +0.000 NA
ATOM      5  C   UNL     1      51.716 242.403 326.621  0.00  0.00    +0.000 C 
ATOM      6  C   UNL     1      51.725 244.532 325.379  0.00  0.00    +0.000 C 
ATOM      7  C   UNL     1      52.930 244.878 326.196  0.00  0.00    +0.000 C 
ATOM      8  C   UNL     1      53.243 243.887 326.964  0.00  0.00    +0.000 C 
ATOM      9  H   UNL     1      50.354 243.017 325.171  0.00  0.00    +0.000 HD
ENDROOT
BRANCH   5  10
ATOM     10  O   UNL     1      51.005 241.256 326.721  0.00  0.00    +0.000 OA
BRANCH  10  11
ATOM     11  C   UNL     1      49.731 241.322 326.348  0.00  0.00    +0.000 C 
ATOM     12  C   UNL     1      48.262 241.336 325.914  0.00  0.00    +0.000 C 
ENDBRANCH  10  11
ENDBRANCH   5  10
TORSDOF 2
ENDMDL
