MODEL 1
REMARK VINA RESULT:      -3.9      0.000      0.000
REMARK  Name = 95716_6Bromoisatin.pdbqt.pdb
REMARK  0 active torsions:
REMARK  status: ('A' for Active; 'I' for Inactive)
REMARK                            x       y       z     vdW  Elec       q    Type
REMARK                         _______ _______ _______ _____ _____    ______ ____
ROOT
ATOM      1 BR   UNL     1      53.137 245.269 346.997  0.00  0.00    +0.000 Br
ATOM      2  O   UNL     1      55.522 238.853 348.375  0.00  0.00    +0.000 OA
ATOM      3  O   UNL     1      52.794 238.117 349.419  0.00  0.00    +0.000 OA
ATOM      4  N   UNL     1      52.373 240.333 348.824  0.00  0.00    +0.000 N 
ATOM      5  C   UNL     1      53.126 241.363 348.268  0.00  0.00    +0.000 A 
ATOM      6  C   UNL     1      54.435 240.959 348.013  0.00  0.00    +0.000 A 
ATOM      7  C   UNL     1      54.545 239.562 348.433  0.00  0.00    +0.000 C 
ATOM      8  C   UNL     1      52.699 242.641 347.979  0.00  0.00    +0.000 A 
ATOM      9  C   UNL     1      55.382 241.796 347.461  0.00  0.00    +0.000 A 
ATOM     10  C   UNL     1      53.134 239.188 348.971  0.00  0.00    +0.000 C 
ATOM     11  C   UNL     1      53.645 243.503 347.420  0.00  0.00    +0.000 A 
ATOM     12  C   UNL     1      54.965 243.094 347.163  0.00  0.00    +0.000 A 
ATOM     13  H   UNL     1      51.401 240.383 349.095  0.00  0.00    +0.000 HD
ENDROOT
TORSDOF 0
ENDMDL
MODEL 2
REMARK VINA RESULT:      -3.7     23.239     24.410
REMARK  Name = 95716_6Bromoisatin.pdbqt.pdb
REMARK  0 active torsions:
REMARK  status: ('A' for Active; 'I' for Inactive)
REMARK                            x       y       z     vdW  Elec       q    Type
REMARK                         _______ _______ _______ _____ _____    ______ ____
ROOT
ATOM      1 BR   UNL     1      78.618 232.300 340.354  0.00  0.00    +0.000 Br
ATOM      2  O   UNL     1      74.501 237.939 340.376  0.00  0.00    +0.000 OA
ATOM      3  O   UNL     1      72.571 236.475 338.586  0.00  0.00    +0.000 OA
ATOM      4  N   UNL     1      74.188 234.811 338.819  0.00  0.00    +0.000 N 
ATOM      5  C   UNL     1      75.401 234.704 339.494  0.00  0.00    +0.000 A 
ATOM      6  C   UNL     1      75.704 235.874 340.187  0.00  0.00    +0.000 A 
ATOM      7  C   UNL     1      74.610 236.814 339.947  0.00  0.00    +0.000 C 
ATOM      8  C   UNL     1      76.245 233.615 339.518  0.00  0.00    +0.000 A 
ATOM      9  C   UNL     1      76.853 236.023 340.935  0.00  0.00    +0.000 A 
ATOM     10  C   UNL     1      73.616 236.053 339.023  0.00  0.00    +0.000 C 
ATOM     11  C   UNL     1      77.413 233.748 340.271  0.00  0.00    +0.000 A 
ATOM     12  C   UNL     1      77.718 234.929 340.970  0.00  0.00    +0.000 A 
ATOM     13  H   UNL     1      73.757 234.096 338.249  0.00  0.00    +0.000 HD
ENDROOT
TORSDOF 0
ENDMDL
MODEL 3
REMARK VINA RESULT:      -3.7     24.815     25.787
REMARK  Name = 95716_6Bromoisatin.pdbqt.pdb
REMARK  0 active torsions:
REMARK  status: ('A' for Active; 'I' for Inactive)
REMARK                            x       y       z     vdW  Elec       q    Type
REMARK                         _______ _______ _______ _____ _____    ______ ____
ROOT
ATOM      1 BR   UNL     1      57.975 217.309 334.286  0.00  0.00    +0.000 Br
ATOM      2  O   UNL     1      58.348 219.575 340.880  0.00  0.00    +0.000 OA
ATOM      3  O   UNL     1      58.185 216.717 341.819  0.00  0.00    +0.000 OA
ATOM      4  N   UNL     1      58.083 216.353 339.517  0.00  0.00    +0.000 N 
ATOM      5  C   UNL     1      58.102 217.169 338.389  0.00  0.00    +0.000 A 
ATOM      6  C   UNL     1      58.204 218.515 338.735  0.00  0.00    +0.000 A 
ATOM      7  C   UNL     1      58.258 218.584 340.194  0.00  0.00    +0.000 C 
ATOM      8  C   UNL     1      58.031 216.767 337.073  0.00  0.00    +0.000 A 
ATOM      9  C   UNL     1      58.242 219.526 337.798  0.00  0.00    +0.000 A 
ATOM     10  C   UNL     1      58.173 217.106 340.673  0.00  0.00    +0.000 C 
ATOM     11  C   UNL     1      58.067 217.778 336.110  0.00  0.00    +0.000 A 
ATOM     12  C   UNL     1      58.171 219.136 336.459  0.00  0.00    +0.000 A 
ATOM     13  H   UNL     1      58.015 215.345 339.523  0.00  0.00    +0.000 HD
ENDROOT
TORSDOF 0
ENDMDL
MODEL 4
REMARK VINA RESULT:      -3.6     27.516     27.672
REMARK  Name = 95716_6Bromoisatin.pdbqt.pdb
REMARK  0 active torsions:
REMARK  status: ('A' for Active; 'I' for Inactive)
REMARK                            x       y       z     vdW  Elec       q    Type
REMARK                         _______ _______ _______ _____ _____    ______ ____
ROOT
ATOM      1 BR   UNL     1      71.936 220.238 343.945  0.00  0.00    +0.000 Br
ATOM      2  O   UNL     1      69.084 221.207 337.647  0.00  0.00    +0.000 OA
ATOM      3  O   UNL     1      67.134 218.989 338.244  0.00  0.00    +0.000 OA
ATOM      4  N   UNL     1      68.337 218.967 340.242  0.00  0.00    +0.000 N 
ATOM      5  C   UNL     1      69.409 219.693 340.754  0.00  0.00    +0.000 A 
ATOM      6  C   UNL     1      69.855 220.652 339.848  0.00  0.00    +0.000 A 
ATOM      7  C   UNL     1      69.013 220.547 338.657  0.00  0.00    +0.000 C 
ATOM      8  C   UNL     1      70.003 219.537 341.988  0.00  0.00    +0.000 A 
ATOM      9  C   UNL     1      70.907 221.502 340.117  0.00  0.00    +0.000 A 
ATOM     10  C   UNL     1      68.009 219.400 338.971  0.00  0.00    +0.000 C 
ATOM     11  C   UNL     1      71.071 220.389 342.277  0.00  0.00    +0.000 A 
ATOM     12  C   UNL     1      71.520 221.357 341.362  0.00  0.00    +0.000 A 
ATOM     13  H   UNL     1      67.844 218.220 340.710  0.00  0.00    +0.000 HD
ENDROOT
TORSDOF 0
ENDMDL
MODEL 5
REMARK VINA RESULT:      -3.6     25.953     27.039
REMARK  Name = 95716_6Bromoisatin.pdbqt.pdb
REMARK  0 active torsions:
REMARK  status: ('A' for Active; 'I' for Inactive)
REMARK                            x       y       z     vdW  Elec       q    Type
REMARK                         _______ _______ _______ _____ _____    ______ ____
ROOT
ATOM      1 BR   UNL     1      58.251 216.328 331.287  0.00  0.00    +0.000 Br
ATOM      2  O   UNL     1      56.027 219.531 337.078  0.00  0.00    +0.000 OA
ATOM      3  O   UNL     1      58.798 219.265 338.230  0.00  0.00    +0.000 OA
ATOM      4  N   UNL     1      59.160 218.244 336.164  0.00  0.00    +0.000 N 
ATOM      5  C   UNL     1      58.372 217.970 335.050  0.00  0.00    +0.000 A 
ATOM      6  C   UNL     1      57.064 218.416 335.227  0.00  0.00    +0.000 A 
ATOM      7  C   UNL     1      56.992 219.027 336.554  0.00  0.00    +0.000 C 
ATOM      8  C   UNL     1      58.766 217.342 333.888  0.00  0.00    +0.000 A 
ATOM      9  C   UNL     1      56.086 218.263 334.267  0.00  0.00    +0.000 A 
ATOM     10  C   UNL     1      58.425 218.886 337.143  0.00  0.00    +0.000 C 
ATOM     11  C   UNL     1      57.789 217.178 332.905  0.00  0.00    +0.000 A 
ATOM     12  C   UNL     1      56.469 217.629 333.085  0.00  0.00    +0.000 A 
ATOM     13  H   UNL     1      60.138 218.018 336.274  0.00  0.00    +0.000 HD
ENDROOT
TORSDOF 0
ENDMDL
MODEL 6
REMARK VINA RESULT:      -3.6     27.802     28.447
REMARK  Name = 95716_6Bromoisatin.pdbqt.pdb
REMARK  0 active torsions:
REMARK  status: ('A' for Active; 'I' for Inactive)
REMARK                            x       y       z     vdW  Elec       q    Type
REMARK                         _______ _______ _______ _____ _____    ______ ____
ROOT
ATOM      1 BR   UNL     1      74.183 221.963 342.324  0.00  0.00    +0.000 Br
ATOM      2  O   UNL     1      73.229 223.970 335.705  0.00  0.00    +0.000 OA
ATOM      3  O   UNL     1      73.980 226.777 336.500  0.00  0.00    +0.000 OA
ATOM      4  N   UNL     1      74.194 225.738 338.577  0.00  0.00    +0.000 N 
ATOM      5  C   UNL     1      74.022 224.441 339.052  0.00  0.00    +0.000 A 
ATOM      6  C   UNL     1      73.630 223.573 338.035  0.00  0.00    +0.000 A 
ATOM      7  C   UNL     1      73.539 224.360 336.806  0.00  0.00    +0.000 C 
ATOM      8  C   UNL     1      74.198 223.999 340.345  0.00  0.00    +0.000 A 
ATOM      9  C   UNL     1      73.394 222.231 338.247  0.00  0.00    +0.000 A 
ATOM     10  C   UNL     1      73.928 225.808 337.223  0.00  0.00    +0.000 C 
ATOM     11  C   UNL     1      73.963 222.643 340.579  0.00  0.00    +0.000 A 
ATOM     12  C   UNL     1      73.568 221.768 339.552  0.00  0.00    +0.000 A 
ATOM     13  H   UNL     1      74.475 226.540 339.123  0.00  0.00    +0.000 HD
ENDROOT
TORSDOF 0
ENDMDL
MODEL 7
REMARK VINA RESULT:      -3.4     11.952     13.436
REMARK  Name = 95716_6Bromoisatin.pdbqt.pdb
REMARK  0 active torsions:
REMARK  status: ('A' for Active; 'I' for Inactive)
REMARK                            x       y       z     vdW  Elec       q    Type
REMARK                         _______ _______ _______ _____ _____    ______ ____
ROOT
ATOM      1 BR   UNL     1      41.436 232.141 342.378  0.00  0.00    +0.000 Br
ATOM      2  O   UNL     1      46.341 231.572 347.314  0.00  0.00    +0.000 OA
ATOM      3  O   UNL     1      46.939 234.506 346.987  0.00  0.00    +0.000 OA
ATOM      4  N   UNL     1      45.241 234.300 345.403  0.00  0.00    +0.000 N 
ATOM      5  C   UNL     1      44.439 233.257 344.948  0.00  0.00    +0.000 A 
ATOM      6  C   UNL     1      44.735 232.064 345.604  0.00  0.00    +0.000 A 
ATOM      7  C   UNL     1      45.807 232.348 346.556  0.00  0.00    +0.000 C 
ATOM      8  C   UNL     1      43.462 233.322 343.979  0.00  0.00    +0.000 A 
ATOM      9  C   UNL     1      44.080 230.880 345.334  0.00  0.00    +0.000 A 
ATOM     10  C   UNL     1      46.112 233.864 346.383  0.00  0.00    +0.000 C 
ATOM     11  C   UNL     1      42.787 232.133 343.692  0.00  0.00    +0.000 A 
ATOM     12  C   UNL     1      43.086 230.930 344.355  0.00  0.00    +0.000 A 
ATOM     13  H   UNL     1      45.213 235.257 345.080  0.00  0.00    +0.000 HD
ENDROOT
TORSDOF 0
ENDMDL
MODEL 8
REMARK VINA RESULT:      -3.4     27.069     27.509
REMARK  Name = 95716_6Bromoisatin.pdbqt.pdb
REMARK  0 active torsions:
REMARK  status: ('A' for Active; 'I' for Inactive)
REMARK                            x       y       z     vdW  Elec       q    Type
REMARK                         _______ _______ _______ _____ _____    ______ ____
ROOT
ATOM      1 BR   UNL     1      73.870 221.239 342.593  0.00  0.00    +0.000 Br
ATOM      2  O   UNL     1      70.305 223.603 337.075  0.00  0.00    +0.000 OA
ATOM      3  O   UNL     1      68.239 221.465 337.556  0.00  0.00    +0.000 OA
ATOM      4  N   UNL     1      69.692 220.972 339.312  0.00  0.00    +0.000 N 
ATOM      5  C   UNL     1      70.892 221.504 339.776  0.00  0.00    +0.000 A 
ATOM      6  C   UNL     1      71.307 222.583 338.999  0.00  0.00    +0.000 A 
ATOM      7  C   UNL     1      70.305 222.769 337.949  0.00  0.00    +0.000 C 
ATOM      8  C   UNL     1      71.628 221.071 340.858  0.00  0.00    +0.000 A 
ATOM      9  C   UNL     1      72.467 223.284 339.252  0.00  0.00    +0.000 A 
ATOM     10  C   UNL     1      69.241 221.663 338.203  0.00  0.00    +0.000 C 
ATOM     11  C   UNL     1      72.807 221.770 341.129  0.00  0.00    +0.000 A 
ATOM     12  C   UNL     1      73.224 222.859 340.344  0.00  0.00    +0.000 A 
ATOM     13  H   UNL     1      69.194 220.188 339.709  0.00  0.00    +0.000 HD
ENDROOT
TORSDOF 0
ENDMDL
MODEL 9
REMARK VINA RESULT:      -3.4     19.684     20.416
REMARK  Name = 95716_6Bromoisatin.pdbqt.pdb
REMARK  0 active torsions:
REMARK  status: ('A' for Active; 'I' for Inactive)
REMARK                            x       y       z     vdW  Elec       q    Type
REMARK                         _______ _______ _______ _____ _____    ______ ____
ROOT
ATOM      1 BR   UNL     1      49.836 248.468 330.056  0.00  0.00    +0.000 Br
ATOM      2  O   UNL     1      52.427 242.247 328.232  0.00  0.00    +0.000 OA
ATOM      3  O   UNL     1      54.050 243.607 326.089  0.00  0.00    +0.000 OA
ATOM      4  N   UNL     1      52.977 245.477 326.979  0.00  0.00    +0.000 N 
ATOM      5  C   UNL     1      52.059 245.691 328.003  0.00  0.00    +0.000 A 
ATOM      6  C   UNL     1      51.711 244.499 328.634  0.00  0.00    +0.000 A 
ATOM      7  C   UNL     1      52.455 243.427 327.974  0.00  0.00    +0.000 C 
ATOM      8  C   UNL     1      51.522 246.898 328.397  0.00  0.00    +0.000 A 
ATOM      9  C   UNL     1      50.817 244.442 329.683  0.00  0.00    +0.000 A 
ATOM     10  C   UNL     1      53.292 244.135 326.869  0.00  0.00    +0.000 C 
ATOM     11  C   UNL     1      50.614 246.859 329.458  0.00  0.00    +0.000 A 
ATOM     12  C   UNL     1      50.264 245.655 330.094  0.00  0.00    +0.000 A 
ATOM     13  H   UNL     1      53.378 246.184 326.379  0.00  0.00    +0.000 HD
ENDROOT
TORSDOF 0
ENDMDL
