MODEL 1
REMARK VINA RESULT:      -5.6      0.000      0.000
REMARK  Name = 969516_Curcumin.pdbqt.pdb
REMARK  8 active torsions:
REMARK  status: ('A' for Active; 'I' for Inactive)
REMARK    1  A    between atoms: C_3  and  C_5
REMARK    2  A    between atoms: C_4  and  C_6
REMARK    3  A    between atoms: C_8  and  O_12
REMARK    4  A    between atoms: C_10  and  O_14
REMARK    5  A    between atoms: C_17  and  C_19
REMARK    6  A    between atoms: C_18  and  C_20
REMARK    7  A    between atoms: C_22  and  O_26
REMARK    8  A    between atoms: C_24  and  O_28
REMARK                            x       y       z     vdW  Elec       q    Type
REMARK                         _______ _______ _______ _____ _____    ______ ____
ROOT
ATOM      1  C   UNL     1      52.508 243.004 324.857  0.00  0.00    +0.000 C 
ATOM      2  O   UNL     1      52.168 243.282 327.107  0.00  0.00    +0.000 OA
ATOM      3  C   UNL     1      51.849 242.696 326.084  0.00  0.00    +0.000 C 
ATOM      4  O   UNL     1      53.081 242.543 322.687  0.00  0.00    +0.000 OA
ATOM      5  C   UNL     1      53.170 243.310 323.634  0.00  0.00    +0.000 C 
ENDROOT
BRANCH   3   7
ATOM      6  C   UNL     1      49.943 240.865 326.128  0.00  0.00    +0.000 C 
ATOM      7  C   UNL     1      50.809 241.698 326.107  0.00  0.00    +0.000 C 
BRANCH   6   8
ATOM      8  C   UNL     1      48.914 239.878 326.153  0.00  0.00    +0.000 A 
ATOM      9  C   UNL     1      49.105 238.658 325.505  0.00  0.00    +0.000 A 
ATOM     10  C   UNL     1      48.107 237.680 325.520  0.00  0.00    +0.000 A 
ATOM     11  C   UNL     1      47.721 240.133 326.824  0.00  0.00    +0.000 A 
ATOM     12  C   UNL     1      46.913 237.947 326.197  0.00  0.00    +0.000 A 
ATOM     13  C   UNL     1      46.721 239.166 326.846  0.00  0.00    +0.000 A 
BRANCH  10  14
ATOM     14  O   UNL     1      48.224 236.457 324.906  0.00  0.00    +0.000 OA
ATOM     15  C   UNL     1      49.248 236.339 323.960  0.00  0.00    +0.000 C 
ENDBRANCH  10  14
BRANCH  12  16
ATOM     16  O   UNL     1      45.881 237.052 326.267  0.00  0.00    +0.000 OA
ATOM     17  H   UNL     1      45.343 237.211 327.060  0.00  0.00    +0.000 HD
ENDBRANCH  12  16
ENDBRANCH   6   8
ENDBRANCH   3   7
BRANCH   5  19
ATOM     18  C   UNL     1      54.577 245.537 323.429  0.00  0.00    +0.000 C 
ATOM     19  C   UNL     1      53.938 244.524 323.520  0.00  0.00    +0.000 C 
BRANCH  18  20
ATOM     20  C   UNL     1      55.330 246.743 323.319  0.00  0.00    +0.000 A 
ATOM     21  C   UNL     1      55.091 247.794 324.203  0.00  0.00    +0.000 A 
ATOM     22  C   UNL     1      55.822 248.982 324.109  0.00  0.00    +0.000 A 
ATOM     23  C   UNL     1      56.304 246.869 322.330  0.00  0.00    +0.000 A 
ATOM     24  C   UNL     1      56.794 249.094 323.113  0.00  0.00    +0.000 A 
ATOM     25  C   UNL     1      57.038 248.046 322.226  0.00  0.00    +0.000 A 
BRANCH  22  26
ATOM     26  O   UNL     1      55.650 250.064 324.937  0.00  0.00    +0.000 OA
ATOM     27  C   UNL     1      55.972 249.851 326.287  0.00  0.00    +0.000 C 
ENDBRANCH  22  26
BRANCH  24  28
ATOM     28  O   UNL     1      57.520 250.249 323.004  0.00  0.00    +0.000 OA
ATOM     29  H   UNL     1      58.370 250.129 323.469  0.00  0.00    +0.000 HD
ENDBRANCH  24  28
ENDBRANCH  18  20
ENDBRANCH   5  19
TORSDOF 8
ENDMDL
MODEL 2
REMARK VINA RESULT:      -5.6      0.096     11.810
REMARK  Name = 969516_Curcumin.pdbqt.pdb
REMARK  8 active torsions:
REMARK  status: ('A' for Active; 'I' for Inactive)
REMARK    1  A    between atoms: C_3  and  C_5
REMARK    2  A    between atoms: C_4  and  C_6
REMARK    3  A    between atoms: C_8  and  O_12
REMARK    4  A    between atoms: C_10  and  O_14
REMARK    5  A    between atoms: C_17  and  C_19
REMARK    6  A    between atoms: C_18  and  C_20
REMARK    7  A    between atoms: C_22  and  O_26
REMARK    8  A    between atoms: C_24  and  O_28
REMARK                            x       y       z     vdW  Elec       q    Type
REMARK                         _______ _______ _______ _____ _____    ______ ____
ROOT
ATOM      1  C   UNL     1      52.550 243.060 324.874  0.00  0.00    +0.000 C 
ATOM      2  O   UNL     1      53.117 242.590 322.704  0.00  0.00    +0.000 OA
ATOM      3  C   UNL     1      53.209 243.362 323.646  0.00  0.00    +0.000 C 
ATOM      4  O   UNL     1      52.214 243.343 327.123  0.00  0.00    +0.000 OA
ATOM      5  C   UNL     1      51.894 242.755 326.101  0.00  0.00    +0.000 C 
ENDROOT
BRANCH   3   7
ATOM      6  C   UNL     1      54.616 245.588 323.426  0.00  0.00    +0.000 C 
ATOM      7  C   UNL     1      53.977 244.576 323.525  0.00  0.00    +0.000 C 
BRANCH   6   8
ATOM      8  C   UNL     1      55.375 246.790 323.309  0.00  0.00    +0.000 A 
ATOM      9  C   UNL     1      55.143 247.846 324.189  0.00  0.00    +0.000 A 
ATOM     10  C   UNL     1      55.878 249.032 324.088  0.00  0.00    +0.000 A 
ATOM     11  C   UNL     1      56.344 246.908 322.316  0.00  0.00    +0.000 A 
ATOM     12  C   UNL     1      56.849 249.138 323.088  0.00  0.00    +0.000 A 
ATOM     13  C   UNL     1      57.082 248.083 322.207  0.00  0.00    +0.000 A 
BRANCH  10  14
ATOM     14  O   UNL     1      55.707 250.112 324.918  0.00  0.00    +0.000 OA
ATOM     15  C   UNL     1      55.974 249.893 326.275  0.00  0.00    +0.000 C 
ENDBRANCH  10  14
BRANCH  12  16
ATOM     16  O   UNL     1      57.617 250.257 322.912  0.00  0.00    +0.000 OA
ATOM     17  H   UNL     1      57.073 251.060 322.984  0.00  0.00    +0.000 HD
ENDBRANCH  12  16
ENDBRANCH   6   8
ENDBRANCH   3   7
BRANCH   5  19
ATOM     18  C   UNL     1      49.992 240.921 326.148  0.00  0.00    +0.000 C 
ATOM     19  C   UNL     1      50.856 241.756 326.128  0.00  0.00    +0.000 C 
BRANCH  18  20
ATOM     20  C   UNL     1      48.967 239.930 326.167  0.00  0.00    +0.000 A 
ATOM     21  C   UNL     1      49.181 238.698 325.551  0.00  0.00    +0.000 A 
ATOM     22  C   UNL     1      48.186 237.716 325.561  0.00  0.00    +0.000 A 
ATOM     23  C   UNL     1      47.755 240.194 326.801  0.00  0.00    +0.000 A 
ATOM     24  C   UNL     1      46.976 237.994 326.201  0.00  0.00    +0.000 A 
ATOM     25  C   UNL     1      46.756 239.224 326.818  0.00  0.00    +0.000 A 
BRANCH  22  26
ATOM     26  O   UNL     1      48.314 236.478 324.979  0.00  0.00    +0.000 OA
ATOM     27  C   UNL     1      49.051 236.445 323.784  0.00  0.00    +0.000 C 
ENDBRANCH  22  26
BRANCH  24  28
ATOM     28  O   UNL     1      45.990 237.046 326.222  0.00  0.00    +0.000 OA
ATOM     29  H   UNL     1      46.308 236.253 325.751  0.00  0.00    +0.000 HD
ENDBRANCH  24  28
ENDBRANCH  18  20
ENDBRANCH   5  19
TORSDOF 8
ENDMDL
MODEL 3
REMARK VINA RESULT:      -5.5      3.632      7.412
REMARK  Name = 969516_Curcumin.pdbqt.pdb
REMARK  8 active torsions:
REMARK  status: ('A' for Active; 'I' for Inactive)
REMARK    1  A    between atoms: C_3  and  C_5
REMARK    2  A    between atoms: C_4  and  C_6
REMARK    3  A    between atoms: C_8  and  O_12
REMARK    4  A    between atoms: C_10  and  O_14
REMARK    5  A    between atoms: C_17  and  C_19
REMARK    6  A    between atoms: C_18  and  C_20
REMARK    7  A    between atoms: C_22  and  O_26
REMARK    8  A    between atoms: C_24  and  O_28
REMARK                            x       y       z     vdW  Elec       q    Type
REMARK                         _______ _______ _______ _____ _____    ______ ____
ROOT
ATOM      1  C   UNL     1      48.804 238.141 324.520  0.00  0.00    +0.000 C 
ATOM      2  O   UNL     1      49.877 237.963 322.502  0.00  0.00    +0.000 OA
ATOM      3  C   UNL     1      49.146 237.437 323.328  0.00  0.00    +0.000 C 
ATOM      4  O   UNL     1      47.514 238.474 326.385  0.00  0.00    +0.000 OA
ATOM      5  C   UNL     1      48.460 238.849 325.708  0.00  0.00    +0.000 C 
ENDROOT
BRANCH   3   7
ATOM      6  C   UNL     1      48.203 235.002 322.926  0.00  0.00    +0.000 C 
ATOM      7  C   UNL     1      48.631 236.109 323.109  0.00  0.00    +0.000 C 
BRANCH   6   8
ATOM      8  C   UNL     1      47.694 233.686 322.711  0.00  0.00    +0.000 A 
ATOM      9  C   UNL     1      47.042 233.016 323.745  0.00  0.00    +0.000 A 
ATOM     10  C   UNL     1      46.538 231.726 323.552  0.00  0.00    +0.000 A 
ATOM     11  C   UNL     1      47.850 233.074 321.471  0.00  0.00    +0.000 A 
ATOM     12  C   UNL     1      46.700 231.121 322.302  0.00  0.00    +0.000 A 
ATOM     13  C   UNL     1      47.352 231.791 321.266  0.00  0.00    +0.000 A 
BRANCH  10  14
ATOM     14  O   UNL     1      45.885 231.006 324.521  0.00  0.00    +0.000 OA
ATOM     15  C   UNL     1      44.704 231.571 325.017  0.00  0.00    +0.000 C 
ENDBRANCH  10  14
BRANCH  12  16
ATOM     16  O   UNL     1      46.241 229.864 322.018  0.00  0.00    +0.000 OA
ATOM     17  H   UNL     1      46.168 229.735 321.057  0.00  0.00    +0.000 HD
ENDBRANCH  12  16
ENDBRANCH   6   8
ENDBRANCH   3   7
BRANCH   5  19
ATOM     18  C   UNL     1      49.871 240.961 326.434  0.00  0.00    +0.000 C 
ATOM     19  C   UNL     1      49.231 239.999 326.104  0.00  0.00    +0.000 C 
BRANCH  18  20
ATOM     20  C   UNL     1      50.630 242.105 326.820  0.00  0.00    +0.000 A 
ATOM     21  C   UNL     1      51.966 242.213 326.438  0.00  0.00    +0.000 A 
ATOM     22  C   UNL     1      52.722 243.329 326.808  0.00  0.00    +0.000 A 
ATOM     23  C   UNL     1      50.035 243.113 327.577  0.00  0.00    +0.000 A 
ATOM     24  C   UNL     1      52.113 244.331 327.567  0.00  0.00    +0.000 A 
ATOM     25  C   UNL     1      50.778 244.228 327.952  0.00  0.00    +0.000 A 
BRANCH  22  26
ATOM     26  O   UNL     1      54.043 243.514 326.474  0.00  0.00    +0.000 OA
ATOM     27  C   UNL     1      54.278 243.982 325.172  0.00  0.00    +0.000 C 
ENDBRANCH  22  26
BRANCH  24  28
ATOM     28  O   UNL     1      52.837 245.431 327.939  0.00  0.00    +0.000 OA
ATOM     29  H   UNL     1      52.517 245.736 328.808  0.00  0.00    +0.000 HD
ENDBRANCH  24  28
ENDBRANCH  18  20
ENDBRANCH   5  19
TORSDOF 8
ENDMDL
MODEL 4
REMARK VINA RESULT:      -5.3      1.294     11.641
REMARK  Name = 969516_Curcumin.pdbqt.pdb
REMARK  8 active torsions:
REMARK  status: ('A' for Active; 'I' for Inactive)
REMARK    1  A    between atoms: C_3  and  C_5
REMARK    2  A    between atoms: C_4  and  C_6
REMARK    3  A    between atoms: C_8  and  O_12
REMARK    4  A    between atoms: C_10  and  O_14
REMARK    5  A    between atoms: C_17  and  C_19
REMARK    6  A    between atoms: C_18  and  C_20
REMARK    7  A    between atoms: C_22  and  O_26
REMARK    8  A    between atoms: C_24  and  O_28
REMARK                            x       y       z     vdW  Elec       q    Type
REMARK                         _______ _______ _______ _____ _____    ______ ____
ROOT
ATOM      1  C   UNL     1      52.758 243.137 324.627  0.00  0.00    +0.000 C 
ATOM      2  O   UNL     1      53.337 242.476 322.509  0.00  0.00    +0.000 OA
ATOM      3  C   UNL     1      53.441 243.319 323.388  0.00  0.00    +0.000 C 
ATOM      4  O   UNL     1      52.404 243.611 326.841  0.00  0.00    +0.000 OA
ATOM      5  C   UNL     1      52.078 242.951 325.864  0.00  0.00    +0.000 C 
ENDROOT
BRANCH   3   7
ATOM      6  C   UNL     1      54.917 245.477 323.007  0.00  0.00    +0.000 C 
ATOM      7  C   UNL     1      54.246 244.496 323.181  0.00  0.00    +0.000 C 
BRANCH   6   8
ATOM      8  C   UNL     1      55.712 246.644 322.801  0.00  0.00    +0.000 A 
ATOM      9  C   UNL     1      56.600 246.699 321.727  0.00  0.00    +0.000 A 
ATOM     10  C   UNL     1      57.386 247.834 321.510  0.00  0.00    +0.000 A 
ATOM     11  C   UNL     1      55.601 247.725 323.671  0.00  0.00    +0.000 A 
ATOM     12  C   UNL     1      57.266 248.914 322.391  0.00  0.00    +0.000 A 
ATOM     13  C   UNL     1      56.378 248.861 323.465  0.00  0.00    +0.000 A 
BRANCH  10  14
ATOM     14  O   UNL     1      58.280 247.961 320.476  0.00  0.00    +0.000 OA
ATOM     15  C   UNL     1      59.421 247.153 320.546  0.00  0.00    +0.000 C 
ENDBRANCH  10  14
BRANCH  12  16
ATOM     16  O   UNL     1      57.992 250.065 322.259  0.00  0.00    +0.000 OA
ATOM     17  H   UNL     1      58.127 250.280 321.321  0.00  0.00    +0.000 HD
ENDBRANCH  12  16
ENDBRANCH   6   8
ENDBRANCH   3   7
BRANCH   5  19
ATOM     18  C   UNL     1      50.118 241.187 326.031  0.00  0.00    +0.000 C 
ATOM     19  C   UNL     1      51.010 241.988 325.957  0.00  0.00    +0.000 C 
BRANCH  18  20
ATOM     20  C   UNL     1      49.056 240.240 326.118  0.00  0.00    +0.000 A 
ATOM     21  C   UNL     1      47.811 240.635 326.607  0.00  0.00    +0.000 A 
ATOM     22  C   UNL     1      46.760 239.719 326.698  0.00  0.00    +0.000 A 
ATOM     23  C   UNL     1      49.262 238.922 325.714  0.00  0.00    +0.000 A 
ATOM     24  C   UNL     1      46.981 238.401 326.290  0.00  0.00    +0.000 A 
ATOM     25  C   UNL     1      48.223 238.001 325.800  0.00  0.00    +0.000 A 
BRANCH  22  26
ATOM     26  O   UNL     1      45.506 240.024 327.168  0.00  0.00    +0.000 OA
ATOM     27  C   UNL     1      45.455 241.023 328.153  0.00  0.00    +0.000 C 
ENDBRANCH  22  26
BRANCH  24  28
ATOM     28  O   UNL     1      45.964 237.489 326.371  0.00  0.00    +0.000 OA
ATOM     29  H   UNL     1      45.135 237.920 326.092  0.00  0.00    +0.000 HD
ENDBRANCH  24  28
ENDBRANCH  18  20
ENDBRANCH   5  19
TORSDOF 8
ENDMDL
MODEL 5
REMARK VINA RESULT:      -5.3     23.661     26.398
REMARK  Name = 969516_Curcumin.pdbqt.pdb
REMARK  8 active torsions:
REMARK  status: ('A' for Active; 'I' for Inactive)
REMARK    1  A    between atoms: C_3  and  C_5
REMARK    2  A    between atoms: C_4  and  C_6
REMARK    3  A    between atoms: C_8  and  O_12
REMARK    4  A    between atoms: C_10  and  O_14
REMARK    5  A    between atoms: C_17  and  C_19
REMARK    6  A    between atoms: C_18  and  C_20
REMARK    7  A    between atoms: C_22  and  O_26
REMARK    8  A    between atoms: C_24  and  O_28
REMARK                            x       y       z     vdW  Elec       q    Type
REMARK                         _______ _______ _______ _____ _____    ______ ____
ROOT
ATOM      1  C   UNL     1      52.778 218.485 332.154  0.00  0.00    +0.000 C 
ATOM      2  O   UNL     1      50.986 217.720 333.360  0.00  0.00    +0.000 OA
ATOM      3  C   UNL     1      51.385 218.233 332.326  0.00  0.00    +0.000 C 
ATOM      4  O   UNL     1      54.613 218.958 330.865  0.00  0.00    +0.000 OA
ATOM      5  C   UNL     1      54.170 218.732 331.982  0.00  0.00    +0.000 C 
ENDROOT
BRANCH   3   7
ATOM      6  C   UNL     1      49.687 218.886 330.410  0.00  0.00    +0.000 C 
ATOM      7  C   UNL     1      50.458 218.590 331.282  0.00  0.00    +0.000 C 
BRANCH   6   8
ATOM      8  C   UNL     1      48.769 219.236 329.375  0.00  0.00    +0.000 A 
ATOM      9  C   UNL     1      47.641 219.998 329.675  0.00  0.00    +0.000 A 
ATOM     10  C   UNL     1      46.732 220.350 328.673  0.00  0.00    +0.000 A 
ATOM     11  C   UNL     1      49.002 218.817 328.068  0.00  0.00    +0.000 A 
ATOM     12  C   UNL     1      46.976 219.924 327.364  0.00  0.00    +0.000 A 
ATOM     13  C   UNL     1      48.104 219.162 327.062  0.00  0.00    +0.000 A 
BRANCH  10  14
ATOM     14  O   UNL     1      45.602 221.098 328.892  0.00  0.00    +0.000 OA
ATOM     15  C   UNL     1      45.696 222.079 329.887  0.00  0.00    +0.000 C 
ENDBRANCH  10  14
BRANCH  12  16
ATOM     16  O   UNL     1      46.145 220.219 326.318  0.00  0.00    +0.000 OA
ATOM     17  H   UNL     1      46.160 221.172 326.126  0.00  0.00    +0.000 HD
ENDBRANCH  12  16
ENDBRANCH   6   8
ENDBRANCH   3   7
BRANCH   5  19
ATOM     18  C   UNL     1      55.779 218.706 334.077  0.00  0.00    +0.000 C 
ATOM     19  C   UNL     1      55.047 218.716 333.125  0.00  0.00    +0.000 C 
BRANCH  18  20
ATOM     20  C   UNL     1      56.653 218.694 335.204  0.00  0.00    +0.000 A 
ATOM     21  C   UNL     1      57.981 218.297 335.049  0.00  0.00    +0.000 A 
ATOM     22  C   UNL     1      58.849 218.280 336.144  0.00  0.00    +0.000 A 
ATOM     23  C   UNL     1      56.180 219.081 336.456  0.00  0.00    +0.000 A 
ATOM     24  C   UNL     1      58.362 218.670 337.394  0.00  0.00    +0.000 A 
ATOM     25  C   UNL     1      57.035 219.069 337.554  0.00  0.00    +0.000 A 
BRANCH  22  26
ATOM     26  O   UNL     1      60.169 217.903 336.080  0.00  0.00    +0.000 OA
ATOM     27  C   UNL     1      60.556 217.258 334.894  0.00  0.00    +0.000 C 
ENDBRANCH  22  26
BRANCH  24  28
ATOM     28  O   UNL     1      59.197 218.661 338.477  0.00  0.00    +0.000 OA
ATOM     29  H   UNL     1      59.763 217.869 338.429  0.00  0.00    +0.000 HD
ENDBRANCH  24  28
ENDBRANCH  18  20
ENDBRANCH   5  19
TORSDOF 8
ENDMDL
MODEL 6
REMARK VINA RESULT:      -5.2     24.461     27.243
REMARK  Name = 969516_Curcumin.pdbqt.pdb
REMARK  8 active torsions:
REMARK  status: ('A' for Active; 'I' for Inactive)
REMARK    1  A    between atoms: C_3  and  C_5
REMARK    2  A    between atoms: C_4  and  C_6
REMARK    3  A    between atoms: C_8  and  O_12
REMARK    4  A    between atoms: C_10  and  O_14
REMARK    5  A    between atoms: C_17  and  C_19
REMARK    6  A    between atoms: C_18  and  C_20
REMARK    7  A    between atoms: C_22  and  O_26
REMARK    8  A    between atoms: C_24  and  O_28
REMARK                            x       y       z     vdW  Elec       q    Type
REMARK                         _______ _______ _______ _____ _____    ______ ____
ROOT
ATOM      1  C   UNL     1      52.895 218.434 332.197  0.00  0.00    +0.000 C 
ATOM      2  O   UNL     1      54.739 218.886 330.912  0.00  0.00    +0.000 OA
ATOM      3  C   UNL     1      54.290 218.675 332.029  0.00  0.00    +0.000 C 
ATOM      4  O   UNL     1      51.090 217.689 333.398  0.00  0.00    +0.000 OA
ATOM      5  C   UNL     1      51.501 218.190 332.361  0.00  0.00    +0.000 C 
ENDROOT
BRANCH   3   7
ATOM      6  C   UNL     1      55.884 218.669 334.137  0.00  0.00    +0.000 C 
ATOM      7  C   UNL     1      55.160 218.671 333.178  0.00  0.00    +0.000 C 
BRANCH   6   8
ATOM      8  C   UNL     1      56.743 218.664 335.276  0.00  0.00    +0.000 A 
ATOM      9  C   UNL     1      58.080 218.293 335.136  0.00  0.00    +0.000 A 
ATOM     10  C   UNL     1      58.935 218.283 336.242  0.00  0.00    +0.000 A 
ATOM     11  C   UNL     1      56.246 219.028 336.524  0.00  0.00    +0.000 A 
ATOM     12  C   UNL     1      58.425 218.651 337.490  0.00  0.00    +0.000 A 
ATOM     13  C   UNL     1      57.088 219.023 337.632  0.00  0.00    +0.000 A 
BRANCH  10  14
ATOM     14  O   UNL     1      60.261 217.931 336.181  0.00  0.00    +0.000 OA
ATOM     15  C   UNL     1      60.529 216.598 335.848  0.00  0.00    +0.000 C 
ENDBRANCH  10  14
BRANCH  12  16
ATOM     16  O   UNL     1      59.185 218.672 338.628  0.00  0.00    +0.000 OA
ATOM     17  H   UNL     1      58.630 218.843 339.407  0.00  0.00    +0.000 HD
ENDBRANCH  12  16
ENDBRANCH   6   8
ENDBRANCH   3   7
BRANCH   5  19
ATOM     18  C   UNL     1      49.817 218.823 330.426  0.00  0.00    +0.000 C 
ATOM     19  C   UNL     1      50.584 218.536 331.305  0.00  0.00    +0.000 C 
BRANCH  18  20
ATOM     20  C   UNL     1      48.905 219.157 329.382  0.00  0.00    +0.000 A 
ATOM     21  C   UNL     1      47.757 219.893 329.672  0.00  0.00    +0.000 A 
ATOM     22  C   UNL     1      46.854 220.229 328.659  0.00  0.00    +0.000 A 
ATOM     23  C   UNL     1      49.163 218.750 328.074  0.00  0.00    +0.000 A 
ATOM     24  C   UNL     1      47.126 219.815 327.353  0.00  0.00    +0.000 A 
ATOM     25  C   UNL     1      48.272 219.079 327.057  0.00  0.00    +0.000 A 
BRANCH  22  26
ATOM     26  O   UNL     1      45.701 220.949 328.858  0.00  0.00    +0.000 OA
ATOM     27  C   UNL     1      45.334 221.146 330.199  0.00  0.00    +0.000 C 
ENDBRANCH  22  26
BRANCH  24  28
ATOM     28  O   UNL     1      46.254 220.134 326.348  0.00  0.00    +0.000 OA
ATOM     29  H   UNL     1      45.682 219.364 326.173  0.00  0.00    +0.000 HD
ENDBRANCH  24  28
ENDBRANCH  18  20
ENDBRANCH   5  19
TORSDOF 8
ENDMDL
MODEL 7
REMARK VINA RESULT:      -5.2     24.783     26.622
REMARK  Name = 969516_Curcumin.pdbqt.pdb
REMARK  8 active torsions:
REMARK  status: ('A' for Active; 'I' for Inactive)
REMARK    1  A    between atoms: C_3  and  C_5
REMARK    2  A    between atoms: C_4  and  C_6
REMARK    3  A    between atoms: C_8  and  O_12
REMARK    4  A    between atoms: C_10  and  O_14
REMARK    5  A    between atoms: C_17  and  C_19
REMARK    6  A    between atoms: C_18  and  C_20
REMARK    7  A    between atoms: C_22  and  O_26
REMARK    8  A    between atoms: C_24  and  O_28
REMARK                            x       y       z     vdW  Elec       q    Type
REMARK                         _______ _______ _______ _____ _____    ______ ____
ROOT
ATOM      1  C   UNL     1      52.989 218.345 332.202  0.00  0.00    +0.000 C 
ATOM      2  O   UNL     1      51.167 217.617 333.387  0.00  0.00    +0.000 OA
ATOM      3  C   UNL     1      51.592 218.105 332.351  0.00  0.00    +0.000 C 
ATOM      4  O   UNL     1      54.854 218.778 330.943  0.00  0.00    +0.000 OA
ATOM      5  C   UNL     1      54.386 218.580 332.054  0.00  0.00    +0.000 C 
ENDROOT
BRANCH   3   7
ATOM      6  C   UNL     1      49.938 218.725 330.385  0.00  0.00    +0.000 C 
ATOM      7  C   UNL     1      50.689 218.443 331.279  0.00  0.00    +0.000 C 
BRANCH   6   8
ATOM      8  C   UNL     1      49.047 219.059 329.322  0.00  0.00    +0.000 A 
ATOM      9  C   UNL     1      49.377 218.725 328.009  0.00  0.00    +0.000 A 
ATOM     10  C   UNL     1      48.515 219.045 326.955  0.00  0.00    +0.000 A 
ATOM     11  C   UNL     1      47.852 219.718 329.596  0.00  0.00    +0.000 A 
ATOM     12  C   UNL     1      47.317 219.706 327.243  0.00  0.00    +0.000 A 
ATOM     13  C   UNL     1      46.987 220.041 328.555  0.00  0.00    +0.000 A 
BRANCH  10  14
ATOM     14  O   UNL     1      48.771 218.749 325.639  0.00  0.00    +0.000 OA
ATOM     15  C   UNL     1      49.852 217.892 325.400  0.00  0.00    +0.000 C 
ENDBRANCH  10  14
BRANCH  12  16
ATOM     16  O   UNL     1      46.413 220.060 326.280  0.00  0.00    +0.000 OA
ATOM     17  H   UNL     1      45.779 220.710 326.627  0.00  0.00    +0.000 HD
ENDBRANCH  12  16
ENDBRANCH   6   8
ENDBRANCH   3   7
BRANCH   5  19
ATOM     18  C   UNL     1      55.948 218.594 334.185  0.00  0.00    +0.000 C 
ATOM     19  C   UNL     1      55.238 218.585 333.216  0.00  0.00    +0.000 C 
BRANCH  18  20
ATOM     20  C   UNL     1      56.794 218.607 335.333  0.00  0.00    +0.000 A 
ATOM     21  C   UNL     1      58.139 218.261 335.209  0.00  0.00    +0.000 A 
ATOM     22  C   UNL     1      58.981 218.271 336.325  0.00  0.00    +0.000 A 
ATOM     23  C   UNL     1      56.276 218.967 336.576  0.00  0.00    +0.000 A 
ATOM     24  C   UNL     1      58.448 218.633 337.564  0.00  0.00    +0.000 A 
ATOM     25  C   UNL     1      57.105 218.980 337.694  0.00  0.00    +0.000 A 
BRANCH  22  26
ATOM     26  O   UNL     1      60.315 217.944 336.290  0.00  0.00    +0.000 OA
ATOM     27  C   UNL     1      60.703 217.095 335.242  0.00  0.00    +0.000 C 
ENDBRANCH  22  26
BRANCH  24  28
ATOM     28  O   UNL     1      59.257 218.648 338.668  0.00  0.00    +0.000 OA
ATOM     29  H   UNL     1      58.708 218.490 339.459  0.00  0.00    +0.000 HD
ENDBRANCH  24  28
ENDBRANCH  18  20
ENDBRANCH   5  19
TORSDOF 8
ENDMDL
MODEL 8
REMARK VINA RESULT:      -5.2     29.556     32.184
REMARK  Name = 969516_Curcumin.pdbqt.pdb
REMARK  8 active torsions:
REMARK  status: ('A' for Active; 'I' for Inactive)
REMARK    1  A    between atoms: C_3  and  C_5
REMARK    2  A    between atoms: C_4  and  C_6
REMARK    3  A    between atoms: C_8  and  O_12
REMARK    4  A    between atoms: C_10  and  O_14
REMARK    5  A    between atoms: C_17  and  C_19
REMARK    6  A    between atoms: C_18  and  C_20
REMARK    7  A    between atoms: C_22  and  O_26
REMARK    8  A    between atoms: C_24  and  O_28
REMARK                            x       y       z     vdW  Elec       q    Type
REMARK                         _______ _______ _______ _____ _____    ______ ____
ROOT
ATOM      1  C   UNL     1      65.257 230.411 348.847  0.00  0.00    +0.000 C 
ATOM      2  O   UNL     1      67.240 231.477 349.277  0.00  0.00    +0.000 OA
ATOM      3  C   UNL     1      66.277 231.357 348.535  0.00  0.00    +0.000 C 
ATOM      4  O   UNL     1      63.148 229.545 348.614  0.00  0.00    +0.000 OA
ATOM      5  C   UNL     1      64.238 229.468 349.163  0.00  0.00    +0.000 C 
ENDROOT
BRANCH   3   7
ATOM      6  C   UNL     1      66.075 232.835 346.353  0.00  0.00    +0.000 C 
ATOM      7  C   UNL     1      66.166 232.163 347.345  0.00  0.00    +0.000 C 
BRANCH   6   8
ATOM      8  C   UNL     1      65.966 233.630 345.174  0.00  0.00    +0.000 A 
ATOM      9  C   UNL     1      65.873 235.018 345.279  0.00  0.00    +0.000 A 
ATOM     10  C   UNL     1      65.766 235.813 344.134  0.00  0.00    +0.000 A 
ATOM     11  C   UNL     1      65.953 233.022 343.922  0.00  0.00    +0.000 A 
ATOM     12  C   UNL     1      65.754 235.190 342.882  0.00  0.00    +0.000 A 
ATOM     13  C   UNL     1      65.847 233.803 342.775  0.00  0.00    +0.000 A 
BRANCH  10  14
ATOM     14  O   UNL     1      65.672 237.182 344.158  0.00  0.00    +0.000 OA
ATOM     15  C   UNL     1      66.856 237.875 344.437  0.00  0.00    +0.000 C 
ENDBRANCH  10  14
BRANCH  12  16
ATOM     16  O   UNL     1      65.653 235.884 341.707  0.00  0.00    +0.000 OA
ATOM     17  H   UNL     1      66.092 235.402 340.986  0.00  0.00    +0.000 HD
ENDBRANCH  12  16
ENDBRANCH   6   8
ENDBRANCH   3   7
BRANCH   5  19
ATOM     18  C   UNL     1      64.718 227.562 350.928  0.00  0.00    +0.000 C 
ATOM     19  C   UNL     1      64.497 228.428 350.126  0.00  0.00    +0.000 C 
BRANCH  18  20
ATOM     20  C   UNL     1      64.984 226.531 351.878  0.00  0.00    +0.000 A 
ATOM     21  C   UNL     1      63.967 226.086 352.721  0.00  0.00    +0.000 A 
ATOM     22  C   UNL     1      64.212 225.076 353.656  0.00  0.00    +0.000 A 
ATOM     23  C   UNL     1      66.257 225.971 351.959  0.00  0.00    +0.000 A 
ATOM     24  C   UNL     1      65.492 224.523 353.727  0.00  0.00    +0.000 A 
ATOM     25  C   UNL     1      66.513 224.965 352.886  0.00  0.00    +0.000 A 
BRANCH  22  26
ATOM     26  O   UNL     1      63.269 224.579 354.524  0.00  0.00    +0.000 OA
ATOM     27  C   UNL     1      62.825 225.474 355.511  0.00  0.00    +0.000 C 
ENDBRANCH  22  26
BRANCH  24  28
ATOM     28  O   UNL     1      65.751 223.533 354.636  0.00  0.00    +0.000 OA
ATOM     29  H   UNL     1      65.686 223.909 355.534  0.00  0.00    +0.000 HD
ENDBRANCH  24  28
ENDBRANCH  18  20
ENDBRANCH   5  19
TORSDOF 8
ENDMDL
MODEL 9
REMARK VINA RESULT:      -5.1      6.025      9.568
REMARK  Name = 969516_Curcumin.pdbqt.pdb
REMARK  8 active torsions:
REMARK  status: ('A' for Active; 'I' for Inactive)
REMARK    1  A    between atoms: C_3  and  C_5
REMARK    2  A    between atoms: C_4  and  C_6
REMARK    3  A    between atoms: C_8  and  O_12
REMARK    4  A    between atoms: C_10  and  O_14
REMARK    5  A    between atoms: C_17  and  C_19
REMARK    6  A    between atoms: C_18  and  C_20
REMARK    7  A    between atoms: C_22  and  O_26
REMARK    8  A    between atoms: C_24  and  O_28
REMARK                            x       y       z     vdW  Elec       q    Type
REMARK                         _______ _______ _______ _____ _____    ______ ____
ROOT
ATOM      1  C   UNL     1      52.282 245.006 328.139  0.00  0.00    +0.000 C 
ATOM      2  O   UNL     1      52.610 242.749 328.367  0.00  0.00    +0.000 OA
ATOM      3  C   UNL     1      52.545 243.707 327.612  0.00  0.00    +0.000 C 
ATOM      4  O   UNL     1      52.250 247.292 327.989  0.00  0.00    +0.000 OA
ATOM      5  C   UNL     1      52.023 246.302 328.669  0.00  0.00    +0.000 C 
ENDROOT
BRANCH   3   7
ATOM      6  C   UNL     1      52.883 243.391 325.011  0.00  0.00    +0.000 C 
ATOM      7  C   UNL     1      52.730 243.535 326.193  0.00  0.00    +0.000 C 
BRANCH   6   8
ATOM      8  C   UNL     1      53.064 243.223 323.605  0.00  0.00    +0.000 A 
ATOM      9  C   UNL     1      54.049 243.951 322.940  0.00  0.00    +0.000 A 
ATOM     10  C   UNL     1      54.240 243.798 321.563  0.00  0.00    +0.000 A 
ATOM     11  C   UNL     1      52.257 242.333 322.901  0.00  0.00    +0.000 A 
ATOM     12  C   UNL     1      53.425 242.902 320.867  0.00  0.00    +0.000 A 
ATOM     13  C   UNL     1      52.439 242.173 321.531  0.00  0.00    +0.000 A 
BRANCH  10  14
ATOM     14  O   UNL     1      55.189 244.479 320.841  0.00  0.00    +0.000 OA
ATOM     15  C   UNL     1      56.014 245.344 321.571  0.00  0.00    +0.000 C 
ENDBRANCH  10  14
BRANCH  12  16
ATOM     16  O   UNL     1      53.537 242.685 319.521  0.00  0.00    +0.000 OA
ATOM     17  H   UNL     1      53.162 243.430 319.021  0.00  0.00    +0.000 HD
ENDBRANCH  12  16
ENDBRANCH   6   8
ENDBRANCH   3   7
BRANCH   5  19
ATOM     18  C   UNL     1      51.050 246.557 331.112  0.00  0.00    +0.000 C 
ATOM     19  C   UNL     1      51.493 246.439 330.002  0.00  0.00    +0.000 C 
BRANCH  18  20
ATOM     20  C   UNL     1      50.529 246.700 332.432  0.00  0.00    +0.000 A 
ATOM     21  C   UNL     1      51.301 247.308 333.421  0.00  0.00    +0.000 A 
ATOM     22  C   UNL     1      50.803 247.456 334.719  0.00  0.00    +0.000 A 
ATOM     23  C   UNL     1      49.250 246.233 332.730  0.00  0.00    +0.000 A 
ATOM     24  C   UNL     1      49.520 246.984 335.004  0.00  0.00    +0.000 A 
ATOM     25  C   UNL     1      48.744 246.375 334.019  0.00  0.00    +0.000 A 
BRANCH  22  26
ATOM     26  O   UNL     1      51.496 248.041 335.751  0.00  0.00    +0.000 OA
ATOM     27  C   UNL     1      52.549 247.280 336.282  0.00  0.00    +0.000 C 
ENDBRANCH  22  26
BRANCH  24  28
ATOM     28  O   UNL     1      49.016 247.120 336.268  0.00  0.00    +0.000 OA
ATOM     29  H   UNL     1      49.523 246.543 336.871  0.00  0.00    +0.000 HD
ENDBRANCH  24  28
ENDBRANCH  18  20
ENDBRANCH   5  19
TORSDOF 8
ENDMDL
