MODEL 1
REMARK VINA RESULT:      -3.4      0.000      0.000
REMARK  Name = 971_OxalicAcid.pdbqt.pdb
REMARK  3 active torsions:
REMARK  status: ('A' for Active; 'I' for Inactive)
REMARK    1  A    between atoms: C_2  and  O_3
REMARK    2  A    between atoms: C_2  and  C_6
REMARK    3  A    between atoms: C_6  and  O_7
REMARK                            x       y       z     vdW  Elec       q    Type
REMARK                         _______ _______ _______ _____ _____    ______ ____
ROOT
ATOM      1  O   UNL     1      51.663 242.808 325.209  0.00  0.00    +0.000 OA
ATOM      2  C   UNL     1      51.882 242.305 326.294  0.00  0.00    +0.000 C 
ENDROOT
BRANCH   2   3
ATOM      3  O   UNL     1      51.324 241.143 326.662  0.00  0.00    +0.000 OA
ATOM      4  H   UNL     1      51.457 240.553 325.893  0.00  0.00    +0.000 HD
ENDBRANCH   2   3
BRANCH   2   6
ATOM      5  O   UNL     1      53.788 243.596 327.192  0.00  0.00    +0.000 OA
ATOM      6  C   UNL     1      52.811 242.902 327.395  0.00  0.00    +0.000 C 
BRANCH   6   7
ATOM      7  O   UNL     1      52.424 242.569 328.634  0.00  0.00    +0.000 OA
ATOM      8  H   UNL     1      53.072 241.894 328.921  0.00  0.00    +0.000 HD
ENDBRANCH   6   7
ENDBRANCH   2   6
TORSDOF 3
ENDMDL
MODEL 2
REMARK VINA RESULT:      -3.2     20.264     21.228
REMARK  Name = 971_OxalicAcid.pdbqt.pdb
REMARK  3 active torsions:
REMARK  status: ('A' for Active; 'I' for Inactive)
REMARK    1  A    between atoms: C_2  and  O_3
REMARK    2  A    between atoms: C_2  and  C_6
REMARK    3  A    between atoms: C_6  and  O_7
REMARK                            x       y       z     vdW  Elec       q    Type
REMARK                         _______ _______ _______ _____ _____    ______ ____
ROOT
ATOM      1  O   UNL     1      64.022 233.488 340.947  0.00  0.00    +0.000 OA
ATOM      2  C   UNL     1      63.927 234.322 341.826  0.00  0.00    +0.000 C 
ENDROOT
BRANCH   2   3
ATOM      3  O   UNL     1      62.756 234.897 342.134  0.00  0.00    +0.000 OA
ATOM      4  H   UNL     1      62.449 235.292 341.293  0.00  0.00    +0.000 HD
ENDBRANCH   2   3
BRANCH   2   6
ATOM      5  O   UNL     1      64.985 235.509 343.718  0.00  0.00    +0.000 OA
ATOM      6  C   UNL     1      65.104 234.844 342.707  0.00  0.00    +0.000 C 
BRANCH   6   7
ATOM      7  O   UNL     1      66.304 234.481 342.235  0.00  0.00    +0.000 OA
ATOM      8  H   UNL     1      66.759 234.080 343.003  0.00  0.00    +0.000 HD
ENDBRANCH   6   7
ENDBRANCH   2   6
TORSDOF 3
ENDMDL
MODEL 3
REMARK VINA RESULT:      -3.2     17.858     18.191
REMARK  Name = 971_OxalicAcid.pdbqt.pdb
REMARK  3 active torsions:
REMARK  status: ('A' for Active; 'I' for Inactive)
REMARK    1  A    between atoms: C_2  and  O_3
REMARK    2  A    between atoms: C_2  and  C_6
REMARK    3  A    between atoms: C_6  and  O_7
REMARK                            x       y       z     vdW  Elec       q    Type
REMARK                         _______ _______ _______ _____ _____    ______ ____
ROOT
ATOM      1  O   UNL     1      65.180 227.966 325.774  0.00  0.00    +0.000 OA
ATOM      2  C   UNL     1      64.003 227.998 325.474  0.00  0.00    +0.000 C 
ENDROOT
BRANCH   2   3
ATOM      3  O   UNL     1      63.544 227.435 324.347  0.00  0.00    +0.000 OA
ATOM      4  H   UNL     1      64.042 227.879 323.631  0.00  0.00    +0.000 HD
ENDBRANCH   2   3
BRANCH   2   6
ATOM      5  O   UNL     1      62.991 229.694 326.959  0.00  0.00    +0.000 OA
ATOM      6  C   UNL     1      62.874 228.671 326.314  0.00  0.00    +0.000 C 
BRANCH   6   7
ATOM      7  O   UNL     1      61.717 227.996 326.259  0.00  0.00    +0.000 OA
ATOM      8  H   UNL     1      61.374 228.025 327.175  0.00  0.00    +0.000 HD
ENDBRANCH   6   7
ENDBRANCH   2   6
TORSDOF 3
ENDMDL
MODEL 4
REMARK VINA RESULT:      -3.1      7.989      9.441
REMARK  Name = 971_OxalicAcid.pdbqt.pdb
REMARK  3 active torsions:
REMARK  status: ('A' for Active; 'I' for Inactive)
REMARK    1  A    between atoms: C_2  and  O_3
REMARK    2  A    between atoms: C_2  and  C_6
REMARK    3  A    between atoms: C_6  and  O_7
REMARK                            x       y       z     vdW  Elec       q    Type
REMARK                         _______ _______ _______ _____ _____    ______ ____
ROOT
ATOM      1  O   UNL     1      49.109 236.062 324.892  0.00  0.00    +0.000 OA
ATOM      2  C   UNL     1      49.348 235.258 324.014  0.00  0.00    +0.000 C 
ENDROOT
BRANCH   2   3
ATOM      3  O   UNL     1      49.932 235.618 322.862  0.00  0.00    +0.000 OA
ATOM      4  H   UNL     1      50.488 236.387 323.100  0.00  0.00    +0.000 HD
ENDBRANCH   2   3
BRANCH   2   6
ATOM      5  O   UNL     1      48.183 233.162 323.414  0.00  0.00    +0.000 OA
ATOM      6  C   UNL     1      49.030 233.732 324.075  0.00  0.00    +0.000 C 
BRANCH   6   7
ATOM      7  O   UNL     1      49.801 233.077 324.954  0.00  0.00    +0.000 OA
ATOM      8  H   UNL     1      49.457 232.162 324.948  0.00  0.00    +0.000 HD
ENDBRANCH   6   7
ENDBRANCH   2   6
TORSDOF 3
ENDMDL
MODEL 5
REMARK VINA RESULT:      -3.0      1.385      2.633
REMARK  Name = 971_OxalicAcid.pdbqt.pdb
REMARK  3 active torsions:
REMARK  status: ('A' for Active; 'I' for Inactive)
REMARK    1  A    between atoms: C_2  and  O_3
REMARK    2  A    between atoms: C_2  and  C_6
REMARK    3  A    between atoms: C_6  and  O_7
REMARK                            x       y       z     vdW  Elec       q    Type
REMARK                         _______ _______ _______ _____ _____    ______ ____
ROOT
ATOM      1  O   UNL     1      53.165 245.141 327.110  0.00  0.00    +0.000 OA
ATOM      2  C   UNL     1      53.215 243.932 327.226  0.00  0.00    +0.000 C 
ENDROOT
BRANCH   2   3
ATOM      3  O   UNL     1      54.278 243.224 326.821  0.00  0.00    +0.000 OA
ATOM      4  H   UNL     1      54.536 242.699 327.606  0.00  0.00    +0.000 HD
ENDBRANCH   2   3
BRANCH   2   6
ATOM      5  O   UNL     1      51.453 243.299 328.840  0.00  0.00    +0.000 OA
ATOM      6  C   UNL     1      52.095 243.037 327.841  0.00  0.00    +0.000 C 
BRANCH   6   7
ATOM      7  O   UNL     1      51.894 241.909 327.146  0.00  0.00    +0.000 OA
ATOM      8  H   UNL     1      52.400 241.228 327.632  0.00  0.00    +0.000 HD
ENDBRANCH   6   7
ENDBRANCH   2   6
TORSDOF 3
ENDMDL
MODEL 6
REMARK VINA RESULT:      -2.9     20.178     21.504
REMARK  Name = 971_OxalicAcid.pdbqt.pdb
REMARK  3 active torsions:
REMARK  status: ('A' for Active; 'I' for Inactive)
REMARK    1  A    between atoms: C_2  and  O_3
REMARK    2  A    between atoms: C_2  and  C_6
REMARK    3  A    between atoms: C_6  and  O_7
REMARK                            x       y       z     vdW  Elec       q    Type
REMARK                         _______ _______ _______ _____ _____    ______ ____
ROOT
ATOM      1  O   UNL     1      52.683 238.272 349.614  0.00  0.00    +0.000 OA
ATOM      2  C   UNL     1      52.105 238.404 348.554  0.00  0.00    +0.000 C 
ENDROOT
BRANCH   2   3
ATOM      3  O   UNL     1      51.128 237.570 348.171  0.00  0.00    +0.000 OA
ATOM      4  H   UNL     1      51.572 236.925 347.584  0.00  0.00    +0.000 HD
ENDBRANCH   2   3
BRANCH   2   6
ATOM      5  O   UNL     1      52.573 240.695 347.754  0.00  0.00    +0.000 OA
ATOM      6  C   UNL     1      52.389 239.520 347.502  0.00  0.00    +0.000 C 
BRANCH   6   7
ATOM      7  O   UNL     1      52.414 239.053 346.246  0.00  0.00    +0.000 OA
ATOM      8  H   UNL     1      53.063 239.622 345.786  0.00  0.00    +0.000 HD
ENDBRANCH   6   7
ENDBRANCH   2   6
TORSDOF 3
ENDMDL
MODEL 7
REMARK VINA RESULT:      -2.8      1.170      2.534
REMARK  Name = 971_OxalicAcid.pdbqt.pdb
REMARK  3 active torsions:
REMARK  status: ('A' for Active; 'I' for Inactive)
REMARK    1  A    between atoms: C_2  and  O_3
REMARK    2  A    between atoms: C_2  and  C_6
REMARK    3  A    between atoms: C_6  and  O_7
REMARK                            x       y       z     vdW  Elec       q    Type
REMARK                         _______ _______ _______ _____ _____    ______ ____
ROOT
ATOM      1  O   UNL     1      53.532 243.518 327.609  0.00  0.00    +0.000 OA
ATOM      2  C   UNL     1      52.765 242.870 326.925  0.00  0.00    +0.000 C 
ENDROOT
BRANCH   2   3
ATOM      3  O   UNL     1      51.938 241.959 327.456  0.00  0.00    +0.000 OA
ATOM      4  H   UNL     1      52.531 241.305 327.878  0.00  0.00    +0.000 HD
ENDBRANCH   2   3
BRANCH   2   6
ATOM      5  O   UNL     1      53.284 243.704 324.657  0.00  0.00    +0.000 OA
ATOM      6  C   UNL     1      52.619 242.984 325.376  0.00  0.00    +0.000 C 
BRANCH   6   7
ATOM      7  O   UNL     1      51.660 242.186 324.887  0.00  0.00    +0.000 OA
ATOM      8  H   UNL     1      51.826 242.165 323.923  0.00  0.00    +0.000 HD
ENDBRANCH   6   7
ENDBRANCH   2   6
TORSDOF 3
ENDMDL
MODEL 8
REMARK VINA RESULT:      -2.7      3.901      5.047
REMARK  Name = 971_OxalicAcid.pdbqt.pdb
REMARK  3 active torsions:
REMARK  status: ('A' for Active; 'I' for Inactive)
REMARK    1  A    between atoms: C_2  and  O_3
REMARK    2  A    between atoms: C_2  and  C_6
REMARK    3  A    between atoms: C_6  and  O_7
REMARK                            x       y       z     vdW  Elec       q    Type
REMARK                         _______ _______ _______ _____ _____    ______ ____
ROOT
ATOM      1  O   UNL     1      47.079 239.404 325.653  0.00  0.00    +0.000 OA
ATOM      2  C   UNL     1      47.905 239.276 326.535  0.00  0.00    +0.000 C 
ENDROOT
BRANCH   2   3
ATOM      3  O   UNL     1      47.584 238.784 327.740  0.00  0.00    +0.000 OA
ATOM      4  H   UNL     1      47.579 239.565 328.330  0.00  0.00    +0.000 HD
ENDBRANCH   2   3
BRANCH   2   6
ATOM      5  O   UNL     1      49.895 240.735 326.668  0.00  0.00    +0.000 OA
ATOM      6  C   UNL     1      49.416 239.646 326.420  0.00  0.00    +0.000 C 
BRANCH   6   7
ATOM      7  O   UNL     1      50.170 238.618 326.006  0.00  0.00    +0.000 OA
ATOM      8  H   UNL     1      50.017 237.919 326.672  0.00  0.00    +0.000 HD
ENDBRANCH   6   7
ENDBRANCH   2   6
TORSDOF 3
ENDMDL
MODEL 9
REMARK VINA RESULT:      -2.7     27.846     28.481
REMARK  Name = 971_OxalicAcid.pdbqt.pdb
REMARK  3 active torsions:
REMARK  status: ('A' for Active; 'I' for Inactive)
REMARK    1  A    between atoms: C_2  and  O_3
REMARK    2  A    between atoms: C_2  and  C_6
REMARK    3  A    between atoms: C_6  and  O_7
REMARK                            x       y       z     vdW  Elec       q    Type
REMARK                         _______ _______ _______ _____ _____    ______ ____
ROOT
ATOM      1  O   UNL     1      70.043 221.801 339.246  0.00  0.00    +0.000 OA
ATOM      2  C   UNL     1      69.851 222.921 338.814  0.00  0.00    +0.000 C 
ENDROOT
BRANCH   2   3
ATOM      3  O   UNL     1      69.802 223.992 339.618  0.00  0.00    +0.000 OA
ATOM      4  H   UNL     1      70.634 223.952 340.130  0.00  0.00    +0.000 HD
ENDBRANCH   2   3
BRANCH   2   6
ATOM      5  O   UNL     1      69.653 222.497 336.387  0.00  0.00    +0.000 OA
ATOM      6  C   UNL     1      69.640 223.286 337.312  0.00  0.00    +0.000 C 
BRANCH   6   7
ATOM      7  O   UNL     1      69.434 224.597 337.122  0.00  0.00    +0.000 OA
ATOM      8  H   UNL     1      70.198 224.889 336.586  0.00  0.00    +0.000 HD
ENDBRANCH   6   7
ENDBRANCH   2   6
TORSDOF 3
ENDMDL
