MODEL 1
REMARK VINA RESULT:      -5.6      0.000      0.000
REMARK  Name = 9852185_GambogicAcid.pdbqt.pdb
REMARK  10 active torsions:
REMARK  status: ('A' for Active; 'I' for Inactive)
REMARK    1  A    between atoms: C_8  and  C_30
REMARK    2  A    between atoms: C_20  and  C_38
REMARK    3  A    between atoms: C_21  and  O_28
REMARK    4  A    between atoms: C_25  and  C_43
REMARK    5  A    between atoms: C_31  and  C_32
REMARK    6  A    between atoms: C_32  and  C_35
REMARK    7  A    between atoms: C_35  and  O_36
REMARK    8  A    between atoms: C_39  and  C_40
REMARK    9  A    between atoms: C_43  and  C_44
REMARK   10  A    between atoms: C_45  and  C_46
REMARK                            x       y       z     vdW  Elec       q    Type
REMARK                         _______ _______ _______ _____ _____    ______ ____
ROOT
ATOM      1  O   UNL     1      70.574 219.086 339.058  0.00  0.00    +0.000 OA
ATOM      2  O   UNL     1      72.539 220.970 339.999  0.00  0.00    +0.000 OA
ATOM      3  O   UNL     1      70.165 219.445 335.931  0.00  0.00    +0.000 OA
ATOM      4  O   UNL     1      73.253 224.377 337.799  0.00  0.00    +0.000 OA
ATOM      5  O   UNL     1      75.193 222.529 343.620  0.00  0.00    +0.000 OA
ATOM      6  C   UNL     1      71.678 221.202 338.892  0.00  0.00    +0.000 C 
ATOM      7  C   UNL     1      70.181 221.407 339.320  0.00  0.00    +0.000 C 
ATOM      8  C   UNL     1      71.346 219.859 338.127  0.00  0.00    +0.000 C 
ATOM      9  C   UNL     1      69.796 220.015 339.833  0.00  0.00    +0.000 C 
ATOM     10  C   UNL     1      69.470 221.919 338.148  0.00  0.00    +0.000 C 
ATOM     11  C   UNL     1      70.049 221.712 336.832  0.00  0.00    +0.000 C 
ATOM     12  C   UNL     1      72.181 222.284 337.921  0.00  0.00    +0.000 C 
ATOM     13  C   UNL     1      70.485 220.219 336.819  0.00  0.00    +0.000 C 
ATOM     14  C   UNL     1      71.283 222.455 336.823  0.00  0.00    +0.000 C 
ATOM     15  C   UNL     1      68.310 219.705 339.602  0.00  0.00    +0.000 C 
ATOM     16  C   UNL     1      70.150 219.883 341.322  0.00  0.00    +0.000 C 
ATOM     17  C   UNL     1      73.027 223.358 338.438  0.00  0.00    +0.000 C 
ATOM     18  C   UNL     1      73.302 221.993 340.492  0.00  0.00    +0.000 A 
ATOM     19  C   UNL     1      73.576 223.174 339.788  0.00  0.00    +0.000 A 
ATOM     20  C   UNL     1      73.862 221.789 341.772  0.00  0.00    +0.000 A 
ATOM     21  C   UNL     1      74.383 224.173 340.358  0.00  0.00    +0.000 A 
ATOM     22  C   UNL     1      74.671 222.775 342.347  0.00  0.00    +0.000 A 
ATOM     23  C   UNL     1      74.921 223.970 341.626  0.00  0.00    +0.000 A 
ATOM     24  C   UNL     1      75.758 224.885 342.311  0.00  0.00    +0.000 C 
ATOM     25  C   UNL     1      76.118 223.499 344.253  0.00  0.00    +0.000 C 
ATOM     26  C   UNL     1      76.237 224.668 343.380  0.00  0.00    +0.000 C 
ATOM     27  C   UNL     1      77.471 222.769 344.438  0.00  0.00    +0.000 C 
ENDROOT
BRANCH  21  28
ATOM     28  O   UNL     1      74.671 225.349 339.718  0.00  0.00    +0.000 OA
ATOM     29  H   UNL     1      74.074 225.462 338.944  0.00  0.00    +0.000 HD
ENDBRANCH  21  28
BRANCH   8  30
ATOM     30  C   UNL     1      72.556 219.111 337.757  0.00  0.00    +0.000 C 
ATOM     31  C   UNL     1      73.844 218.346 337.416  0.00  0.00    +0.000 C 
BRANCH  31  32
ATOM     32  C   UNL     1      74.966 217.734 337.159  0.00  0.00    +0.000 C 
ATOM     33  C   UNL     1      74.838 216.240 336.928  0.00  0.00    +0.000 C 
BRANCH  32  35
ATOM     34  O   UNL     1      77.361 218.032 337.238  0.00  0.00    +0.000 OA
ATOM     35  C   UNL     1      76.240 218.499 337.094  0.00  0.00    +0.000 C 
BRANCH  35  36
ATOM     36  O   UNL     1      76.085 219.818 336.851  0.00  0.00    +0.000 OA
ATOM     37  H   UNL     1      76.720 220.023 336.133  0.00  0.00    +0.000 HD
ENDBRANCH  35  36
ENDBRANCH  32  35
ENDBRANCH  31  32
ENDBRANCH   8  30
BRANCH  20  38
ATOM     38  C   UNL     1      73.597 220.573 342.484  0.00  0.00    +0.000 C 
ATOM     39  C   UNL     1      73.292 219.285 343.263  0.00  0.00    +0.000 C 
BRANCH  39  40
ATOM     40  C   UNL     1      73.016 218.206 343.928  0.00  0.00    +0.000 C 
ATOM     41  C   UNL     1      71.585 217.861 344.208  0.00  0.00    +0.000 C 
ATOM     42  C   UNL     1      74.095 217.200 344.192  0.00  0.00    +0.000 C 
ENDBRANCH  39  40
ENDBRANCH  20  38
BRANCH  25  43
ATOM     43  C   UNL     1      75.537 223.854 345.562  0.00  0.00    +0.000 C 
BRANCH  43  44
ATOM     44  C   UNL     1      74.937 224.217 346.926  0.00  0.00    +0.000 C 
ATOM     45  C   UNL     1      74.335 224.578 348.292  0.00  0.00    +0.000 C 
BRANCH  45  46
ATOM     46  C   UNL     1      73.820 224.880 349.442  0.00  0.00    +0.000 C 
ATOM     47  C   UNL     1      74.722 225.195 350.596  0.00  0.00    +0.000 C 
ATOM     48  C   UNL     1      72.346 224.742 349.663  0.00  0.00    +0.000 C 
ENDBRANCH  45  46
ENDBRANCH  43  44
ENDBRANCH  25  43
TORSDOF 10
ENDMDL
MODEL 2
REMARK VINA RESULT:      -5.5     17.045     19.730
REMARK  Name = 9852185_GambogicAcid.pdbqt.pdb
REMARK  10 active torsions:
REMARK  status: ('A' for Active; 'I' for Inactive)
REMARK    1  A    between atoms: C_8  and  C_30
REMARK    2  A    between atoms: C_20  and  C_38
REMARK    3  A    between atoms: C_21  and  O_28
REMARK    4  A    between atoms: C_25  and  C_43
REMARK    5  A    between atoms: C_31  and  C_32
REMARK    6  A    between atoms: C_32  and  C_35
REMARK    7  A    between atoms: C_35  and  O_36
REMARK    8  A    between atoms: C_39  and  C_40
REMARK    9  A    between atoms: C_43  and  C_44
REMARK   10  A    between atoms: C_45  and  C_46
REMARK                            x       y       z     vdW  Elec       q    Type
REMARK                         _______ _______ _______ _____ _____    ______ ____
ROOT
ATOM      1  O   UNL     1      67.897 240.343 331.741  0.00  0.00    +0.000 OA
ATOM      2  O   UNL     1      70.401 240.144 333.152  0.00  0.00    +0.000 OA
ATOM      3  O   UNL     1      68.098 242.613 329.532  0.00  0.00    +0.000 OA
ATOM      4  O   UNL     1      72.944 243.382 333.174  0.00  0.00    +0.000 OA
ATOM      5  O   UNL     1      73.017 237.832 336.377  0.00  0.00    +0.000 OA
ATOM      6  C   UNL     1      69.904 241.345 332.577  0.00  0.00    +0.000 C 
ATOM      7  C   UNL     1      68.657 241.914 333.345  0.00  0.00    +0.000 C 
ATOM      8  C   UNL     1      69.055 241.054 331.275  0.00  0.00    +0.000 C 
ATOM      9  C   UNL     1      67.584 240.861 333.046  0.00  0.00    +0.000 C 
ATOM     10  C   UNL     1      68.433 243.271 332.845  0.00  0.00    +0.000 C 
ATOM     11  C   UNL     1      68.993 243.644 331.557  0.00  0.00    +0.000 C 
ATOM     12  C   UNL     1      70.983 242.407 332.309  0.00  0.00    +0.000 C 
ATOM     13  C   UNL     1      68.645 242.458 330.613  0.00  0.00    +0.000 C 
ATOM     14  C   UNL     1      70.423 243.579 331.715  0.00  0.00    +0.000 C 
ATOM     15  C   UNL     1      66.176 241.471 332.993  0.00  0.00    +0.000 C 
ATOM     16  C   UNL     1      67.645 239.733 334.087  0.00  0.00    +0.000 C 
ATOM     17  C   UNL     1      72.175 242.430 333.155  0.00  0.00    +0.000 C 
ATOM     18  C   UNL     1      71.499 240.185 333.967  0.00  0.00    +0.000 A 
ATOM     19  C   UNL     1      72.397 241.261 334.016  0.00  0.00    +0.000 A 
ATOM     20  C   UNL     1      71.730 239.038 334.758  0.00  0.00    +0.000 A 
ATOM     21  C   UNL     1      73.513 241.220 334.869  0.00  0.00    +0.000 A 
ATOM     22  C   UNL     1      72.840 238.985 335.607  0.00  0.00    +0.000 A 
ATOM     23  C   UNL     1      73.725 240.092 335.656  0.00  0.00    +0.000 A 
ATOM     24  C   UNL     1      74.812 239.914 336.548  0.00  0.00    +0.000 C 
ATOM     25  C   UNL     1      74.212 237.682 337.240  0.00  0.00    +0.000 C 
ATOM     26  C   UNL     1      74.991 238.920 337.180  0.00  0.00    +0.000 C 
ATOM     27  C   UNL     1      75.005 236.468 336.696  0.00  0.00    +0.000 C 
ENDROOT
BRANCH  21  28
ATOM     28  O   UNL     1      74.412 242.249 334.963  0.00  0.00    +0.000 OA
ATOM     29  H   UNL     1      74.168 242.964 334.334  0.00  0.00    +0.000 HD
ENDBRANCH  21  28
BRANCH   8  30
ATOM     30  C   UNL     1      69.782 240.220 330.307  0.00  0.00    +0.000 C 
ATOM     31  C   UNL     1      70.497 239.318 329.290  0.00  0.00    +0.000 C 
BRANCH  31  32
ATOM     32  C   UNL     1      71.069 238.509 328.443  0.00  0.00    +0.000 C 
ATOM     33  C   UNL     1      71.766 239.193 327.281  0.00  0.00    +0.000 C 
BRANCH  32  35
ATOM     34  O   UNL     1      71.783 236.400 329.376  0.00  0.00    +0.000 OA
ATOM     35  C   UNL     1      71.025 237.038 328.661  0.00  0.00    +0.000 C 
BRANCH  35  36
ATOM     36  O   UNL     1      70.041 236.406 327.986  0.00  0.00    +0.000 OA
ATOM     37  H   UNL     1      69.211 236.665 328.440  0.00  0.00    +0.000 HD
ENDBRANCH  35  36
ENDBRANCH  32  35
ENDBRANCH  31  32
ENDBRANCH   8  30
BRANCH  20  38
ATOM     38  C   UNL     1      70.822 237.930 334.694  0.00  0.00    +0.000 C 
ATOM     39  C   UNL     1      69.853 236.739 334.655  0.00  0.00    +0.000 C 
BRANCH  39  40
ATOM     40  C   UNL     1      69.033 235.734 334.644  0.00  0.00    +0.000 C 
ATOM     41  C   UNL     1      69.579 234.340 334.720  0.00  0.00    +0.000 C 
ATOM     42  C   UNL     1      67.563 235.973 334.803  0.00  0.00    +0.000 C 
ENDBRANCH  39  40
ENDBRANCH  20  38
BRANCH  25  43
ATOM     43  C   UNL     1      73.725 237.412 338.606  0.00  0.00    +0.000 C 
BRANCH  43  44
ATOM     44  C   UNL     1      73.211 237.129 340.023  0.00  0.00    +0.000 C 
ATOM     45  C   UNL     1      72.695 236.846 341.442  0.00  0.00    +0.000 C 
BRANCH  45  46
ATOM     46  C   UNL     1      72.259 236.614 342.640  0.00  0.00    +0.000 C 
ATOM     47  C   UNL     1      71.267 235.515 342.868  0.00  0.00    +0.000 C 
ATOM     48  C   UNL     1      72.606 237.549 343.757  0.00  0.00    +0.000 C 
ENDBRANCH  45  46
ENDBRANCH  43  44
ENDBRANCH  25  43
TORSDOF 10
ENDMDL
MODEL 3
REMARK VINA RESULT:      -5.4     32.555     36.865
REMARK  Name = 9852185_GambogicAcid.pdbqt.pdb
REMARK  10 active torsions:
REMARK  status: ('A' for Active; 'I' for Inactive)
REMARK    1  A    between atoms: C_8  and  C_30
REMARK    2  A    between atoms: C_20  and  C_38
REMARK    3  A    between atoms: C_21  and  O_28
REMARK    4  A    between atoms: C_25  and  C_43
REMARK    5  A    between atoms: C_31  and  C_32
REMARK    6  A    between atoms: C_32  and  C_35
REMARK    7  A    between atoms: C_35  and  O_36
REMARK    8  A    between atoms: C_39  and  C_40
REMARK    9  A    between atoms: C_43  and  C_44
REMARK   10  A    between atoms: C_45  and  C_46
REMARK                            x       y       z     vdW  Elec       q    Type
REMARK                         _______ _______ _______ _____ _____    ______ ____
ROOT
ATOM      1  O   UNL     1      49.707 244.224 321.944  0.00  0.00    +0.000 OA
ATOM      2  O   UNL     1      48.862 241.702 323.049  0.00  0.00    +0.000 OA
ATOM      3  O   UNL     1      48.946 246.570 323.942  0.00  0.00    +0.000 OA
ATOM      4  O   UNL     1      45.857 241.660 325.863  0.00  0.00    +0.000 OA
ATOM      5  O   UNL     1      48.821 236.965 322.666  0.00  0.00    +0.000 OA
ATOM      6  C   UNL     1      48.209 242.939 323.297  0.00  0.00    +0.000 C 
ATOM      7  C   UNL     1      47.455 243.492 322.035  0.00  0.00    +0.000 C 
ATOM      8  C   UNL     1      49.233 244.144 323.297  0.00  0.00    +0.000 C 
ATOM      9  C   UNL     1      48.613 243.840 321.093  0.00  0.00    +0.000 C 
ATOM     10  C   UNL     1      46.602 244.588 322.494  0.00  0.00    +0.000 C 
ATOM     11  C   UNL     1      46.911 245.233 323.759  0.00  0.00    +0.000 C 
ATOM     12  C   UNL     1      47.343 242.949 324.568  0.00  0.00    +0.000 C 
ATOM     13  C   UNL     1      48.446 245.480 323.716  0.00  0.00    +0.000 C 
ATOM     14  C   UNL     1      46.731 244.224 324.771  0.00  0.00    +0.000 C 
ATOM     15  C   UNL     1      48.277 245.028 320.180  0.00  0.00    +0.000 C 
ATOM     16  C   UNL     1      49.004 242.611 320.257  0.00  0.00    +0.000 C 
ATOM     17  C   UNL     1      46.749 241.694 325.026  0.00  0.00    +0.000 C 
ATOM     18  C   UNL     1      48.279 240.533 323.456  0.00  0.00    +0.000 A 
ATOM     19  C   UNL     1      47.253 240.460 324.409  0.00  0.00    +0.000 A 
ATOM     20  C   UNL     1      48.801 239.349 322.890  0.00  0.00    +0.000 A 
ATOM     21  C   UNL     1      46.717 239.218 324.786  0.00  0.00    +0.000 A 
ATOM     22  C   UNL     1      48.278 238.106 323.263  0.00  0.00    +0.000 A 
ATOM     23  C   UNL     1      47.227 238.056 324.214  0.00  0.00    +0.000 A 
ATOM     24  C   UNL     1      46.789 236.742 324.512  0.00  0.00    +0.000 C 
ATOM     25  C   UNL     1      48.364 235.615 323.072  0.00  0.00    +0.000 C 
ATOM     26  C   UNL     1      47.272 235.762 324.036  0.00  0.00    +0.000 C 
ATOM     27  C   UNL     1      49.590 234.895 323.686  0.00  0.00    +0.000 C 
ENDROOT
BRANCH  21  28
ATOM     28  O   UNL     1      45.707 239.094 325.702  0.00  0.00    +0.000 OA
ATOM     29  H   UNL     1      44.868 239.440 325.323  0.00  0.00    +0.000 HD
ENDBRANCH  21  28
BRANCH   8  30
ATOM     30  C   UNL     1      50.371 243.912 324.199  0.00  0.00    +0.000 C 
ATOM     31  C   UNL     1      51.539 243.621 325.153  0.00  0.00    +0.000 C 
BRANCH  31  32
ATOM     32  C   UNL     1      52.497 243.337 325.990  0.00  0.00    +0.000 C 
ATOM     33  C   UNL     1      53.847 243.937 325.640  0.00  0.00    +0.000 C 
BRANCH  32  35
ATOM     34  O   UNL     1      52.617 242.726 328.322  0.00  0.00    +0.000 OA
ATOM     35  C   UNL     1      52.224 242.499 327.188  0.00  0.00    +0.000 C 
BRANCH  35  36
ATOM     36  O   UNL     1      51.470 241.406 326.941  0.00  0.00    +0.000 OA
ATOM     37  H   UNL     1      51.109 241.141 327.813  0.00  0.00    +0.000 HD
ENDBRANCH  35  36
ENDBRANCH  32  35
ENDBRANCH  31  32
ENDBRANCH   8  30
BRANCH  20  38
ATOM     38  C   UNL     1      49.864 239.422 321.930  0.00  0.00    +0.000 C 
ATOM     39  C   UNL     1      51.023 239.499 320.926  0.00  0.00    +0.000 C 
BRANCH  39  40
ATOM     40  C   UNL     1      52.015 239.558 320.093  0.00  0.00    +0.000 C 
ATOM     41  C   UNL     1      51.738 239.570 318.620  0.00  0.00    +0.000 C 
ATOM     42  C   UNL     1      53.393 239.861 320.599  0.00  0.00    +0.000 C 
ENDBRANCH  39  40
ENDBRANCH  20  38
BRANCH  25  43
ATOM     43  C   UNL     1      47.919 234.926 321.846  0.00  0.00    +0.000 C 
BRANCH  43  44
ATOM     44  C   UNL     1      47.458 234.215 320.567  0.00  0.00    +0.000 C 
ATOM     45  C   UNL     1      46.996 233.506 319.286  0.00  0.00    +0.000 C 
BRANCH  45  46
ATOM     46  C   UNL     1      46.599 232.906 318.207  0.00  0.00    +0.000 C 
ATOM     47  C   UNL     1      46.440 231.417 318.205  0.00  0.00    +0.000 C 
ATOM     48  C   UNL     1      46.473 233.672 316.927  0.00  0.00    +0.000 C 
ENDBRANCH  45  46
ENDBRANCH  43  44
ENDBRANCH  25  43
TORSDOF 10
ENDMDL
MODEL 4
REMARK VINA RESULT:      -5.4     33.029     36.621
REMARK  Name = 9852185_GambogicAcid.pdbqt.pdb
REMARK  10 active torsions:
REMARK  status: ('A' for Active; 'I' for Inactive)
REMARK    1  A    between atoms: C_8  and  C_30
REMARK    2  A    between atoms: C_20  and  C_38
REMARK    3  A    between atoms: C_21  and  O_28
REMARK    4  A    between atoms: C_25  and  C_43
REMARK    5  A    between atoms: C_31  and  C_32
REMARK    6  A    between atoms: C_32  and  C_35
REMARK    7  A    between atoms: C_35  and  O_36
REMARK    8  A    between atoms: C_39  and  C_40
REMARK    9  A    between atoms: C_43  and  C_44
REMARK   10  A    between atoms: C_45  and  C_46
REMARK                            x       y       z     vdW  Elec       q    Type
REMARK                         _______ _______ _______ _____ _____    ______ ____
ROOT
ATOM      1  O   UNL     1      50.819 244.432 326.219  0.00  0.00    +0.000 OA
ATOM      2  O   UNL     1      50.822 242.858 323.807  0.00  0.00    +0.000 OA
ATOM      3  O   UNL     1      52.970 246.754 325.978  0.00  0.00    +0.000 OA
ATOM      4  O   UNL     1      54.178 242.865 321.422  0.00  0.00    +0.000 OA
ATOM      5  O   UNL     1      48.826 239.345 321.306  0.00  0.00    +0.000 OA
ATOM      6  C   UNL     1      51.963 243.532 324.320  0.00  0.00    +0.000 C 
ATOM      7  C   UNL     1      52.512 242.879 325.639  0.00  0.00    +0.000 C 
ATOM      8  C   UNL     1      51.559 244.866 325.067  0.00  0.00    +0.000 C 
ATOM      9  C   UNL     1      51.392 243.183 326.641  0.00  0.00    +0.000 C 
ATOM     10  C   UNL     1      53.826 243.471 325.892  0.00  0.00    +0.000 C 
ATOM     11  C   UNL     1      54.154 244.740 325.266  0.00  0.00    +0.000 C 
ATOM     12  C   UNL     1      53.062 243.793 323.275  0.00  0.00    +0.000 C 
ATOM     13  C   UNL     1      52.903 245.634 325.497  0.00  0.00    +0.000 C 
ATOM     14  C   UNL     1      54.170 244.489 323.848  0.00  0.00    +0.000 C 
ATOM     15  C   UNL     1      51.928 243.360 328.069  0.00  0.00    +0.000 C 
ATOM     16  C   UNL     1      50.328 242.076 326.597  0.00  0.00    +0.000 C 
ATOM     17  C   UNL     1      53.191 242.876 322.144  0.00  0.00    +0.000 C 
ATOM     18  C   UNL     1      50.963 241.979 322.768  0.00  0.00    +0.000 A 
ATOM     19  C   UNL     1      52.083 241.937 321.925  0.00  0.00    +0.000 A 
ATOM     20  C   UNL     1      49.875 241.109 322.538  0.00  0.00    +0.000 A 
ATOM     21  C   UNL     1      52.145 241.014 320.868  0.00  0.00    +0.000 A 
ATOM     22  C   UNL     1      49.924 240.190 321.484  0.00  0.00    +0.000 A 
ATOM     23  C   UNL     1      51.074 240.151 320.656  0.00  0.00    +0.000 A 
ATOM     24  C   UNL     1      51.000 239.183 319.623  0.00  0.00    +0.000 C 
ATOM     25  C   UNL     1      48.783 238.400 320.164  0.00  0.00    +0.000 C 
ATOM     26  C   UNL     1      50.052 238.484 319.440  0.00  0.00    +0.000 C 
ATOM     27  C   UNL     1      47.581 238.822 319.282  0.00  0.00    +0.000 C 
ENDROOT
BRANCH  21  28
ATOM     28  O   UNL     1      53.221 240.924 320.025  0.00  0.00    +0.000 OA
ATOM     29  H   UNL     1      53.721 241.771 320.030  0.00  0.00    +0.000 HD
ENDBRANCH  21  28
BRANCH   8  30
ATOM     30  C   UNL     1      50.711 245.736 324.241  0.00  0.00    +0.000 C 
ATOM     31  C   UNL     1      49.812 246.603 323.345  0.00  0.00    +0.000 C 
BRANCH  31  32
ATOM     32  C   UNL     1      49.059 247.301 322.543  0.00  0.00    +0.000 C 
ATOM     33  C   UNL     1      49.149 248.804 322.733  0.00  0.00    +0.000 C 
BRANCH  32  35
ATOM     34  O   UNL     1      47.046 246.285 321.680  0.00  0.00    +0.000 OA
ATOM     35  C   UNL     1      48.211 246.622 321.527  0.00  0.00    +0.000 C 
BRANCH  35  36
ATOM     36  O   UNL     1      48.834 246.383 320.353  0.00  0.00    +0.000 OA
ATOM     37  H   UNL     1      49.792 246.421 320.559  0.00  0.00    +0.000 HD
ENDBRANCH  35  36
ENDBRANCH  32  35
ENDBRANCH  31  32
ENDBRANCH   8  30
BRANCH  20  38
ATOM     38  C   UNL     1      48.721 241.166 323.387  0.00  0.00    +0.000 C 
ATOM     39  C   UNL     1      47.504 241.237 324.321  0.00  0.00    +0.000 C 
BRANCH  39  40
ATOM     40  C   UNL     1      46.487 241.307 325.123  0.00  0.00    +0.000 C 
ATOM     41  C   UNL     1      45.109 241.455 324.552  0.00  0.00    +0.000 C 
ATOM     42  C   UNL     1      46.665 240.997 326.578  0.00  0.00    +0.000 C 
ENDBRANCH  39  40
ENDBRANCH  20  38
BRANCH  25  43
ATOM     43  C   UNL     1      48.565 237.054 320.727  0.00  0.00    +0.000 C 
BRANCH  43  44
ATOM     44  C   UNL     1      48.344 235.652 321.307  0.00  0.00    +0.000 C 
ATOM     45  C   UNL     1      48.121 234.248 321.889  0.00  0.00    +0.000 C 
BRANCH  45  46
ATOM     46  C   UNL     1      47.936 233.066 322.386  0.00  0.00    +0.000 C 
ATOM     47  C   UNL     1      48.036 232.862 323.867  0.00  0.00    +0.000 C 
ATOM     48  C   UNL     1      47.803 231.883 321.478  0.00  0.00    +0.000 C 
ENDBRANCH  45  46
ENDBRANCH  43  44
ENDBRANCH  25  43
TORSDOF 10
ENDMDL
MODEL 5
REMARK VINA RESULT:      -5.2     13.979     19.513
REMARK  Name = 9852185_GambogicAcid.pdbqt.pdb
REMARK  10 active torsions:
REMARK  status: ('A' for Active; 'I' for Inactive)
REMARK    1  A    between atoms: C_8  and  C_30
REMARK    2  A    between atoms: C_20  and  C_38
REMARK    3  A    between atoms: C_21  and  O_28
REMARK    4  A    between atoms: C_25  and  C_43
REMARK    5  A    between atoms: C_31  and  C_32
REMARK    6  A    between atoms: C_32  and  C_35
REMARK    7  A    between atoms: C_35  and  O_36
REMARK    8  A    between atoms: C_39  and  C_40
REMARK    9  A    between atoms: C_43  and  C_44
REMARK   10  A    between atoms: C_45  and  C_46
REMARK                            x       y       z     vdW  Elec       q    Type
REMARK                         _______ _______ _______ _____ _____    ______ ____
ROOT
ATOM      1  O   UNL     1      61.684 223.451 322.158  0.00  0.00    +0.000 OA
ATOM      2  O   UNL     1      62.011 222.990 324.982  0.00  0.00    +0.000 OA
ATOM      3  O   UNL     1      59.122 225.258 321.664  0.00  0.00    +0.000 OA
ATOM      4  O   UNL     1      58.741 223.351 327.457  0.00  0.00    +0.000 OA
ATOM      5  O   UNL     1      64.681 221.173 328.469  0.00  0.00    +0.000 OA
ATOM      6  C   UNL     1      60.756 223.192 324.348  0.00  0.00    +0.000 C 
ATOM      7  C   UNL     1      60.334 221.984 323.438  0.00  0.00    +0.000 C 
ATOM      8  C   UNL     1      60.884 224.168 323.110  0.00  0.00    +0.000 C 
ATOM      9  C   UNL     1      61.364 222.057 322.305  0.00  0.00    +0.000 C 
ATOM     10  C   UNL     1      58.927 222.184 323.090  0.00  0.00    +0.000 C 
ATOM     11  C   UNL     1      58.362 223.518 323.199  0.00  0.00    +0.000 C 
ATOM     12  C   UNL     1      59.637 223.649 325.300  0.00  0.00    +0.000 C 
ATOM     13  C   UNL     1      59.412 224.452 322.533  0.00  0.00    +0.000 C 
ATOM     14  C   UNL     1      58.409 223.852 324.599  0.00  0.00    +0.000 C 
ATOM     15  C   UNL     1      60.791 221.555 320.971  0.00  0.00    +0.000 C 
ATOM     16  C   UNL     1      62.625 221.265 322.683  0.00  0.00    +0.000 C 
ATOM     17  C   UNL     1      59.701 223.250 326.705  0.00  0.00    +0.000 C 
ATOM     18  C   UNL     1      62.055 222.587 326.289  0.00  0.00    +0.000 A 
ATOM     19  C   UNL     1      60.973 222.686 327.175  0.00  0.00    +0.000 A 
ATOM     20  C   UNL     1      63.295 222.087 326.744  0.00  0.00    +0.000 A 
ATOM     21  C   UNL     1      61.103 222.264 328.509  0.00  0.00    +0.000 A 
ATOM     22  C   UNL     1      63.436 221.669 328.072  0.00  0.00    +0.000 A 
ATOM     23  C   UNL     1      62.324 221.760 328.946  0.00  0.00    +0.000 A 
ATOM     24  C   UNL     1      62.595 221.312 330.263  0.00  0.00    +0.000 C 
ATOM     25  C   UNL     1      64.919 220.784 329.879  0.00  0.00    +0.000 C 
ATOM     26  C   UNL     1      63.664 220.922 330.620  0.00  0.00    +0.000 C 
ATOM     27  C   UNL     1      66.022 221.726 330.422  0.00  0.00    +0.000 C 
ENDROOT
BRANCH  21  28
ATOM     28  O   UNL     1      60.073 222.327 329.410  0.00  0.00    +0.000 OA
ATOM     29  H   UNL     1      59.291 222.755 328.994  0.00  0.00    +0.000 HD
ENDBRANCH  21  28
BRANCH   8  30
ATOM     30  C   UNL     1      61.553 225.430 323.458  0.00  0.00    +0.000 C 
ATOM     31  C   UNL     1      62.212 226.758 323.858  0.00  0.00    +0.000 C 
BRANCH  31  32
ATOM     32  C   UNL     1      62.721 227.904 324.215  0.00  0.00    +0.000 C 
ATOM     33  C   UNL     1      63.028 228.849 323.068  0.00  0.00    +0.000 C 
BRANCH  32  35
ATOM     34  O   UNL     1      64.032 228.293 326.205  0.00  0.00    +0.000 OA
ATOM     35  C   UNL     1      62.944 228.212 325.653  0.00  0.00    +0.000 C 
BRANCH  35  36
ATOM     36  O   UNL     1      61.812 228.410 326.361  0.00  0.00    +0.000 OA
ATOM     37  H   UNL     1      61.979 229.219 326.890  0.00  0.00    +0.000 HD
ENDBRANCH  35  36
ENDBRANCH  32  35
ENDBRANCH  31  32
ENDBRANCH   8  30
BRANCH  20  38
ATOM     38  C   UNL     1      64.408 222.005 325.843  0.00  0.00    +0.000 C 
ATOM     39  C   UNL     1      65.580 221.923 324.854  0.00  0.00    +0.000 C 
BRANCH  39  40
ATOM     40  C   UNL     1      66.558 221.863 324.005  0.00  0.00    +0.000 C 
ATOM     41  C   UNL     1      66.284 222.103 322.550  0.00  0.00    +0.000 C 
ATOM     42  C   UNL     1      67.970 221.801 324.500  0.00  0.00    +0.000 C 
ENDBRANCH  39  40
ENDBRANCH  20  38
BRANCH  25  43
ATOM     43  C   UNL     1      65.391 219.386 329.866  0.00  0.00    +0.000 C 
BRANCH  43  44
ATOM     44  C   UNL     1      65.884 217.934 329.859  0.00  0.00    +0.000 C 
ATOM     45  C   UNL     1      66.380 216.481 329.851  0.00  0.00    +0.000 C 
BRANCH  45  46
ATOM     46  C   UNL     1      66.794 215.252 329.838  0.00  0.00    +0.000 C 
ATOM     47  C   UNL     1      65.920 214.183 329.258  0.00  0.00    +0.000 C 
ATOM     48  C   UNL     1      68.054 214.879 330.555  0.00  0.00    +0.000 C 
ENDBRANCH  45  46
ENDBRANCH  43  44
ENDBRANCH  25  43
TORSDOF 10
ENDMDL
MODEL 6
REMARK VINA RESULT:      -5.1      4.411     10.468
REMARK  Name = 9852185_GambogicAcid.pdbqt.pdb
REMARK  10 active torsions:
REMARK  status: ('A' for Active; 'I' for Inactive)
REMARK    1  A    between atoms: C_8  and  C_30
REMARK    2  A    between atoms: C_20  and  C_38
REMARK    3  A    between atoms: C_21  and  O_28
REMARK    4  A    between atoms: C_25  and  C_43
REMARK    5  A    between atoms: C_31  and  C_32
REMARK    6  A    between atoms: C_32  and  C_35
REMARK    7  A    between atoms: C_35  and  O_36
REMARK    8  A    between atoms: C_39  and  C_40
REMARK    9  A    between atoms: C_43  and  C_44
REMARK   10  A    between atoms: C_45  and  C_46
REMARK                            x       y       z     vdW  Elec       q    Type
REMARK                         _______ _______ _______ _____ _____    ______ ____
ROOT
ATOM      1  O   UNL     1      71.156 221.664 336.982  0.00  0.00    +0.000 OA
ATOM      2  O   UNL     1      69.456 219.544 337.937  0.00  0.00    +0.000 OA
ATOM      3  O   UNL     1      73.599 222.048 338.971  0.00  0.00    +0.000 OA
ATOM      4  O   UNL     1      69.558 218.547 341.931  0.00  0.00    +0.000 OA
ATOM      5  O   UNL     1      65.687 216.758 337.149  0.00  0.00    +0.000 OA
ATOM      6  C   UNL     1      70.232 220.384 338.780  0.00  0.00    +0.000 C 
ATOM      7  C   UNL     1      69.690 221.857 338.834  0.00  0.00    +0.000 C 
ATOM      8  C   UNL     1      71.574 220.831 338.074  0.00  0.00    +0.000 C 
ATOM      9  C   UNL     1      69.972 222.358 337.413  0.00  0.00    +0.000 C 
ATOM     10  C   UNL     1      70.381 222.525 339.938  0.00  0.00    +0.000 C 
ATOM     11  C   UNL     1      71.634 221.968 340.418  0.00  0.00    +0.000 C 
ATOM     12  C   UNL     1      70.509 219.793 340.173  0.00  0.00    +0.000 C 
ATOM     13  C   UNL     1      72.453 221.661 339.132  0.00  0.00    +0.000 C 
ATOM     14  C   UNL     1      71.308 220.676 340.963  0.00  0.00    +0.000 C 
ATOM     15  C   UNL     1      70.261 223.865 337.379  0.00  0.00    +0.000 C 
ATOM     16  C   UNL     1      68.795 222.013 336.487  0.00  0.00    +0.000 C 
ATOM     17  C   UNL     1      69.543 218.858 340.747  0.00  0.00    +0.000 C 
ATOM     18  C   UNL     1      68.534 218.695 338.487  0.00  0.00    +0.000 A 
ATOM     19  C   UNL     1      68.521 218.323 339.838  0.00  0.00    +0.000 A 
ATOM     20  C   UNL     1      67.582 218.151 337.597  0.00  0.00    +0.000 A 
ATOM     21  C   UNL     1      67.549 217.432 340.323  0.00  0.00    +0.000 A 
ATOM     22  C   UNL     1      66.613 217.260 338.068  0.00  0.00    +0.000 A 
ATOM     23  C   UNL     1      66.606 216.911 339.442  0.00  0.00    +0.000 A 
ATOM     24  C   UNL     1      65.581 215.998 339.794  0.00  0.00    +0.000 C 
ATOM     25  C   UNL     1      64.682 215.753 337.568  0.00  0.00    +0.000 C 
ATOM     26  C   UNL     1      64.811 215.536 339.010  0.00  0.00    +0.000 C 
ATOM     27  C   UNL     1      64.974 214.466 336.757  0.00  0.00    +0.000 C 
ENDROOT
BRANCH  21  28
ATOM     28  O   UNL     1      67.485 217.047 341.636  0.00  0.00    +0.000 OA
ATOM     29  H   UNL     1      66.843 216.309 341.736  0.00  0.00    +0.000 HD
ENDBRANCH  21  28
BRANCH   8  30
ATOM     30  C   UNL     1      72.340 219.690 337.552  0.00  0.00    +0.000 C 
ATOM     31  C   UNL     1      73.123 218.468 337.048  0.00  0.00    +0.000 C 
BRANCH  31  32
ATOM     32  C   UNL     1      73.789 217.412 336.674  0.00  0.00    +0.000 C 
ATOM     33  C   UNL     1      73.814 217.172 335.176  0.00  0.00    +0.000 C 
BRANCH  32  35
ATOM     34  O   UNL     1      75.180 215.594 337.440  0.00  0.00    +0.000 OA
ATOM     35  C   UNL     1      74.467 216.556 337.684  0.00  0.00    +0.000 C 
BRANCH  35  36
ATOM     36  O   UNL     1      74.240 216.920 338.964  0.00  0.00    +0.000 OA
ATOM     37  H   UNL     1      74.590 216.183 339.507  0.00  0.00    +0.000 HD
ENDBRANCH  35  36
ENDBRANCH  32  35
ENDBRANCH  31  32
ENDBRANCH   8  30
BRANCH  20  38
ATOM     38  C   UNL     1      67.607 218.517 336.210  0.00  0.00    +0.000 C 
ATOM     39  C   UNL     1      67.661 218.926 334.731  0.00  0.00    +0.000 C 
BRANCH  39  40
ATOM     40  C   UNL     1      67.725 219.278 333.484  0.00  0.00    +0.000 C 
ATOM     41  C   UNL     1      66.620 220.103 332.896  0.00  0.00    +0.000 C 
ATOM     42  C   UNL     1      68.996 219.074 332.719  0.00  0.00    +0.000 C 
ENDBRANCH  39  40
ENDBRANCH  20  38
BRANCH  25  43
ATOM     43  C   UNL     1      63.357 216.298 337.216  0.00  0.00    +0.000 C 
BRANCH  43  44
ATOM     44  C   UNL     1      61.977 216.857 336.849  0.00  0.00    +0.000 C 
ATOM     45  C   UNL     1      60.594 217.417 336.482  0.00  0.00    +0.000 C 
BRANCH  45  46
ATOM     46  C   UNL     1      59.425 217.882 336.173  0.00  0.00    +0.000 C 
ATOM     47  C   UNL     1      58.961 217.829 334.750  0.00  0.00    +0.000 C 
ATOM     48  C   UNL     1      58.621 218.626 337.193  0.00  0.00    +0.000 C 
ENDBRANCH  45  46
ENDBRANCH  43  44
ENDBRANCH  25  43
TORSDOF 10
ENDMDL
MODEL 7
REMARK VINA RESULT:      -5.0     16.054     19.478
REMARK  Name = 9852185_GambogicAcid.pdbqt.pdb
REMARK  10 active torsions:
REMARK  status: ('A' for Active; 'I' for Inactive)
REMARK    1  A    between atoms: C_8  and  C_30
REMARK    2  A    between atoms: C_20  and  C_38
REMARK    3  A    between atoms: C_21  and  O_28
REMARK    4  A    between atoms: C_25  and  C_43
REMARK    5  A    between atoms: C_31  and  C_32
REMARK    6  A    between atoms: C_32  and  C_35
REMARK    7  A    between atoms: C_35  and  O_36
REMARK    8  A    between atoms: C_39  and  C_40
REMARK    9  A    between atoms: C_43  and  C_44
REMARK   10  A    between atoms: C_45  and  C_46
REMARK                            x       y       z     vdW  Elec       q    Type
REMARK                         _______ _______ _______ _____ _____    ______ ____
ROOT
ATOM      1  O   UNL     1      75.668 238.049 338.039  0.00  0.00    +0.000 OA
ATOM      2  O   UNL     1      73.148 238.370 336.681  0.00  0.00    +0.000 OA
ATOM      3  O   UNL     1      77.341 235.739 336.647  0.00  0.00    +0.000 OA
ATOM      4  O   UNL     1      71.648 235.226 334.485  0.00  0.00    +0.000 OA
ATOM      5  O   UNL     1      69.116 240.845 336.236  0.00  0.00    +0.000 OA
ATOM      6  C   UNL     1      73.853 237.139 336.772  0.00  0.00    +0.000 C 
ATOM      7  C   UNL     1      73.849 236.544 338.226  0.00  0.00    +0.000 C 
ATOM      8  C   UNL     1      75.417 237.370 336.798  0.00  0.00    +0.000 C 
ATOM      9  C   UNL     1      74.714 237.550 338.991  0.00  0.00    +0.000 C 
ATOM     10  C   UNL     1      74.338 235.168 338.123  0.00  0.00    +0.000 C 
ATOM     11  C   UNL     1      75.113 234.787 336.955  0.00  0.00    +0.000 C 
ATOM     12  C   UNL     1      73.463 236.110 335.698  0.00  0.00    +0.000 C 
ATOM     13  C   UNL     1      76.142 235.937 336.766  0.00  0.00    +0.000 C 
ATOM     14  C   UNL     1      74.219 234.906 335.832  0.00  0.00    +0.000 C 
ATOM     15  C   UNL     1      75.487 236.890 340.142  0.00  0.00    +0.000 C 
ATOM     16  C   UNL     1      73.844 238.703 339.517  0.00  0.00    +0.000 C 
ATOM     17  C   UNL     1      72.111 236.149 335.142  0.00  0.00    +0.000 C 
ATOM     18  C   UNL     1      71.871 238.386 336.188  0.00  0.00    +0.000 A 
ATOM     19  C   UNL     1      71.310 237.344 335.436  0.00  0.00    +0.000 A 
ATOM     20  C   UNL     1      71.124 239.558 336.437  0.00  0.00    +0.000 A 
ATOM     21  C   UNL     1      69.996 237.444 334.950  0.00  0.00    +0.000 A 
ATOM     22  C   UNL     1      69.816 239.670 335.953  0.00  0.00    +0.000 A 
ATOM     23  C   UNL     1      69.261 238.597 335.212  0.00  0.00    +0.000 A 
ATOM     24  C   UNL     1      67.934 238.833 334.773  0.00  0.00    +0.000 C 
ATOM     25  C   UNL     1      67.754 241.058 335.690  0.00  0.00    +0.000 C 
ATOM     26  C   UNL     1      67.342 239.847 334.977  0.00  0.00    +0.000 C 
ATOM     27  C   UNL     1      67.837 242.287 334.751  0.00  0.00    +0.000 C 
ENDROOT
BRANCH  21  28
ATOM     28  O   UNL     1      69.397 236.451 334.222  0.00  0.00    +0.000 OA
ATOM     29  H   UNL     1      68.430 236.443 334.400  0.00  0.00    +0.000 HD
ENDBRANCH  21  28
BRANCH   8  30
ATOM     30  C   UNL     1      75.879 238.207 335.682  0.00  0.00    +0.000 C 
ATOM     31  C   UNL     1      76.361 239.125 334.548  0.00  0.00    +0.000 C 
BRANCH  31  32
ATOM     32  C   UNL     1      76.746 239.947 333.613  0.00  0.00    +0.000 C 
ATOM     33  C   UNL     1      77.315 241.261 334.115  0.00  0.00    +0.000 C 
BRANCH  32  35
ATOM     34  O   UNL     1      76.058 240.209 331.314  0.00  0.00    +0.000 OA
ATOM     35  C   UNL     1      76.628 239.563 332.180  0.00  0.00    +0.000 C 
BRANCH  35  36
ATOM     36  O   UNL     1      77.223 238.392 331.868  0.00  0.00    +0.000 OA
ATOM     37  H   UNL     1      76.795 237.725 332.446  0.00  0.00    +0.000 HD
ENDBRANCH  35  36
ENDBRANCH  32  35
ENDBRANCH  31  32
ENDBRANCH   8  30
BRANCH  20  38
ATOM     38  C   UNL     1      71.706 240.632 337.189  0.00  0.00    +0.000 C 
ATOM     39  C   UNL     1      72.344 241.760 338.012  0.00  0.00    +0.000 C 
BRANCH  39  40
ATOM     40  C   UNL     1      72.897 242.699 338.715  0.00  0.00    +0.000 C 
ATOM     41  C   UNL     1      74.234 242.455 339.345  0.00  0.00    +0.000 C 
ATOM     42  C   UNL     1      72.323 244.083 338.688  0.00  0.00    +0.000 C 
ENDBRANCH  39  40
ENDBRANCH  20  38
BRANCH  25  43
ATOM     43  C   UNL     1      66.870 241.341 336.837  0.00  0.00    +0.000 C 
BRANCH  43  44
ATOM     44  C   UNL     1      65.953 241.643 338.029  0.00  0.00    +0.000 C 
ATOM     45  C   UNL     1      65.034 241.943 339.221  0.00  0.00    +0.000 C 
BRANCH  45  46
ATOM     46  C   UNL     1      64.252 242.198 340.223  0.00  0.00    +0.000 C 
ATOM     47  C   UNL     1      64.796 242.148 341.618  0.00  0.00    +0.000 C 
ATOM     48  C   UNL     1      62.780 242.364 340.002  0.00  0.00    +0.000 C 
ENDBRANCH  45  46
ENDBRANCH  43  44
ENDBRANCH  25  43
TORSDOF 10
ENDMDL
MODEL 8
REMARK VINA RESULT:      -5.0     33.229     36.529
REMARK  Name = 9852185_GambogicAcid.pdbqt.pdb
REMARK  10 active torsions:
REMARK  status: ('A' for Active; 'I' for Inactive)
REMARK    1  A    between atoms: C_8  and  C_30
REMARK    2  A    between atoms: C_20  and  C_38
REMARK    3  A    between atoms: C_21  and  O_28
REMARK    4  A    between atoms: C_25  and  C_43
REMARK    5  A    between atoms: C_31  and  C_32
REMARK    6  A    between atoms: C_32  and  C_35
REMARK    7  A    between atoms: C_35  and  O_36
REMARK    8  A    between atoms: C_39  and  C_40
REMARK    9  A    between atoms: C_43  and  C_44
REMARK   10  A    between atoms: C_45  and  C_46
REMARK                            x       y       z     vdW  Elec       q    Type
REMARK                         _______ _______ _______ _____ _____    ______ ____
ROOT
ATOM      1  O   UNL     1      47.142 238.126 323.080  0.00  0.00    +0.000 OA
ATOM      2  O   UNL     1      45.532 235.946 324.056  0.00  0.00    +0.000 OA
ATOM      3  O   UNL     1      49.243 237.034 320.966  0.00  0.00    +0.000 OA
ATOM      4  O   UNL     1      47.002 232.108 323.805  0.00  0.00    +0.000 OA
ATOM      5  O   UNL     1      41.844 234.557 326.713  0.00  0.00    +0.000 OA
ATOM      6  C   UNL     1      46.878 235.810 323.622  0.00  0.00    +0.000 C 
ATOM      7  C   UNL     1      47.904 236.480 324.605  0.00  0.00    +0.000 C 
ATOM      8  C   UNL     1      47.217 236.831 322.463  0.00  0.00    +0.000 C 
ATOM      9  C   UNL     1      47.586 237.970 324.439  0.00  0.00    +0.000 C 
ATOM     10  C   UNL     1      49.236 236.022 324.206  0.00  0.00    +0.000 C 
ATOM     11  C   UNL     1      49.425 235.505 322.862  0.00  0.00    +0.000 C 
ATOM     12  C   UNL     1      47.269 234.375 323.228  0.00  0.00    +0.000 C 
ATOM     13  C   UNL     1      48.704 236.526 321.937  0.00  0.00    +0.000 C 
ATOM     14  C   UNL     1      48.625 234.310 322.783  0.00  0.00    +0.000 C 
ATOM     15  C   UNL     1      48.827 238.851 324.641  0.00  0.00    +0.000 C 
ATOM     16  C   UNL     1      46.467 238.383 325.408  0.00  0.00    +0.000 C 
ATOM     17  C   UNL     1      46.583 233.256 323.870  0.00  0.00    +0.000 C 
ATOM     18  C   UNL     1      44.912 234.900 324.684  0.00  0.00    +0.000 A 
ATOM     19  C   UNL     1      45.368 233.575 324.632  0.00  0.00    +0.000 A 
ATOM     20  C   UNL     1      43.721 235.209 325.377  0.00  0.00    +0.000 A 
ATOM     21  C   UNL     1      44.665 232.553 325.291  0.00  0.00    +0.000 A 
ATOM     22  C   UNL     1      43.010 234.197 326.032  0.00  0.00    +0.000 A 
ATOM     23  C   UNL     1      43.500 232.867 325.984  0.00  0.00    +0.000 A 
ATOM     24  C   UNL     1      42.689 231.936 326.679  0.00  0.00    +0.000 C 
ATOM     25  C   UNL     1      41.005 233.523 327.364  0.00  0.00    +0.000 C 
ATOM     26  C   UNL     1      41.674 232.227 327.230  0.00  0.00    +0.000 C 
ATOM     27  C   UNL     1      39.632 233.546 326.647  0.00  0.00    +0.000 C 
ENDROOT
BRANCH  21  28
ATOM     28  O   UNL     1      45.075 231.246 325.282  0.00  0.00    +0.000 OA
ATOM     29  H   UNL     1      46.057 231.204 325.315  0.00  0.00    +0.000 HD
ENDBRANCH  21  28
BRANCH   8  30
ATOM     30  C   UNL     1      46.254 236.762 321.355  0.00  0.00    +0.000 C 
ATOM     31  C   UNL     1      45.285 236.663 320.167  0.00  0.00    +0.000 C 
BRANCH  31  32
ATOM     32  C   UNL     1      44.507 236.576 319.125  0.00  0.00    +0.000 C 
ATOM     33  C   UNL     1      44.937 237.418 317.938  0.00  0.00    +0.000 C 
BRANCH  32  35
ATOM     34  O   UNL     1      43.129 234.719 318.430  0.00  0.00    +0.000 OA
ATOM     35  C   UNL     1      43.313 235.689 319.151  0.00  0.00    +0.000 C 
BRANCH  35  36
ATOM     36  O   UNL     1      42.386 236.033 320.070  0.00  0.00    +0.000 OA
ATOM     37  H   UNL     1      41.967 236.847 319.720  0.00  0.00    +0.000 HD
ENDBRANCH  35  36
ENDBRANCH  32  35
ENDBRANCH  31  32
ENDBRANCH   8  30
BRANCH  20  38
ATOM     38  C   UNL     1      43.244 236.561 325.413  0.00  0.00    +0.000 C 
ATOM     39  C   UNL     1      42.724 238.006 325.421  0.00  0.00    +0.000 C 
BRANCH  39  40
ATOM     40  C   UNL     1      42.276 239.222 325.410  0.00  0.00    +0.000 C 
ATOM     41  C   UNL     1      42.997 240.278 326.193  0.00  0.00    +0.000 C 
ATOM     42  C   UNL     1      41.208 239.612 324.435  0.00  0.00    +0.000 C 
ENDBRANCH  39  40
ENDBRANCH  20  38
BRANCH  25  43
ATOM     43  C   UNL     1      40.858 233.916 328.778  0.00  0.00    +0.000 C 
BRANCH  43  44
ATOM     44  C   UNL     1      40.712 234.329 330.248  0.00  0.00    +0.000 C 
ATOM     45  C   UNL     1      40.567 234.745 331.719  0.00  0.00    +0.000 C 
BRANCH  45  46
ATOM     46  C   UNL     1      40.452 235.094 332.962  0.00  0.00    +0.000 C 
ATOM     47  C   UNL     1      41.625 235.699 333.672  0.00  0.00    +0.000 C 
ATOM     48  C   UNL     1      39.220 234.732 333.731  0.00  0.00    +0.000 C 
ENDBRANCH  45  46
ENDBRANCH  43  44
ENDBRANCH  25  43
TORSDOF 10
ENDMDL
MODEL 9
REMARK VINA RESULT:      -5.0     33.121     37.234
REMARK  Name = 9852185_GambogicAcid.pdbqt.pdb
REMARK  10 active torsions:
REMARK  status: ('A' for Active; 'I' for Inactive)
REMARK    1  A    between atoms: C_8  and  C_30
REMARK    2  A    between atoms: C_20  and  C_38
REMARK    3  A    between atoms: C_21  and  O_28
REMARK    4  A    between atoms: C_25  and  C_43
REMARK    5  A    between atoms: C_31  and  C_32
REMARK    6  A    between atoms: C_32  and  C_35
REMARK    7  A    between atoms: C_35  and  O_36
REMARK    8  A    between atoms: C_39  and  C_40
REMARK    9  A    between atoms: C_43  and  C_44
REMARK   10  A    between atoms: C_45  and  C_46
REMARK                            x       y       z     vdW  Elec       q    Type
REMARK                         _______ _______ _______ _____ _____    ______ ____
ROOT
ATOM      1  O   UNL     1      44.067 242.482 324.414  0.00  0.00    +0.000 OA
ATOM      2  O   UNL     1      46.732 242.317 325.493  0.00  0.00    +0.000 OA
ATOM      3  O   UNL     1      42.483 239.811 325.075  0.00  0.00    +0.000 OA
ATOM      4  O   UNL     1      48.362 238.609 326.233  0.00  0.00    +0.000 OA
ATOM      5  O   UNL     1      50.869 244.505 326.319  0.00  0.00    +0.000 OA
ATOM      6  C   UNL     1      45.980 241.195 325.052  0.00  0.00    +0.000 C 
ATOM      7  C   UNL     1      45.802 241.159 323.492  0.00  0.00    +0.000 C 
ATOM      8  C   UNL     1      44.432 241.406 325.292  0.00  0.00    +0.000 C 
ATOM      9  C   UNL     1      44.891 242.365 323.242  0.00  0.00    +0.000 C 
ATOM     10  C   UNL     1      45.281 239.833 323.154  0.00  0.00    +0.000 C 
ATOM     11  C   UNL     1      44.629 239.052 324.191  0.00  0.00    +0.000 C 
ATOM     12  C   UNL     1      46.454 239.852 325.636  0.00  0.00    +0.000 C 
ATOM     13  C   UNL     1      43.667 240.050 324.896  0.00  0.00    +0.000 C 
ATOM     14  C   UNL     1      45.647 238.770 325.170  0.00  0.00    +0.000 C 
ATOM     15  C   UNL     1      43.973 242.153 322.029  0.00  0.00    +0.000 C 
ATOM     16  C   UNL     1      45.734 243.638 323.064  0.00  0.00    +0.000 C 
ATOM     17  C   UNL     1      47.859 239.702 326.007  0.00  0.00    +0.000 C 
ATOM     18  C   UNL     1      48.055 242.167 325.808  0.00  0.00    +0.000 A 
ATOM     19  C   UNL     1      48.662 240.930 326.068  0.00  0.00    +0.000 A 
ATOM     20  C   UNL     1      48.809 243.357 325.907  0.00  0.00    +0.000 A 
ATOM     21  C   UNL     1      50.025 240.861 326.401  0.00  0.00    +0.000 A 
ATOM     22  C   UNL     1      50.166 243.300 326.243  0.00  0.00    +0.000 A 
ATOM     23  C   UNL     1      50.765 242.037 326.484  0.00  0.00    +0.000 A 
ATOM     24  C   UNL     1      52.139 242.113 326.820  0.00  0.00    +0.000 C 
ATOM     25  C   UNL     1      52.290 244.520 326.742  0.00  0.00    +0.000 C 
ATOM     26  C   UNL     1      52.738 243.138 326.923  0.00  0.00    +0.000 C 
ATOM     27  C   UNL     1      52.353 245.331 328.061  0.00  0.00    +0.000 C 
ENDROOT
BRANCH  21  28
ATOM     28  O   UNL     1      50.668 239.678 326.652  0.00  0.00    +0.000 OA
ATOM     29  H   UNL     1      50.055 239.054 327.101  0.00  0.00    +0.000 HD
ENDBRANCH  21  28
BRANCH   8  30
ATOM     30  C   UNL     1      44.126 241.783 326.679  0.00  0.00    +0.000 C 
ATOM     31  C   UNL     1      43.854 242.156 328.145  0.00  0.00    +0.000 C 
BRANCH  31  32
ATOM     32  C   UNL     1      43.657 242.430 329.403  0.00  0.00    +0.000 C 
ATOM     33  C   UNL     1      42.210 242.683 329.782  0.00  0.00    +0.000 C 
BRANCH  32  35
ATOM     34  O   UNL     1      45.192 243.441 330.969  0.00  0.00    +0.000 OA
ATOM     35  C   UNL     1      44.802 242.460 330.353  0.00  0.00    +0.000 C 
BRANCH  35  36
ATOM     36  O   UNL     1      45.426 241.273 330.509  0.00  0.00    +0.000 OA
ATOM     37  H   UNL     1      44.841 240.617 330.075  0.00  0.00    +0.000 HD
ENDBRANCH  35  36
ENDBRANCH  32  35
ENDBRANCH  31  32
ENDBRANCH   8  30
BRANCH  20  38
ATOM     38  C   UNL     1      48.183 244.624 325.660  0.00  0.00    +0.000 C 
ATOM     39  C   UNL     1      47.541 245.992 325.387  0.00  0.00    +0.000 C 
BRANCH  39  40
ATOM     40  C   UNL     1      47.016 247.153 325.146  0.00  0.00    +0.000 C 
ATOM     41  C   UNL     1      47.885 248.258 324.625  0.00  0.00    +0.000 C 
ATOM     42  C   UNL     1      45.527 247.311 325.154  0.00  0.00    +0.000 C 
ENDBRANCH  39  40
ENDBRANCH  20  38
BRANCH  25  43
ATOM     43  C   UNL     1      53.049 245.202 325.677  0.00  0.00    +0.000 C 
BRANCH  43  44
ATOM     44  C   UNL     1      53.833 245.907 324.563  0.00  0.00    +0.000 C 
ATOM     45  C   UNL     1      54.621 246.613 323.450  0.00  0.00    +0.000 C 
BRANCH  45  46
ATOM     46  C   UNL     1      55.285 247.216 322.514  0.00  0.00    +0.000 C 
ATOM     47  C   UNL     1      54.896 247.010 321.082  0.00  0.00    +0.000 C 
ATOM     48  C   UNL     1      56.537 247.966 322.847  0.00  0.00    +0.000 C 
ENDBRANCH  45  46
ENDBRANCH  43  44
ENDBRANCH  25  43
TORSDOF 10
ENDMDL
