MODEL 1
REMARK VINA RESULT:      -6.0      0.000      0.000
REMARK  Name = AFLATOXIN.pdbqt.pdb
REMARK  1 active torsions:
REMARK  status: ('A' for Active; 'I' for Inactive)
REMARK    1  A    between atoms: C_15  and  O_23
REMARK                            x       y       z     vdW  Elec       q    Type
REMARK                         _______ _______ _______ _____ _____    ______ ____
ROOT
ATOM      1  O   UNL     1      61.296 224.188 325.696  0.00  0.00    +0.000 OA
ATOM      2  O   UNL     1      58.950 224.700 326.279  0.00  0.00    +0.000 OA
ATOM      3  O   UNL     1      61.540 221.337 329.436  0.00  0.00    +0.000 OA
ATOM      4  O   UNL     1      65.698 220.096 331.893  0.00  0.00    +0.000 OA
ATOM      5  O   UNL     1      61.494 219.823 331.103  0.00  0.00    +0.000 OA
ATOM      6  O   UNL     1      63.679 219.353 332.550  0.00  0.00    +0.000 OA
ATOM      7  C   UNL     1      60.100 222.892 327.230  0.00  0.00    +0.000 C 
ATOM      8  C   UNL     1      61.513 222.761 327.526  0.00  0.00    +0.000 A 
ATOM      9  C   UNL     1      60.003 223.794 326.055  0.00  0.00    +0.000 C 
ATOM     10  C   UNL     1      62.162 223.531 326.555  0.00  0.00    +0.000 A 
ATOM     11  C   UNL     1      62.239 222.103 328.500  0.00  0.00    +0.000 A 
ATOM     12  C   UNL     1      63.630 222.190 328.528  0.00  0.00    +0.000 A 
ATOM     13  C   UNL     1      59.042 223.268 328.098  0.00  0.00    +0.000 C 
ATOM     14  C   UNL     1      64.309 221.495 329.636  0.00  0.00    +0.000 A 
ATOM     15  C   UNL     1      64.267 222.945 327.503  0.00  0.00    +0.000 A 
ATOM     16  C   UNL     1      63.533 223.647 326.527  0.00  0.00    +0.000 A 
ATOM     17  C   UNL     1      65.704 221.600 329.837  0.00  0.00    +0.000 A 
ATOM     18  C   UNL     1      63.641 220.728 330.546  0.00  0.00    +0.000 A 
ATOM     19  C   UNL     1      58.589 224.160 327.444  0.00  0.00    +0.000 C 
ATOM     20  C   UNL     1      66.262 220.854 330.983  0.00  0.00    +0.000 A 
ATOM     21  C   UNL     1      62.168 220.572 330.410  0.00  0.00    +0.000 A 
ATOM     22  C   UNL     1      64.321 220.001 331.732  0.00  0.00    +0.000 A 
ENDROOT
BRANCH  15  23
ATOM     23  O   UNL     1      65.637 223.091 327.479  0.00  0.00    +0.000 OA
ATOM     24  C   UNL     1      66.165 222.645 326.255  0.00  0.00    +0.000 C 
ENDBRANCH  15  23
TORSDOF 1
ENDMDL
MODEL 2
REMARK VINA RESULT:      -5.9     23.596     26.064
REMARK  Name = AFLATOXIN.pdbqt.pdb
REMARK  1 active torsions:
REMARK  status: ('A' for Active; 'I' for Inactive)
REMARK    1  A    between atoms: C_15  and  O_23
REMARK                            x       y       z     vdW  Elec       q    Type
REMARK                         _______ _______ _______ _____ _____    ______ ____
ROOT
ATOM      1  O   UNL     1      53.174 244.616 326.296  0.00  0.00    +0.000 OA
ATOM      2  O   UNL     1      52.149 242.716 325.093  0.00  0.00    +0.000 OA
ATOM      3  O   UNL     1      50.431 243.668 330.005  0.00  0.00    +0.000 OA
ATOM      4  O   UNL     1      49.018 246.932 333.500  0.00  0.00    +0.000 OA
ATOM      5  O   UNL     1      49.254 243.002 331.806  0.00  0.00    +0.000 OA
ATOM      6  O   UNL     1      48.313 244.796 333.534  0.00  0.00    +0.000 OA
ATOM      7  C   UNL     1      51.902 243.001 327.407  0.00  0.00    +0.000 C 
ATOM      8  C   UNL     1      51.855 244.227 328.177  0.00  0.00    +0.000 A 
ATOM      9  C   UNL     1      52.758 243.283 326.228  0.00  0.00    +0.000 C 
ATOM     10  C   UNL     1      52.659 245.131 327.475  0.00  0.00    +0.000 A 
ATOM     11  C   UNL     1      51.210 244.616 329.336  0.00  0.00    +0.000 A 
ATOM     12  C   UNL     1      51.355 245.912 329.828  0.00  0.00    +0.000 A 
ATOM     13  C   UNL     1      50.824 242.212 326.925  0.00  0.00    +0.000 C 
ATOM     14  C   UNL     1      50.588 246.244 331.041  0.00  0.00    +0.000 A 
ATOM     15  C   UNL     1      52.213 246.798 329.116  0.00  0.00    +0.000 A 
ATOM     16  C   UNL     1      52.846 246.421 327.917  0.00  0.00    +0.000 A 
ATOM     17  C   UNL     1      50.563 247.554 331.572  0.00  0.00    +0.000 A 
ATOM     18  C   UNL     1      49.837 245.323 331.715  0.00  0.00    +0.000 A 
ATOM     19  C   UNL     1      51.138 242.174 325.773  0.00  0.00    +0.000 C 
ATOM     20  C   UNL     1      49.756 247.754 332.792  0.00  0.00    +0.000 A 
ATOM     21  C   UNL     1      49.803 243.922 331.217  0.00  0.00    +0.000 A 
ATOM     22  C   UNL     1      49.004 245.644 332.980  0.00  0.00    +0.000 A 
ENDROOT
BRANCH  15  23
ATOM     23  O   UNL     1      52.388 248.100 329.533  0.00  0.00    +0.000 OA
ATOM     24  C   UNL     1      53.744 248.361 329.795  0.00  0.00    +0.000 C 
ENDBRANCH  15  23
TORSDOF 1
ENDMDL
MODEL 3
REMARK VINA RESULT:      -5.8     11.435     14.813
REMARK  Name = AFLATOXIN.pdbqt.pdb
REMARK  1 active torsions:
REMARK  status: ('A' for Active; 'I' for Inactive)
REMARK    1  A    between atoms: C_15  and  O_23
REMARK                            x       y       z     vdW  Elec       q    Type
REMARK                         _______ _______ _______ _____ _____    ______ ____
ROOT
ATOM      1  O   UNL     1      70.267 222.110 339.588  0.00  0.00    +0.000 OA
ATOM      2  O   UNL     1      69.167 220.617 337.955  0.00  0.00    +0.000 OA
ATOM      3  O   UNL     1      72.981 223.795 336.128  0.00  0.00    +0.000 OA
ATOM      4  O   UNL     1      77.486 225.857 336.693  0.00  0.00    +0.000 OA
ATOM      5  O   UNL     1      74.069 224.704 334.377  0.00  0.00    +0.000 OA
ATOM      6  O   UNL     1      76.565 225.586 334.659  0.00  0.00    +0.000 OA
ATOM      7  C   UNL     1      70.504 222.422 337.284  0.00  0.00    +0.000 C 
ATOM      8  C   UNL     1      71.657 223.000 337.943  0.00  0.00    +0.000 A 
ATOM      9  C   UNL     1      69.638 221.880 338.361  0.00  0.00    +0.000 C 
ATOM     10  C   UNL     1      71.432 222.807 339.310  0.00  0.00    +0.000 A 
ATOM     11  C   UNL     1      72.814 223.615 337.503  0.00  0.00    +0.000 A 
ATOM     12  C   UNL     1      73.772 224.059 338.414  0.00  0.00    +0.000 A 
ATOM     13  C   UNL     1      70.466 221.467 336.235  0.00  0.00    +0.000 C 
ATOM     14  C   UNL     1      74.993 224.656 337.844  0.00  0.00    +0.000 A 
ATOM     15  C   UNL     1      73.496 223.888 339.800  0.00  0.00    +0.000 A 
ATOM     16  C   UNL     1      72.337 223.232 340.256  0.00  0.00    +0.000 A 
ATOM     17  C   UNL     1      76.083 225.041 338.657  0.00  0.00    +0.000 A 
ATOM     18  C   UNL     1      75.161 224.855 336.504  0.00  0.00    +0.000 A 
ATOM     19  C   UNL     1      69.747 220.666 336.755  0.00  0.00    +0.000 C 
ATOM     20  C   UNL     1      77.247 225.628 337.963  0.00  0.00    +0.000 A 
ATOM     21  C   UNL     1      74.064 224.468 335.577  0.00  0.00    +0.000 A 
ATOM     22  C   UNL     1      76.438 225.459 335.871  0.00  0.00    +0.000 A 
ENDROOT
BRANCH  15  23
ATOM     23  O   UNL     1      74.407 224.285 340.756  0.00  0.00    +0.000 OA
ATOM     24  C   UNL     1      74.690 223.231 341.641  0.00  0.00    +0.000 C 
ENDBRANCH  15  23
TORSDOF 1
ENDMDL
MODEL 4
REMARK VINA RESULT:      -5.8     23.601     25.609
REMARK  Name = AFLATOXIN.pdbqt.pdb
REMARK  1 active torsions:
REMARK  status: ('A' for Active; 'I' for Inactive)
REMARK    1  A    between atoms: C_15  and  O_23
REMARK                            x       y       z     vdW  Elec       q    Type
REMARK                         _______ _______ _______ _____ _____    ______ ____
ROOT
ATOM      1  O   UNL     1      54.916 246.135 322.920  0.00  0.00    +0.000 OA
ATOM      2  O   UNL     1      54.487 244.299 321.323  0.00  0.00    +0.000 OA
ATOM      3  O   UNL     1      52.694 243.669 326.260  0.00  0.00    +0.000 OA
ATOM      4  O   UNL     1      50.448 245.570 330.285  0.00  0.00    +0.000 OA
ATOM      5  O   UNL     1      51.825 242.326 327.846  0.00  0.00    +0.000 OA
ATOM      6  O   UNL     1      50.429 243.361 329.864  0.00  0.00    +0.000 OA
ATOM      7  C   UNL     1      54.227 244.020 323.636  0.00  0.00    +0.000 C 
ATOM      8  C   UNL     1      53.830 244.991 324.635  0.00  0.00    +0.000 A 
ATOM      9  C   UNL     1      54.925 244.781 322.571  0.00  0.00    +0.000 C 
ATOM     10  C   UNL     1      54.301 246.219 324.159  0.00  0.00    +0.000 A 
ATOM     11  C   UNL     1      53.129 244.923 325.824  0.00  0.00    +0.000 A 
ATOM     12  C   UNL     1      52.885 246.074 326.572  0.00  0.00    +0.000 A 
ATOM     13  C   UNL     1      53.429 243.056 322.967  0.00  0.00    +0.000 C 
ATOM     14  C   UNL     1      52.086 245.904 327.798  0.00  0.00    +0.000 A 
ATOM     15  C   UNL     1      53.413 247.303 326.084  0.00  0.00    +0.000 A 
ATOM     16  C   UNL     1      54.098 247.388 324.857  0.00  0.00    +0.000 A 
ATOM     17  C   UNL     1      51.678 247.009 328.580  0.00  0.00    +0.000 A 
ATOM     18  C   UNL     1      51.670 244.683 328.245  0.00  0.00    +0.000 A 
ATOM     19  C   UNL     1      53.708 243.349 321.843  0.00  0.00    +0.000 C 
ATOM     20  C   UNL     1      50.882 246.703 329.785  0.00  0.00    +0.000 A 
ATOM     21  C   UNL     1      52.051 243.469 327.475  0.00  0.00    +0.000 A 
ATOM     22  C   UNL     1      50.813 244.472 329.517  0.00  0.00    +0.000 A 
ENDROOT
BRANCH  15  23
ATOM     23  O   UNL     1      53.194 248.484 326.760  0.00  0.00    +0.000 OA
ATOM     24  C   UNL     1      54.411 249.119 327.060  0.00  0.00    +0.000 C 
ENDBRANCH  15  23
TORSDOF 1
ENDMDL
MODEL 5
REMARK VINA RESULT:      -5.6     10.098     14.095
REMARK  Name = AFLATOXIN.pdbqt.pdb
REMARK  1 active torsions:
REMARK  status: ('A' for Active; 'I' for Inactive)
REMARK    1  A    between atoms: C_15  and  O_23
REMARK                            x       y       z     vdW  Elec       q    Type
REMARK                         _______ _______ _______ _____ _____    ______ ____
ROOT
ATOM      1  O   UNL     1      68.279 219.786 338.811  0.00  0.00    +0.000 OA
ATOM      2  O   UNL     1      67.835 219.220 336.447  0.00  0.00    +0.000 OA
ATOM      3  O   UNL     1      71.457 222.958 337.390  0.00  0.00    +0.000 OA
ATOM      4  O   UNL     1      75.340 224.595 340.057  0.00  0.00    +0.000 OA
ATOM      5  O   UNL     1      72.783 224.607 336.617  0.00  0.00    +0.000 OA
ATOM      6  O   UNL     1      74.981 225.300 337.951  0.00  0.00    +0.000 OA
ATOM      7  C   UNL     1      69.009 221.154 337.062  0.00  0.00    +0.000 C 
ATOM      8  C   UNL     1      69.873 221.374 338.204  0.00  0.00    +0.000 A 
ATOM      9  C   UNL     1      68.002 220.151 337.490  0.00  0.00    +0.000 C 
ATOM     10  C   UNL     1      69.360 220.554 339.214  0.00  0.00    +0.000 A 
ATOM     11  C   UNL     1      70.996 222.147 338.430  0.00  0.00    +0.000 A 
ATOM     12  C   UNL     1      71.633 222.126 339.670  0.00  0.00    +0.000 A 
ATOM     13  C   UNL     1      69.364 220.807 335.733  0.00  0.00    +0.000 C 
ATOM     14  C   UNL     1      72.852 222.945 339.796  0.00  0.00    +0.000 A 
ATOM     15  C   UNL     1      71.064 221.315 340.693  0.00  0.00    +0.000 A 
ATOM     16  C   UNL     1      69.941 220.499 340.461  0.00  0.00    +0.000 A 
ATOM     17  C   UNL     1      73.647 222.921 340.964  0.00  0.00    +0.000 A 
ATOM     18  C   UNL     1      73.303 223.756 338.795  0.00  0.00    +0.000 A 
ATOM     19  C   UNL     1      68.669 219.842 335.613  0.00  0.00    +0.000 C 
ATOM     20  C   UNL     1      74.842 223.788 340.964  0.00  0.00    +0.000 A 
ATOM     21  C   UNL     1      72.527 223.833 337.528  0.00  0.00    +0.000 A 
ATOM     22  C   UNL     1      74.589 224.613 338.888  0.00  0.00    +0.000 A 
ENDROOT
BRANCH  15  23
ATOM     23  O   UNL     1      71.651 221.230 341.937  0.00  0.00    +0.000 OA
ATOM     24  C   UNL     1      70.832 220.516 342.827  0.00  0.00    +0.000 C 
ENDBRANCH  15  23
TORSDOF 1
ENDMDL
MODEL 6
REMARK VINA RESULT:      -5.5     23.329     25.834
REMARK  Name = AFLATOXIN.pdbqt.pdb
REMARK  1 active torsions:
REMARK  status: ('A' for Active; 'I' for Inactive)
REMARK    1  A    between atoms: C_15  and  O_23
REMARK                            x       y       z     vdW  Elec       q    Type
REMARK                         _______ _______ _______ _____ _____    ______ ____
ROOT
ATOM      1  O   UNL     1      55.872 247.046 321.545  0.00  0.00    +0.000 OA
ATOM      2  O   UNL     1      57.132 249.050 322.255  0.00  0.00    +0.000 OA
ATOM      3  O   UNL     1      53.680 247.024 325.712  0.00  0.00    +0.000 OA
ATOM      4  O   UNL     1      51.664 243.037 327.928  0.00  0.00    +0.000 OA
ATOM      5  O   UNL     1      52.518 247.226 327.632  0.00  0.00    +0.000 OA
ATOM      6  O   UNL     1      51.654 245.058 328.914  0.00  0.00    +0.000 OA
ATOM      7  C   UNL     1      55.234 248.303 323.409  0.00  0.00    +0.000 C 
ATOM      8  C   UNL     1      54.741 246.951 323.580  0.00  0.00    +0.000 A 
ATOM      9  C   UNL     1      55.934 248.328 322.101  0.00  0.00    +0.000 C 
ATOM     10  C   UNL     1      55.129 246.271 322.421  0.00  0.00    +0.000 A 
ATOM     11  C   UNL     1      54.055 246.292 324.583  0.00  0.00    +0.000 A 
ATOM     12  C   UNL     1      53.733 244.942 324.453  0.00  0.00    +0.000 A 
ATOM     13  C   UNL     1      56.031 249.076 324.292  0.00  0.00    +0.000 C 
ATOM     14  C   UNL     1      53.047 244.318 325.598  0.00  0.00    +0.000 A 
ATOM     15  C   UNL     1      54.103 244.287 323.245  0.00  0.00    +0.000 A 
ATOM     16  C   UNL     1      54.832 244.941 322.233  0.00  0.00    +0.000 A 
ATOM     17  C   UNL     1      52.768 242.933 325.634  0.00  0.00    +0.000 A 
ATOM     18  C   UNL     1      52.658 245.024 326.700  0.00  0.00    +0.000 A 
ATOM     19  C   UNL     1      56.906 249.363 323.531  0.00  0.00    +0.000 C 
ATOM     20  C   UNL     1      52.074 242.433 326.838  0.00  0.00    +0.000 A 
ATOM     21  C   UNL     1      52.922 246.487 326.745  0.00  0.00    +0.000 A 
ATOM     22  C   UNL     1      51.954 244.396 327.928  0.00  0.00    +0.000 A 
ENDROOT
BRANCH  15  23
ATOM     23  O   UNL     1      53.835 242.948 323.056  0.00  0.00    +0.000 OA
ATOM     24  C   UNL     1      53.465 242.697 321.724  0.00  0.00    +0.000 C 
ENDBRANCH  15  23
TORSDOF 1
ENDMDL
MODEL 7
REMARK VINA RESULT:      -5.5     23.658     25.473
REMARK  Name = AFLATOXIN.pdbqt.pdb
REMARK  1 active torsions:
REMARK  status: ('A' for Active; 'I' for Inactive)
REMARK    1  A    between atoms: C_15  and  O_23
REMARK                            x       y       z     vdW  Elec       q    Type
REMARK                         _______ _______ _______ _____ _____    ______ ____
ROOT
ATOM      1  O   UNL     1      52.718 242.858 322.992  0.00  0.00    +0.000 OA
ATOM      2  O   UNL     1      54.701 243.823 321.877  0.00  0.00    +0.000 OA
ATOM      3  O   UNL     1      52.952 246.272 326.226  0.00  0.00    +0.000 OA
ATOM      4  O   UNL     1      51.182 246.011 330.881  0.00  0.00    +0.000 OA
ATOM      5  O   UNL     1      53.000 248.066 327.589  0.00  0.00    +0.000 OA
ATOM      6  O   UNL     1      52.265 247.836 330.138  0.00  0.00    +0.000 OA
ATOM      7  C   UNL     1      53.485 245.008 323.493  0.00  0.00    +0.000 C 
ATOM      8  C   UNL     1      52.757 244.505 324.640  0.00  0.00    +0.000 A 
ATOM      9  C   UNL     1      53.427 243.941 322.463  0.00  0.00    +0.000 C 
ATOM     10  C   UNL     1      52.303 243.238 324.259  0.00  0.00    +0.000 A 
ATOM     11  C   UNL     1      52.487 244.995 325.904  0.00  0.00    +0.000 A 
ATOM     12  C   UNL     1      51.753 244.239 326.816  0.00  0.00    +0.000 A 
ATOM     13  C   UNL     1      54.802 245.533 323.436  0.00  0.00    +0.000 C 
ATOM     14  C   UNL     1      51.562 244.827 328.154  0.00  0.00    +0.000 A 
ATOM     15  C   UNL     1      51.268 242.971 326.387  0.00  0.00    +0.000 A 
ATOM     16  C   UNL     1      51.567 242.449 325.114  0.00  0.00    +0.000 A 
ATOM     17  C   UNL     1      50.934 244.113 329.199  0.00  0.00    +0.000 A 
ATOM     18  C   UNL     1      51.995 246.081 328.477  0.00  0.00    +0.000 A 
ATOM     19  C   UNL     1      55.233 244.827 322.573  0.00  0.00    +0.000 C 
ATOM     20  C   UNL     1      50.804 244.816 330.491  0.00  0.00    +0.000 A 
ATOM     21  C   UNL     1      52.674 246.898 327.436  0.00  0.00    +0.000 A 
ATOM     22  C   UNL     1      51.829 246.721 329.877  0.00  0.00    +0.000 A 
ENDROOT
BRANCH  15  23
ATOM     23  O   UNL     1      50.553 242.161 327.242  0.00  0.00    +0.000 OA
ATOM     24  C   UNL     1      49.293 241.854 326.700  0.00  0.00    +0.000 C 
ENDBRANCH  15  23
TORSDOF 1
ENDMDL
MODEL 8
REMARK VINA RESULT:      -5.4     10.146     13.689
REMARK  Name = AFLATOXIN.pdbqt.pdb
REMARK  1 active torsions:
REMARK  status: ('A' for Active; 'I' for Inactive)
REMARK    1  A    between atoms: C_15  and  O_23
REMARK                            x       y       z     vdW  Elec       q    Type
REMARK                         _______ _______ _______ _____ _____    ______ ____
ROOT
ATOM      1  O   UNL     1      68.209 221.378 336.896  0.00  0.00    +0.000 OA
ATOM      2  O   UNL     1      66.129 220.172 336.322  0.00  0.00    +0.000 OA
ATOM      3  O   UNL     1      69.024 218.228 340.299  0.00  0.00    +0.000 OA
ATOM      4  O   UNL     1      71.751 219.004 344.402  0.00  0.00    +0.000 OA
ATOM      5  O   UNL     1      69.452 216.552 341.743  0.00  0.00    +0.000 OA
ATOM      6  O   UNL     1      70.708 217.044 344.038  0.00  0.00    +0.000 OA
ATOM      7  C   UNL     1      67.781 219.221 337.688  0.00  0.00    +0.000 C 
ATOM      8  C   UNL     1      68.693 219.872 338.606  0.00  0.00    +0.000 A 
ATOM      9  C   UNL     1      67.507 220.203 336.609  0.00  0.00    +0.000 C 
ATOM     10  C   UNL     1      68.928 221.135 338.055  0.00  0.00    +0.000 A 
ATOM     11  C   UNL     1      69.283 219.507 339.802  0.00  0.00    +0.000 A 
ATOM     12  C   UNL     1      70.125 220.391 340.475  0.00  0.00    +0.000 A 
ATOM     13  C   UNL     1      66.540 218.591 337.965  0.00  0.00    +0.000 C 
ATOM     14  C   UNL     1      70.663 219.929 341.767  0.00  0.00    +0.000 A 
ATOM     15  C   UNL     1      70.380 221.654 339.870  0.00  0.00    +0.000 A 
ATOM     16  C   UNL     1      69.757 222.046 338.670  0.00  0.00    +0.000 A 
ATOM     17  C   UNL     1      71.437 220.773 342.596  0.00  0.00    +0.000 A 
ATOM     18  C   UNL     1      70.435 218.675 342.257  0.00  0.00    +0.000 A 
ATOM     19  C   UNL     1      65.863 219.188 337.182  0.00  0.00    +0.000 C 
ATOM     20  C   UNL     1      71.917 220.189 343.864  0.00  0.00    +0.000 A 
ATOM     21  C   UNL     1      69.622 217.726 341.449  0.00  0.00    +0.000 A 
ATOM     22  C   UNL     1      70.968 218.166 343.618  0.00  0.00    +0.000 A 
ENDROOT
BRANCH  15  23
ATOM     23  O   UNL     1      71.186 222.585 340.488  0.00  0.00    +0.000 OA
ATOM     24  C   UNL     1      72.197 223.026 339.617  0.00  0.00    +0.000 C 
ENDBRANCH  15  23
TORSDOF 1
ENDMDL
MODEL 9
REMARK VINA RESULT:      -5.3     19.263     22.742
REMARK  Name = AFLATOXIN.pdbqt.pdb
REMARK  1 active torsions:
REMARK  status: ('A' for Active; 'I' for Inactive)
REMARK    1  A    between atoms: C_15  and  O_23
REMARK                            x       y       z     vdW  Elec       q    Type
REMARK                         _______ _______ _______ _____ _____    ______ ____
ROOT
ATOM      1  O   UNL     1      45.137 233.824 322.896  0.00  0.00    +0.000 OA
ATOM      2  O   UNL     1      46.802 232.003 323.025  0.00  0.00    +0.000 OA
ATOM      3  O   UNL     1      48.298 236.765 324.775  0.00  0.00    +0.000 OA
ATOM      4  O   UNL     1      47.261 240.917 327.336  0.00  0.00    +0.000 OA
ATOM      5  O   UNL     1      49.941 238.148 325.458  0.00  0.00    +0.000 OA
ATOM      6  O   UNL     1      49.380 240.230 327.022  0.00  0.00    +0.000 OA
ATOM      7  C   UNL     1      47.403 234.256 323.274  0.00  0.00    +0.000 C 
ATOM      8  C   UNL     1      46.632 235.352 323.825  0.00  0.00    +0.000 A 
ATOM      9  C   UNL     1      46.421 233.314 322.681  0.00  0.00    +0.000 C 
ATOM     10  C   UNL     1      45.299 235.044 323.535  0.00  0.00    +0.000 A 
ATOM     11  C   UNL     1      46.950 236.500 324.525  0.00  0.00    +0.000 A 
ATOM     12  C   UNL     1      45.949 237.373 324.947  0.00  0.00    +0.000 A 
ATOM     13  C   UNL     1      48.381 233.449 323.911  0.00  0.00    +0.000 C 
ATOM     14  C   UNL     1      46.385 238.543 325.730  0.00  0.00    +0.000 A 
ATOM     15  C   UNL     1      44.605 237.056 324.601  0.00  0.00    +0.000 A 
ATOM     16  C   UNL     1      44.269 235.872 323.918  0.00  0.00    +0.000 A 
ATOM     17  C   UNL     1      45.458 239.440 326.309  0.00  0.00    +0.000 A 
ATOM     18  C   UNL     1      47.700 238.825 325.966  0.00  0.00    +0.000 A 
ATOM     19  C   UNL     1      47.913 232.378 323.662  0.00  0.00    +0.000 C 
ATOM     20  C   UNL     1      46.024 240.572 327.068  0.00  0.00    +0.000 A 
ATOM     21  C   UNL     1      48.740 237.926 325.399  0.00  0.00    +0.000 A 
ATOM     22  C   UNL     1      48.190 240.033 326.801  0.00  0.00    +0.000 A 
ENDROOT
BRANCH  15  23
ATOM     23  O   UNL     1      43.562 237.863 325.002  0.00  0.00    +0.000 OA
ATOM     24  C   UNL     1      42.440 237.092 325.348  0.00  0.00    +0.000 C 
ENDBRANCH  15  23
TORSDOF 1
ENDMDL
