MODEL 1
REMARK VINA RESULT:      -6.6      0.000      0.000
REMARK  Name = AZD4547.pdbqt.pdb
REMARK  6 active torsions:
REMARK  status: ('A' for Active; 'I' for Inactive)
REMARK    1  A    between atoms: C_3  and  C_23
REMARK    2  A    between atoms: C_8  and  C_11
REMARK    3  A    between atoms: C_12  and  C_13
REMARK    4  A    between atoms: C_15  and  O_19
REMARK    5  A    between atoms: C_17  and  O_21
REMARK    6  A    between atoms: C_26  and  N_29
REMARK                            x       y       z     vdW  Elec       q    Type
REMARK                         _______ _______ _______ _____ _____    ______ ____
ROOT
ATOM      1  O   UNL     1      64.780 223.286 327.907  0.00  0.00    +0.000 OA
ATOM      2  N   UNL     1      62.573 223.310 328.609  0.00  0.00    +0.000 N 
ATOM      3  C   UNL     1      63.882 222.882 328.637  0.00  0.00    +0.000 C 
ATOM      4  H   UNL     1      61.867 222.945 329.228  0.00  0.00    +0.000 HD
ATOM      5  C   UNL     1      62.088 224.268 327.751  0.00  0.00    +0.000 A 
ATOM      6  N   UNL     1      60.794 224.599 327.819  0.00  0.00    +0.000 NA
ATOM      7  N   UNL     1      60.655 225.540 326.867  0.00  0.00    +0.000 N 
ATOM      8  C   UNL     1      61.810 225.819 326.200  0.00  0.00    +0.000 A 
ATOM      9  H   UNL     1      59.740 225.954 326.724  0.00  0.00    +0.000 HD
ATOM     10  C   UNL     1      62.768 225.005 326.750  0.00  0.00    +0.000 A 
ENDROOT
BRANCH   3  11
ATOM     11  C   UNL     1      64.202 221.840 329.644  0.00  0.00    +0.000 A 
ATOM     12  C   UNL     1      63.248 220.859 329.913  0.00  0.00    +0.000 A 
ATOM     13  C   UNL     1      63.514 219.865 330.853  0.00  0.00    +0.000 A 
ATOM     14  C   UNL     1      64.726 219.836 331.554  0.00  0.00    +0.000 A 
ATOM     15  C   UNL     1      65.680 220.819 331.257  0.00  0.00    +0.000 A 
ATOM     16  C   UNL     1      65.420 221.816 330.318  0.00  0.00    +0.000 A 
BRANCH  14  17
ATOM     17  N   UNL     1      65.011 218.800 332.475  0.00  0.00    +0.000 N 
ATOM     18  C   UNL     1      63.911 217.918 332.902  0.00  0.00    +0.000 C 
ATOM     19  C   UNL     1      63.388 217.477 334.153  0.00  0.00    +0.000 C 
ATOM     20  N   UNL     1      64.037 217.969 335.326  0.00  0.00    +0.000 N 
ATOM     21  C   UNL     1      62.208 216.579 334.260  0.00  0.00    +0.000 C 
ATOM     22  C   UNL     1      65.143 218.854 335.155  0.00  0.00    +0.000 C 
ATOM     23  H   UNL     1      63.707 217.718 336.245  0.00  0.00    +0.000 HD
ATOM     24  C   UNL     1      65.507 219.170 333.812  0.00  0.00    +0.000 C 
ATOM     25  C   UNL     1      65.837 219.440 336.332  0.00  0.00    +0.000 C 
ENDBRANCH  14  17
ENDBRANCH   3  11
BRANCH   8  26
ATOM     26  C   UNL     1      61.943 226.767 325.157  0.00  0.00    +0.000 C 
ATOM     27  C   UNL     1      62.088 227.790 324.025  0.00  0.00    +0.000 C 
BRANCH  27  28
ATOM     28  C   UNL     1      62.224 228.734 322.967  0.00  0.00    +0.000 A 
ATOM     29  C   UNL     1      61.090 229.306 322.397  0.00  0.00    +0.000 A 
ATOM     30  C   UNL     1      61.218 230.236 321.363  0.00  0.00    +0.000 A 
ATOM     31  C   UNL     1      62.492 230.587 320.911  0.00  0.00    +0.000 A 
ATOM     32  C   UNL     1      63.632 230.012 321.476  0.00  0.00    +0.000 A 
ATOM     33  C   UNL     1      63.491 229.084 322.509  0.00  0.00    +0.000 A 
BRANCH  30  34
ATOM     34  O   UNL     1      60.171 230.865 320.736  0.00  0.00    +0.000 OA
ATOM     35  C   UNL     1      59.651 230.200 319.620  0.00  0.00    +0.000 C 
ENDBRANCH  30  34
BRANCH  32  36
ATOM     36  O   UNL     1      64.830 230.433 320.953  0.00  0.00    +0.000 OA
ATOM     37  C   UNL     1      64.948 231.816 320.756  0.00  0.00    +0.000 C 
ENDBRANCH  32  36
ENDBRANCH  27  28
ENDBRANCH   8  26
TORSDOF 6
ENDMDL
MODEL 2
REMARK VINA RESULT:      -6.5      1.200      2.745
REMARK  Name = AZD4547.pdbqt.pdb
REMARK  6 active torsions:
REMARK  status: ('A' for Active; 'I' for Inactive)
REMARK    1  A    between atoms: C_3  and  C_23
REMARK    2  A    between atoms: C_8  and  C_11
REMARK    3  A    between atoms: C_12  and  C_13
REMARK    4  A    between atoms: C_15  and  O_19
REMARK    5  A    between atoms: C_17  and  O_21
REMARK    6  A    between atoms: C_26  and  N_29
REMARK                            x       y       z     vdW  Elec       q    Type
REMARK                         _______ _______ _______ _____ _____    ______ ____
ROOT
ATOM      1  O   UNL     1      64.530 223.493 328.243  0.00  0.00    +0.000 OA
ATOM      2  N   UNL     1      62.247 223.293 328.580  0.00  0.00    +0.000 N 
ATOM      3  C   UNL     1      63.570 222.993 328.819  0.00  0.00    +0.000 C 
ATOM      4  H   UNL     1      61.489 222.852 329.078  0.00  0.00    +0.000 HD
ATOM      5  C   UNL     1      61.815 224.210 327.652  0.00  0.00    +0.000 A 
ATOM      6  N   UNL     1      60.500 224.412 327.510  0.00  0.00    +0.000 NA
ATOM      7  N   UNL     1      60.425 225.348 326.546  0.00  0.00    +0.000 N 
ATOM      8  C   UNL     1      61.638 225.748 326.073  0.00  0.00    +0.000 A 
ATOM      9  H   UNL     1      59.508 225.673 326.257  0.00  0.00    +0.000 HD
ATOM     10  C   UNL     1      62.571 225.024 326.773  0.00  0.00    +0.000 A 
ENDROOT
BRANCH   3  11
ATOM     11  C   UNL     1      63.824 221.973 329.867  0.00  0.00    +0.000 A 
ATOM     12  C   UNL     1      65.119 221.841 330.367  0.00  0.00    +0.000 A 
ATOM     13  C   UNL     1      65.395 220.894 331.351  0.00  0.00    +0.000 A 
ATOM     14  C   UNL     1      64.393 220.050 331.847  0.00  0.00    +0.000 A 
ATOM     15  C   UNL     1      63.093 220.211 331.347  0.00  0.00    +0.000 A 
ATOM     16  C   UNL     1      62.810 221.157 330.362  0.00  0.00    +0.000 A 
BRANCH  14  17
ATOM     17  N   UNL     1      64.666 219.121 332.878  0.00  0.00    +0.000 N 
ATOM     18  C   UNL     1      65.181 219.628 334.162  0.00  0.00    +0.000 C 
ATOM     19  C   UNL     1      66.287 219.320 335.007  0.00  0.00    +0.000 C 
ATOM     20  N   UNL     1      67.154 218.274 334.568  0.00  0.00    +0.000 N 
ATOM     21  C   UNL     1      66.565 220.056 336.269  0.00  0.00    +0.000 C 
ATOM     22  C   UNL     1      66.850 217.629 333.332  0.00  0.00    +0.000 C 
ATOM     23  H   UNL     1      67.970 218.017 335.103  0.00  0.00    +0.000 HD
ATOM     24  C   UNL     1      65.692 218.091 332.639  0.00  0.00    +0.000 C 
ATOM     25  C   UNL     1      67.734 216.563 332.792  0.00  0.00    +0.000 C 
ENDBRANCH  14  17
ENDBRANCH   3  11
BRANCH   8  26
ATOM     26  C   UNL     1      61.844 226.719 325.064  0.00  0.00    +0.000 C 
ATOM     27  C   UNL     1      62.068 227.766 323.968  0.00  0.00    +0.000 C 
BRANCH  27  28
ATOM     28  C   UNL     1      62.277 228.733 322.943  0.00  0.00    +0.000 A 
ATOM     29  C   UNL     1      63.573 229.101 322.590  0.00  0.00    +0.000 A 
ATOM     30  C   UNL     1      63.784 230.045 321.583  0.00  0.00    +0.000 A 
ATOM     31  C   UNL     1      62.685 230.610 320.932  0.00  0.00    +0.000 A 
ATOM     32  C   UNL     1      61.384 230.248 321.286  0.00  0.00    +0.000 A 
ATOM     33  C   UNL     1      61.186 229.303 322.295  0.00  0.00    +0.000 A 
BRANCH  30  34
ATOM     34  O   UNL     1      65.015 230.474 321.151  0.00  0.00    +0.000 OA
ATOM     35  C   UNL     1      65.948 229.463 320.895  0.00  0.00    +0.000 C 
ENDBRANCH  30  34
BRANCH  32  36
ATOM     36  O   UNL     1      60.383 230.866 320.579  0.00  0.00    +0.000 OA
ATOM     37  C   UNL     1      60.573 230.926 319.192  0.00  0.00    +0.000 C 
ENDBRANCH  32  36
ENDBRANCH  27  28
ENDBRANCH   8  26
TORSDOF 6
ENDMDL
MODEL 3
REMARK VINA RESULT:      -6.3     20.559     25.726
REMARK  Name = AZD4547.pdbqt.pdb
REMARK  6 active torsions:
REMARK  status: ('A' for Active; 'I' for Inactive)
REMARK    1  A    between atoms: C_3  and  C_23
REMARK    2  A    between atoms: C_8  and  C_11
REMARK    3  A    between atoms: C_12  and  C_13
REMARK    4  A    between atoms: C_15  and  O_19
REMARK    5  A    between atoms: C_17  and  O_21
REMARK    6  A    between atoms: C_26  and  N_29
REMARK                            x       y       z     vdW  Elec       q    Type
REMARK                         _______ _______ _______ _____ _____    ______ ____
ROOT
ATOM      1  O   UNL     1      53.166 245.437 323.199  0.00  0.00    +0.000 OA
ATOM      2  N   UNL     1      54.283 245.079 325.195  0.00  0.00    +0.000 N 
ATOM      3  C   UNL     1      54.072 245.697 323.983  0.00  0.00    +0.000 C 
ATOM      4  H   UNL     1      55.046 245.324 325.807  0.00  0.00    +0.000 HD
ATOM      5  C   UNL     1      53.493 244.076 325.703  0.00  0.00    +0.000 A 
ATOM      6  N   UNL     1      53.802 243.553 326.894  0.00  0.00    +0.000 NA
ATOM      7  N   UNL     1      52.851 242.621 327.089  0.00  0.00    +0.000 N 
ATOM      8  C   UNL     1      51.950 242.534 326.070  0.00  0.00    +0.000 A 
ATOM      9  H   UNL     1      52.874 242.076 327.945  0.00  0.00    +0.000 HD
ATOM     10  C   UNL     1      52.340 243.471 325.145  0.00  0.00    +0.000 A 
ENDROOT
BRANCH   3  11
ATOM     11  C   UNL     1      55.041 246.761 323.620  0.00  0.00    +0.000 A 
ATOM     12  C   UNL     1      55.062 247.929 324.380  0.00  0.00    +0.000 A 
ATOM     13  C   UNL     1      55.958 248.950 324.069  0.00  0.00    +0.000 A 
ATOM     14  C   UNL     1      56.840 248.836 322.986  0.00  0.00    +0.000 A 
ATOM     15  C   UNL     1      56.817 247.647 322.244  0.00  0.00    +0.000 A 
ATOM     16  C   UNL     1      55.923 246.621 322.551  0.00  0.00    +0.000 A 
BRANCH  14  17
ATOM     17  N   UNL     1      57.779 249.854 322.699  0.00  0.00    +0.000 N 
ATOM     18  C   UNL     1      59.053 249.473 322.064  0.00  0.00    +0.000 C 
ATOM     19  C   UNL     1      60.433 249.710 322.333  0.00  0.00    +0.000 C 
ATOM     20  N   UNL     1      60.734 250.500 323.483  0.00  0.00    +0.000 N 
ATOM     21  C   UNL     1      61.524 249.146 321.494  0.00  0.00    +0.000 C 
ATOM     22  C   UNL     1      59.642 250.984 324.265  0.00  0.00    +0.000 C 
ATOM     23  H   UNL     1      61.689 250.689 323.748  0.00  0.00    +0.000 HD
ATOM     24  C   UNL     1      58.333 250.632 323.820  0.00  0.00    +0.000 C 
ATOM     25  C   UNL     1      59.883 251.774 325.500  0.00  0.00    +0.000 C 
ENDBRANCH  14  17
ENDBRANCH   3  11
BRANCH   8  26
ATOM     26  C   UNL     1      50.852 241.643 326.022  0.00  0.00    +0.000 C 
ATOM     27  C   UNL     1      49.660 240.681 325.971  0.00  0.00    +0.000 C 
BRANCH  27  28
ATOM     28  C   UNL     1      48.547 239.793 325.927  0.00  0.00    +0.000 A 
ATOM     29  C   UNL     1      48.713 238.494 325.456  0.00  0.00    +0.000 A 
ATOM     30  C   UNL     1      47.626 237.618 325.415  0.00  0.00    +0.000 A 
ATOM     31  C   UNL     1      46.376 238.058 325.856  0.00  0.00    +0.000 A 
ATOM     32  C   UNL     1      46.203 239.361 326.323  0.00  0.00    +0.000 A 
ATOM     33  C   UNL     1      47.297 240.227 326.359  0.00  0.00    +0.000 A 
BRANCH  30  34
ATOM     34  O   UNL     1      47.679 236.317 324.979  0.00  0.00    +0.000 OA
ATOM     35  C   UNL     1      48.920 235.899 324.485  0.00  0.00    +0.000 C 
ENDBRANCH  30  34
BRANCH  32  36
ATOM     36  O   UNL     1      44.931 239.682 326.729  0.00  0.00    +0.000 OA
ATOM     37  C   UNL     1      44.829 240.817 327.546  0.00  0.00    +0.000 C 
ENDBRANCH  32  36
ENDBRANCH  27  28
ENDBRANCH   8  26
TORSDOF 6
ENDMDL
MODEL 4
REMARK VINA RESULT:      -6.1      1.097      2.465
REMARK  Name = AZD4547.pdbqt.pdb
REMARK  6 active torsions:
REMARK  status: ('A' for Active; 'I' for Inactive)
REMARK    1  A    between atoms: C_3  and  C_23
REMARK    2  A    between atoms: C_8  and  C_11
REMARK    3  A    between atoms: C_12  and  C_13
REMARK    4  A    between atoms: C_15  and  O_19
REMARK    5  A    between atoms: C_17  and  O_21
REMARK    6  A    between atoms: C_26  and  N_29
REMARK                            x       y       z     vdW  Elec       q    Type
REMARK                         _______ _______ _______ _____ _____    ______ ____
ROOT
ATOM      1  O   UNL     1      64.760 223.465 327.889  0.00  0.00    +0.000 OA
ATOM      2  N   UNL     1      62.564 223.476 328.623  0.00  0.00    +0.000 N 
ATOM      3  C   UNL     1      63.882 223.079 328.653  0.00  0.00    +0.000 C 
ATOM      4  H   UNL     1      61.875 223.129 329.272  0.00  0.00    +0.000 HD
ATOM      5  C   UNL     1      62.044 224.376 327.724  0.00  0.00    +0.000 A 
ATOM      6  N   UNL     1      60.744 224.680 327.795  0.00  0.00    +0.000 NA
ATOM      7  N   UNL     1      60.569 225.566 326.797  0.00  0.00    +0.000 N 
ATOM      8  C   UNL     1      61.707 225.836 326.098  0.00  0.00    +0.000 A 
ATOM      9  H   UNL     1      59.643 225.952 326.647  0.00  0.00    +0.000 HD
ATOM     10  C   UNL     1      62.692 225.074 326.675  0.00  0.00    +0.000 A 
ENDROOT
BRANCH   3  11
ATOM     11  C   UNL     1      64.241 222.099 329.709  0.00  0.00    +0.000 A 
ATOM     12  C   UNL     1      63.213 221.485 330.424  0.00  0.00    +0.000 A 
ATOM     13  C   UNL     1      63.513 220.561 331.422  0.00  0.00    +0.000 A 
ATOM     14  C   UNL     1      64.839 220.240 331.739  0.00  0.00    +0.000 A 
ATOM     15  C   UNL     1      65.858 220.853 330.998  0.00  0.00    +0.000 A 
ATOM     16  C   UNL     1      65.565 221.779 329.997  0.00  0.00    +0.000 A 
BRANCH  14  17
ATOM     17  N   UNL     1      65.139 219.268 332.723  0.00  0.00    +0.000 N 
ATOM     18  C   UNL     1      65.921 218.085 332.323  0.00  0.00    +0.000 C 
ATOM     19  C   UNL     1      65.772 216.673 332.458  0.00  0.00    +0.000 C 
ATOM     20  N   UNL     1      64.600 216.217 333.135  0.00  0.00    +0.000 N 
ATOM     21  C   UNL     1      66.752 215.703 331.902  0.00  0.00    +0.000 C 
ATOM     22  C   UNL     1      63.682 217.199 333.616  0.00  0.00    +0.000 C 
ATOM     23  H   UNL     1      64.416 215.232 333.248  0.00  0.00    +0.000 HD
ATOM     24  C   UNL     1      64.023 218.563 333.375  0.00  0.00    +0.000 C 
ATOM     25  C   UNL     1      62.421 216.795 334.289  0.00  0.00    +0.000 C 
ENDBRANCH  14  17
ENDBRANCH   3  11
BRANCH   8  26
ATOM     26  C   UNL     1      61.803 226.730 325.005  0.00  0.00    +0.000 C 
ATOM     27  C   UNL     1      61.905 227.701 323.823  0.00  0.00    +0.000 C 
BRANCH  27  28
ATOM     28  C   UNL     1      61.995 228.610 322.730  0.00  0.00    +0.000 A 
ATOM     29  C   UNL     1      63.180 229.303 322.499  0.00  0.00    +0.000 A 
ATOM     30  C   UNL     1      63.275 230.192 321.426  0.00  0.00    +0.000 A 
ATOM     31  C   UNL     1      62.173 230.372 320.587  0.00  0.00    +0.000 A 
ATOM     32  C   UNL     1      60.981 229.684 320.818  0.00  0.00    +0.000 A 
ATOM     33  C   UNL     1      60.899 228.798 321.894  0.00  0.00    +0.000 A 
BRANCH  30  34
ATOM     34  O   UNL     1      64.394 230.919 321.102  0.00  0.00    +0.000 OA
ATOM     35  C   UNL     1      64.524 231.250 319.748  0.00  0.00    +0.000 C 
ENDBRANCH  30  34
BRANCH  32  36
ATOM     36  O   UNL     1      59.966 229.940 319.929  0.00  0.00    +0.000 OA
ATOM     37  C   UNL     1      60.280 229.729 318.580  0.00  0.00    +0.000 C 
ENDBRANCH  32  36
ENDBRANCH  27  28
ENDBRANCH   8  26
TORSDOF 6
ENDMDL
MODEL 5
REMARK VINA RESULT:      -5.9     11.810     14.027
REMARK  Name = AZD4547.pdbqt.pdb
REMARK  6 active torsions:
REMARK  status: ('A' for Active; 'I' for Inactive)
REMARK    1  A    between atoms: C_3  and  C_23
REMARK    2  A    between atoms: C_8  and  C_11
REMARK    3  A    between atoms: C_12  and  C_13
REMARK    4  A    between atoms: C_15  and  O_19
REMARK    5  A    between atoms: C_17  and  O_21
REMARK    6  A    between atoms: C_26  and  N_29
REMARK                            x       y       z     vdW  Elec       q    Type
REMARK                         _______ _______ _______ _____ _____    ______ ____
ROOT
ATOM      1  O   UNL     1      59.281 215.180 337.622  0.00  0.00    +0.000 OA
ATOM      2  N   UNL     1      58.580 216.996 338.876  0.00  0.00    +0.000 N 
ATOM      3  C   UNL     1      59.287 215.835 338.658  0.00  0.00    +0.000 C 
ATOM      4  H   UNL     1      58.614 217.500 339.748  0.00  0.00    +0.000 HD
ATOM      5  C   UNL     1      57.762 217.593 337.946  0.00  0.00    +0.000 A 
ATOM      6  N   UNL     1      57.126 218.721 338.278  0.00  0.00    +0.000 NA
ATOM      7  N   UNL     1      56.429 219.031 337.169  0.00  0.00    +0.000 N 
ATOM      8  C   UNL     1      56.600 218.145 336.148  0.00  0.00    +0.000 A 
ATOM      9  H   UNL     1      55.853 219.866 337.176  0.00  0.00    +0.000 HD
ATOM     10  C   UNL     1      57.466 217.190 336.621  0.00  0.00    +0.000 A 
ENDROOT
BRANCH   3  11
ATOM     11  C   UNL     1      60.117 215.358 339.793  0.00  0.00    +0.000 A 
ATOM     12  C   UNL     1      61.497 215.270 339.618  0.00  0.00    +0.000 A 
ATOM     13  C   UNL     1      62.307 214.827 340.661  0.00  0.00    +0.000 A 
ATOM     14  C   UNL     1      61.760 214.447 341.893  0.00  0.00    +0.000 A 
ATOM     15  C   UNL     1      60.372 214.560 342.057  0.00  0.00    +0.000 A 
ATOM     16  C   UNL     1      59.556 215.003 341.017  0.00  0.00    +0.000 A 
BRANCH  14  17
ATOM     17  N   UNL     1      62.588 214.040 342.966  0.00  0.00    +0.000 N 
ATOM     18  C   UNL     1      62.092 214.219 344.342  0.00  0.00    +0.000 C 
ATOM     19  C   UNL     1      62.599 214.810 345.536  0.00  0.00    +0.000 C 
ATOM     20  N   UNL     1      63.900 215.393 345.458  0.00  0.00    +0.000 N 
ATOM     21  C   UNL     1      61.820 214.861 346.802  0.00  0.00    +0.000 C 
ATOM     22  C   UNL     1      64.581 215.339 344.205  0.00  0.00    +0.000 C 
ATOM     23  H   UNL     1      64.313 215.849 346.257  0.00  0.00    +0.000 HD
ATOM     24  C   UNL     1      63.894 214.700 343.132  0.00  0.00    +0.000 C 
ATOM     25  C   UNL     1      65.920 215.965 344.041  0.00  0.00    +0.000 C 
ENDBRANCH  14  17
ENDBRANCH   3  11
BRANCH   8  26
ATOM     26  C   UNL     1      55.988 218.235 334.875  0.00  0.00    +0.000 C 
ATOM     27  C   UNL     1      55.325 218.328 333.497  0.00  0.00    +0.000 C 
BRANCH  27  28
ATOM     28  C   UNL     1      54.708 218.406 332.215  0.00  0.00    +0.000 A 
ATOM     29  C   UNL     1      53.342 218.655 332.117  0.00  0.00    +0.000 A 
ATOM     30  C   UNL     1      52.732 218.737 330.863  0.00  0.00    +0.000 A 
ATOM     31  C   UNL     1      53.506 218.571 329.713  0.00  0.00    +0.000 A 
ATOM     32  C   UNL     1      54.875 218.316 329.806  0.00  0.00    +0.000 A 
ATOM     33  C   UNL     1      55.473 218.236 331.065  0.00  0.00    +0.000 A 
BRANCH  30  34
ATOM     34  O   UNL     1      51.398 218.986 330.651  0.00  0.00    +0.000 OA
ATOM     35  C   UNL     1      50.575 218.851 331.775  0.00  0.00    +0.000 C 
ENDBRANCH  30  34
BRANCH  32  36
ATOM     36  O   UNL     1      55.535 218.170 328.611  0.00  0.00    +0.000 OA
ATOM     37  C   UNL     1      54.740 217.766 327.530  0.00  0.00    +0.000 C 
ENDBRANCH  32  36
ENDBRANCH  27  28
ENDBRANCH   8  26
TORSDOF 6
ENDMDL
MODEL 6
REMARK VINA RESULT:      -5.9     19.686     23.662
REMARK  Name = AZD4547.pdbqt.pdb
REMARK  6 active torsions:
REMARK  status: ('A' for Active; 'I' for Inactive)
REMARK    1  A    between atoms: C_3  and  C_23
REMARK    2  A    between atoms: C_8  and  C_11
REMARK    3  A    between atoms: C_12  and  C_13
REMARK    4  A    between atoms: C_15  and  O_19
REMARK    5  A    between atoms: C_17  and  O_21
REMARK    6  A    between atoms: C_26  and  N_29
REMARK                            x       y       z     vdW  Elec       q    Type
REMARK                         _______ _______ _______ _____ _____    ______ ____
ROOT
ATOM      1  O   UNL     1      48.865 241.093 327.148  0.00  0.00    +0.000 OA
ATOM      2  N   UNL     1      50.313 241.139 325.341  0.00  0.00    +0.000 N 
ATOM      3  C   UNL     1      49.262 240.642 326.079  0.00  0.00    +0.000 C 
ATOM      4  H   UNL     1      50.607 240.732 324.467  0.00  0.00    +0.000 HD
ATOM      5  C   UNL     1      51.069 242.229 325.703  0.00  0.00    +0.000 A 
ATOM      6  N   UNL     1      52.067 242.616 324.902  0.00  0.00    +0.000 NA
ATOM      7  N   UNL     1      52.588 243.683 325.535  0.00  0.00    +0.000 N 
ATOM      8  C   UNL     1      51.958 243.988 326.704  0.00  0.00    +0.000 A 
ATOM      9  H   UNL     1      53.377 244.161 325.111  0.00  0.00    +0.000 HD
ATOM     10  C   UNL     1      50.960 243.057 326.847  0.00  0.00    +0.000 A 
ENDROOT
BRANCH   3  11
ATOM     11  C   UNL     1      48.573 239.457 325.509  0.00  0.00    +0.000 A 
ATOM     12  C   UNL     1      47.247 239.592 325.099  0.00  0.00    +0.000 A 
ATOM     13  C   UNL     1      46.568 238.502 324.559  0.00  0.00    +0.000 A 
ATOM     14  C   UNL     1      47.188 237.252 324.431  0.00  0.00    +0.000 A 
ATOM     15  C   UNL     1      48.527 237.140 324.831  0.00  0.00    +0.000 A 
ATOM     16  C   UNL     1      49.213 238.228 325.371  0.00  0.00    +0.000 A 
BRANCH  14  17
ATOM     17  N   UNL     1      46.512 236.158 323.842  0.00  0.00    +0.000 N 
ATOM     18  C   UNL     1      45.390 235.549 324.577  0.00  0.00    +0.000 C 
ATOM     19  C   UNL     1      45.029 234.227 324.970  0.00  0.00    +0.000 C 
ATOM     20  N   UNL     1      45.928 233.182 324.595  0.00  0.00    +0.000 N 
ATOM     21  C   UNL     1      43.805 233.927 325.759  0.00  0.00    +0.000 C 
ATOM     22  C   UNL     1      47.101 233.541 323.867  0.00  0.00    +0.000 C 
ATOM     23  H   UNL     1      45.749 232.225 324.858  0.00  0.00    +0.000 HD
ATOM     24  C   UNL     1      47.273 234.926 323.574  0.00  0.00    +0.000 C 
ATOM     25  C   UNL     1      48.102 232.510 323.483  0.00  0.00    +0.000 C 
ENDBRANCH  14  17
ENDBRANCH   3  11
BRANCH   8  26
ATOM     26  C   UNL     1      52.301 245.060 327.563  0.00  0.00    +0.000 C 
ATOM     27  C   UNL     1      52.677 246.219 328.491  0.00  0.00    +0.000 C 
BRANCH  27  28
ATOM     28  C   UNL     1      53.035 247.296 329.353  0.00  0.00    +0.000 A 
ATOM     29  C   UNL     1      54.114 248.114 329.030  0.00  0.00    +0.000 A 
ATOM     30  C   UNL     1      54.466 249.174 329.869  0.00  0.00    +0.000 A 
ATOM     31  C   UNL     1      53.724 249.405 331.029  0.00  0.00    +0.000 A 
ATOM     32  C   UNL     1      52.646 248.583 331.360  0.00  0.00    +0.000 A 
ATOM     33  C   UNL     1      52.303 247.527 330.514  0.00  0.00    +0.000 A 
BRANCH  30  34
ATOM     34  O   UNL     1      55.503 250.046 329.643  0.00  0.00    +0.000 OA
ATOM     35  C   UNL     1      56.249 249.805 328.484  0.00  0.00    +0.000 C 
ENDBRANCH  30  34
BRANCH  32  36
ATOM     36  O   UNL     1      51.990 248.904 332.523  0.00  0.00    +0.000 OA
ATOM     37  C   UNL     1      51.846 247.856 333.442  0.00  0.00    +0.000 C 
ENDBRANCH  32  36
ENDBRANCH  27  28
ENDBRANCH   8  26
TORSDOF 6
ENDMDL
MODEL 7
REMARK VINA RESULT:      -5.9     19.665     23.615
REMARK  Name = AZD4547.pdbqt.pdb
REMARK  6 active torsions:
REMARK  status: ('A' for Active; 'I' for Inactive)
REMARK    1  A    between atoms: C_3  and  C_23
REMARK    2  A    between atoms: C_8  and  C_11
REMARK    3  A    between atoms: C_12  and  C_13
REMARK    4  A    between atoms: C_15  and  O_19
REMARK    5  A    between atoms: C_17  and  O_21
REMARK    6  A    between atoms: C_26  and  N_29
REMARK                            x       y       z     vdW  Elec       q    Type
REMARK                         _______ _______ _______ _____ _____    ______ ____
ROOT
ATOM      1  O   UNL     1      48.902 241.010 327.143  0.00  0.00    +0.000 OA
ATOM      2  N   UNL     1      50.264 241.111 325.273  0.00  0.00    +0.000 N 
ATOM      3  C   UNL     1      49.257 240.583 326.049  0.00  0.00    +0.000 C 
ATOM      4  H   UNL     1      50.523 240.724 324.379  0.00  0.00    +0.000 HD
ATOM      5  C   UNL     1      51.017 242.208 325.618  0.00  0.00    +0.000 A 
ATOM      6  N   UNL     1      51.970 242.625 324.778  0.00  0.00    +0.000 NA
ATOM      7  N   UNL     1      52.502 243.691 325.404  0.00  0.00    +0.000 N 
ATOM      8  C   UNL     1      51.923 243.966 326.606  0.00  0.00    +0.000 A 
ATOM      9  H   UNL     1      53.262 244.189 324.953  0.00  0.00    +0.000 HD
ATOM     10  C   UNL     1      50.948 243.016 326.779  0.00  0.00    +0.000 A 
ENDROOT
BRANCH   3  11
ATOM     11  C   UNL     1      48.561 239.397 325.492  0.00  0.00    +0.000 A 
ATOM     12  C   UNL     1      47.236 239.533 325.082  0.00  0.00    +0.000 A 
ATOM     13  C   UNL     1      46.551 238.441 324.554  0.00  0.00    +0.000 A 
ATOM     14  C   UNL     1      47.166 237.187 324.437  0.00  0.00    +0.000 A 
ATOM     15  C   UNL     1      48.505 237.073 324.836  0.00  0.00    +0.000 A 
ATOM     16  C   UNL     1      49.196 238.163 325.365  0.00  0.00    +0.000 A 
BRANCH  14  17
ATOM     17  N   UNL     1      46.484 236.091 323.859  0.00  0.00    +0.000 N 
ATOM     18  C   UNL     1      45.380 235.474 324.616  0.00  0.00    +0.000 C 
ATOM     19  C   UNL     1      45.035 234.149 325.013  0.00  0.00    +0.000 C 
ATOM     20  N   UNL     1      45.931 233.110 324.618  0.00  0.00    +0.000 N 
ATOM     21  C   UNL     1      43.828 233.841 325.825  0.00  0.00    +0.000 C 
ATOM     22  C   UNL     1      47.088 233.477 323.867  0.00  0.00    +0.000 C 
ATOM     23  H   UNL     1      45.764 232.152 324.882  0.00  0.00    +0.000 HD
ATOM     24  C   UNL     1      47.246 234.863 323.574  0.00  0.00    +0.000 C 
ATOM     25  C   UNL     1      48.087 232.453 323.461  0.00  0.00    +0.000 C 
ENDBRANCH  14  17
ENDBRANCH   3  11
BRANCH   8  26
ATOM     26  C   UNL     1      52.287 245.029 327.466  0.00  0.00    +0.000 C 
ATOM     27  C   UNL     1      52.678 246.182 328.397  0.00  0.00    +0.000 C 
BRANCH  27  28
ATOM     28  C   UNL     1      53.033 247.256 329.263  0.00  0.00    +0.000 A 
ATOM     29  C   UNL     1      52.431 247.367 330.514  0.00  0.00    +0.000 A 
ATOM     30  C   UNL     1      52.778 248.416 331.369  0.00  0.00    +0.000 A 
ATOM     31  C   UNL     1      53.736 249.346 330.958  0.00  0.00    +0.000 A 
ATOM     32  C   UNL     1      54.338 249.241 329.703  0.00  0.00    +0.000 A 
ATOM     33  C   UNL     1      53.982 248.189 328.858  0.00  0.00    +0.000 A 
BRANCH  30  34
ATOM     34  O   UNL     1      52.255 248.616 332.622  0.00  0.00    +0.000 OA
ATOM     35  C   UNL     1      51.304 247.675 333.034  0.00  0.00    +0.000 C 
ENDBRANCH  30  34
BRANCH  32  36
ATOM     36  O   UNL     1      55.265 250.210 329.407  0.00  0.00    +0.000 OA
ATOM     37  C   UNL     1      55.899 250.794 330.512  0.00  0.00    +0.000 C 
ENDBRANCH  32  36
ENDBRANCH  27  28
ENDBRANCH   8  26
TORSDOF 6
ENDMDL
MODEL 8
REMARK VINA RESULT:      -5.9      3.173     13.877
REMARK  Name = AZD4547.pdbqt.pdb
REMARK  6 active torsions:
REMARK  status: ('A' for Active; 'I' for Inactive)
REMARK    1  A    between atoms: C_3  and  C_23
REMARK    2  A    between atoms: C_8  and  C_11
REMARK    3  A    between atoms: C_12  and  C_13
REMARK    4  A    between atoms: C_15  and  O_19
REMARK    5  A    between atoms: C_17  and  O_21
REMARK    6  A    between atoms: C_26  and  N_29
REMARK                            x       y       z     vdW  Elec       q    Type
REMARK                         _______ _______ _______ _____ _____    ______ ____
ROOT
ATOM      1  O   UNL     1      64.596 224.113 327.071  0.00  0.00    +0.000 OA
ATOM      2  N   UNL     1      62.331 223.639 327.173  0.00  0.00    +0.000 N 
ATOM      3  C   UNL     1      63.453 224.236 326.643  0.00  0.00    +0.000 C 
ATOM      4  H   UNL     1      61.409 223.773 326.788  0.00  0.00    +0.000 HD
ATOM      5  C   UNL     1      62.337 222.806 328.266  0.00  0.00    +0.000 A 
ATOM      6  N   UNL     1      61.179 222.288 328.688  0.00  0.00    +0.000 NA
ATOM      7  N   UNL     1      61.533 221.539 329.749  0.00  0.00    +0.000 N 
ATOM      8  C   UNL     1      62.870 221.561 330.015  0.00  0.00    +0.000 A 
ATOM      9  H   UNL     1      60.810 221.034 330.250  0.00  0.00    +0.000 HD
ATOM     10  C   UNL     1      63.427 222.381 329.065  0.00  0.00    +0.000 A 
ENDROOT
BRANCH   3  11
ATOM     11  C   UNL     1      63.230 225.098 325.456  0.00  0.00    +0.000 A 
ATOM     12  C   UNL     1      64.323 225.419 324.652  0.00  0.00    +0.000 A 
ATOM     13  C   UNL     1      64.151 226.226 323.529  0.00  0.00    +0.000 A 
ATOM     14  C   UNL     1      62.893 226.742 323.192  0.00  0.00    +0.000 A 
ATOM     15  C   UNL     1      61.803 226.394 324.002  0.00  0.00    +0.000 A 
ATOM     16  C   UNL     1      61.968 225.586 325.127  0.00  0.00    +0.000 A 
BRANCH  14  17
ATOM     17  N   UNL     1      62.713 227.525 322.027  0.00  0.00    +0.000 N 
ATOM     18  C   UNL     1      63.786 228.455 321.634  0.00  0.00    +0.000 C 
ATOM     19  C   UNL     1      63.860 229.838 321.299  0.00  0.00    +0.000 C 
ATOM     20  N   UNL     1      62.634 230.571 321.331  0.00  0.00    +0.000 N 
ATOM     21  C   UNL     1      65.140 230.517 320.963  0.00  0.00    +0.000 C 
ATOM     22  C   UNL     1      61.447 229.867 321.694  0.00  0.00    +0.000 C 
ATOM     23  H   UNL     1      62.614 231.558 321.129  0.00  0.00    +0.000 HD
ATOM     24  C   UNL     1      61.592 228.480 321.992  0.00  0.00    +0.000 C 
ATOM     25  C   UNL     1      60.144 230.576 321.791  0.00  0.00    +0.000 C 
ENDBRANCH  14  17
ENDBRANCH   3  11
BRANCH   8  26
ATOM     26  C   UNL     1      63.507 220.862 331.067  0.00  0.00    +0.000 C 
ATOM     27  C   UNL     1      64.194 220.102 332.207  0.00  0.00    +0.000 C 
BRANCH  27  28
ATOM     28  C   UNL     1      64.827 219.388 333.265  0.00  0.00    +0.000 A 
ATOM     29  C   UNL     1      65.136 218.040 333.105  0.00  0.00    +0.000 A 
ATOM     30  C   UNL     1      65.761 217.336 334.137  0.00  0.00    +0.000 A 
ATOM     31  C   UNL     1      66.075 218.000 335.325  0.00  0.00    +0.000 A 
ATOM     32  C   UNL     1      65.763 219.350 335.492  0.00  0.00    +0.000 A 
ATOM     33  C   UNL     1      65.138 220.042 334.453  0.00  0.00    +0.000 A 
BRANCH  30  34
ATOM     34  O   UNL     1      66.116 216.011 334.084  0.00  0.00    +0.000 OA
ATOM     35  C   UNL     1      65.084 215.101 334.339  0.00  0.00    +0.000 C 
ENDBRANCH  30  34
BRANCH  32  36
ATOM     36  O   UNL     1      66.119 219.896 336.700  0.00  0.00    +0.000 OA
ATOM     37  C   UNL     1      67.485 220.164 336.860  0.00  0.00    +0.000 C 
ENDBRANCH  32  36
ENDBRANCH  27  28
ENDBRANCH   8  26
TORSDOF 6
ENDMDL
MODEL 9
REMARK VINA RESULT:      -5.7     19.539     21.606
REMARK  Name = AZD4547.pdbqt.pdb
REMARK  6 active torsions:
REMARK  status: ('A' for Active; 'I' for Inactive)
REMARK    1  A    between atoms: C_3  and  C_23
REMARK    2  A    between atoms: C_8  and  C_11
REMARK    3  A    between atoms: C_12  and  C_13
REMARK    4  A    between atoms: C_15  and  O_19
REMARK    5  A    between atoms: C_17  and  O_21
REMARK    6  A    between atoms: C_26  and  N_29
REMARK                            x       y       z     vdW  Elec       q    Type
REMARK                         _______ _______ _______ _____ _____    ______ ____
ROOT
ATOM      1  O   UNL     1      49.250 236.211 323.452  0.00  0.00    +0.000 OA
ATOM      2  N   UNL     1      47.637 236.462 325.095  0.00  0.00    +0.000 N 
ATOM      3  C   UNL     1      48.259 235.810 324.053  0.00  0.00    +0.000 C 
ATOM      4  H   UNL     1      46.820 236.094 325.558  0.00  0.00    +0.000 HD
ATOM      5  C   UNL     1      48.050 237.665 325.616  0.00  0.00    +0.000 A 
ATOM      6  N   UNL     1      47.360 238.199 326.629  0.00  0.00    +0.000 NA
ATOM      7  N   UNL     1      48.015 239.345 326.891  0.00  0.00    +0.000 N 
ATOM      8  C   UNL     1      49.094 239.557 326.086  0.00  0.00    +0.000 A 
ATOM      9  H   UNL     1      47.673 239.940 327.638  0.00  0.00    +0.000 HD
ATOM     10  C   UNL     1      49.147 238.478 325.238  0.00  0.00    +0.000 A 
ENDROOT
BRANCH   3  11
ATOM     11  C   UNL     1      47.655 234.518 323.644  0.00  0.00    +0.000 A 
ATOM     12  C   UNL     1      46.293 234.319 323.865  0.00  0.00    +0.000 A 
ATOM     13  C   UNL     1      45.693 233.119 323.493  0.00  0.00    +0.000 A 
ATOM     14  C   UNL     1      46.437 232.086 322.909  0.00  0.00    +0.000 A 
ATOM     15  C   UNL     1      47.801 232.310 322.677  0.00  0.00    +0.000 A 
ATOM     16  C   UNL     1      48.408 233.510 323.046  0.00  0.00    +0.000 A 
BRANCH  14  17
ATOM     17  N   UNL     1      45.816 230.885 322.491  0.00  0.00    +0.000 N 
ATOM     18  C   UNL     1      44.869 230.940 321.365  0.00  0.00    +0.000 C 
ATOM     19  C   UNL     1      43.534 230.493 321.135  0.00  0.00    +0.000 C 
ATOM     20  N   UNL     1      42.891 229.819 322.218  0.00  0.00    +0.000 N 
ATOM     21  C   UNL     1      42.814 230.734 319.857  0.00  0.00    +0.000 C 
ATOM     22  C   UNL     1      43.627 229.650 323.429  0.00  0.00    +0.000 C 
ATOM     23  H   UNL     1      41.940 229.496 322.136  0.00  0.00    +0.000 HD
ATOM     24  C   UNL     1      44.953 230.173 323.449  0.00  0.00    +0.000 C 
ATOM     25  C   UNL     1      43.004 228.998 324.611  0.00  0.00    +0.000 C 
ENDBRANCH  14  17
ENDBRANCH   3  11
BRANCH   8  26
ATOM     26  C   UNL     1      49.955 240.678 326.149  0.00  0.00    +0.000 C 
ATOM     27  C   UNL     1      50.886 241.894 326.216  0.00  0.00    +0.000 C 
BRANCH  27  28
ATOM     28  C   UNL     1      51.744 243.029 326.274  0.00  0.00    +0.000 A 
ATOM     29  C   UNL     1      52.709 243.221 325.290  0.00  0.00    +0.000 A 
ATOM     30  C   UNL     1      53.550 244.335 325.339  0.00  0.00    +0.000 A 
ATOM     31  C   UNL     1      53.408 245.254 326.381  0.00  0.00    +0.000 A 
ATOM     32  C   UNL     1      52.445 245.064 327.373  0.00  0.00    +0.000 A 
ATOM     33  C   UNL     1      51.611 243.946 327.313  0.00  0.00    +0.000 A 
BRANCH  30  34
ATOM     34  O   UNL     1      54.528 244.625 324.419  0.00  0.00    +0.000 OA
ATOM     35  C   UNL     1      54.158 244.466 323.079  0.00  0.00    +0.000 C 
ENDBRANCH  30  34
BRANCH  32  36
ATOM     36  O   UNL     1      52.397 246.031 328.346  0.00  0.00    +0.000 OA
ATOM     37  C   UNL     1      51.390 245.867 329.307  0.00  0.00    +0.000 C 
ENDBRANCH  32  36
ENDBRANCH  27  28
ENDBRANCH   8  26
TORSDOF 6
ENDMDL
