REMARK  Name = AZD4547.pdbqt.pdb
REMARK  6 active torsions:
REMARK  status: ('A' for Active; 'I' for Inactive)
REMARK    1  A    between atoms: C_3  and  C_23
REMARK    2  A    between atoms: C_8  and  C_11
REMARK    3  A    between atoms: C_12  and  C_13
REMARK    4  A    between atoms: C_15  and  O_19
REMARK    5  A    between atoms: C_17  and  O_21
REMARK    6  A    between atoms: C_26  and  N_29
REMARK                            x       y       z     vdW  Elec       q    Type
REMARK                         _______ _______ _______ _____ _____    ______ ____
ROOT
ATOM      1  O   UNL     1       1.059  -0.970  -0.407  0.00  0.00    +0.000 OA
ATOM      2  N   UNL     1       0.799   1.329  -0.313  0.00  0.00    +0.000 N 
ATOM      3  C   UNL     1       1.528   0.162  -0.360  0.00  0.00    +0.000 C 
ATOM      4  H   UNL     1       1.230   2.240  -0.272  0.00  0.00    +0.000 HD
ATOM      5  C   UNL     1      -0.574   1.388  -0.318  0.00  0.00    +0.000 A 
ATOM      6  N   UNL     1      -1.168   2.585  -0.267  0.00  0.00    +0.000 NA
ATOM      7  N   UNL     1      -2.481   2.290  -0.288  0.00  0.00    +0.000 N 
ATOM      8  C   UNL     1      -2.742   0.954  -0.352  0.00  0.00    +0.000 A 
ATOM      9  H   UNL     1      -3.150   3.052  -0.257  0.00  0.00    +0.000 HD
ATOM     10  C   UNL     1      -1.518   0.333  -0.372  0.00  0.00    +0.000 A 
ENDROOT
BRANCH   3  11
ATOM     11  C   UNL     1       3.004   0.318  -0.349  0.00  0.00    +0.000 A 
ATOM     12  C   UNL     1       3.795  -0.829  -0.398  0.00  0.00    +0.000 A 
ATOM     13  C   UNL     1       5.184  -0.721  -0.389  0.00  0.00    +0.000 A 
ATOM     14  C   UNL     1       5.814   0.528  -0.316  0.00  0.00    +0.000 A 
ATOM     15  C   UNL     1       5.003   1.671  -0.286  0.00  0.00    +0.000 A 
ATOM     16  C   UNL     1       3.612   1.570  -0.295  0.00  0.00    +0.000 A 
BRANCH  14  17
ATOM     17  N   UNL     1       7.224   0.638  -0.352  0.00  0.00    +0.000 N 
ATOM     18  C   UNL     1       8.027  -0.444   0.244  0.00  0.00    +0.000 C 
ATOM     19  C   UNL     1       9.092  -0.518   1.189  0.00  0.00    +0.000 C 
ATOM     20  N   UNL     1       9.546   0.720   1.738  0.00  0.00    +0.000 N 
ATOM     21  C   UNL     1       9.694  -1.806   1.624  0.00  0.00    +0.000 C 
ATOM     22  C   UNL     1       8.904   1.918   1.303  0.00  0.00    +0.000 C 
ATOM     23  H   UNL     1      10.280   0.743   2.429  0.00  0.00    +0.000 HD
ATOM     24  C   UNL     1       7.856   1.770   0.347  0.00  0.00    +0.000 C 
ATOM     25  C   UNL     1       9.295   3.237   1.866  0.00  0.00    +0.000 C 
ENDBRANCH  14  17
ENDBRANCH   3  11
BRANCH   8  26
ATOM     26  C   UNL     1      -4.032   0.373  -0.389  0.00  0.00    +0.000 C 
ATOM     27  C   UNL     1      -5.427  -0.260  -0.429  0.00  0.00    +0.000 C 
BRANCH  27  28
ATOM     28  C   UNL     1      -6.720  -0.857  -0.466  0.00  0.00    +0.000 A 
ATOM     29  C   UNL     1      -7.199  -1.402  -1.654  0.00  0.00    +0.000 A 
ATOM     30  C   UNL     1      -8.464  -1.993  -1.695  0.00  0.00    +0.000 A 
ATOM     31  C   UNL     1      -9.238  -2.035  -0.533  0.00  0.00    +0.000 A 
ATOM     32  C   UNL     1      -8.764  -1.485   0.659  0.00  0.00    +0.000 A 
ATOM     33  C   UNL     1      -7.498  -0.897   0.687  0.00  0.00    +0.000 A 
BRANCH  30  34
ATOM     34  O   UNL     1      -9.030  -2.566  -2.807  0.00  0.00    +0.000 OA
ATOM     35  C   UNL     1      -8.298  -2.429  -3.992  0.00  0.00    +0.000 C 
ENDBRANCH  30  34
BRANCH  32  36
ATOM     36  O   UNL     1      -9.610  -1.584   1.736  0.00  0.00    +0.000 OA
ATOM     37  C   UNL     1      -9.175  -0.943   2.904  0.00  0.00    +0.000 C 
ENDBRANCH  32  36
ENDBRANCH  27  28
ENDBRANCH   8  26
TORSDOF 6
