MODEL 1
REMARK VINA RESULT:      -5.4      0.000      0.000
REMARK  Name = Belinostat.pdbqt.pdb
REMARK  6 active torsions:
REMARK  status: ('A' for Active; 'I' for Inactive)
REMARK    1  A    between atoms: C_1  and  S_7
REMARK    2  A    between atoms: C_3  and  C_18
REMARK    3  A    between atoms: S_7  and  N_10
REMARK    4  A    between atoms: N_10  and  C_12
REMARK    5  A    between atoms: C_19  and  C_20
REMARK    6  A    between atoms: N_22  and  O_24
REMARK                            x       y       z     vdW  Elec       q    Type
REMARK                         _______ _______ _______ _____ _____    ______ ____
ROOT
ATOM      1  C   UNL     1      62.854 226.858 324.342  0.00  0.00    +0.000 A 
ATOM      2  C   UNL     1      61.720 227.041 323.559  0.00  0.00    +0.000 A 
ATOM      3  C   UNL     1      61.805 227.843 322.425  0.00  0.00    +0.000 A 
ATOM      4  C   UNL     1      64.073 227.433 324.001  0.00  0.00    +0.000 A 
ATOM      5  C   UNL     1      63.017 228.439 322.077  0.00  0.00    +0.000 A 
ATOM      6  C   UNL     1      64.150 228.233 322.864  0.00  0.00    +0.000 A 
ENDROOT
BRANCH   1   7
ATOM      7  S   UNL     1      62.768 225.816 325.753  0.00  0.00    +0.000 S 
ATOM      8  O   UNL     1      63.623 226.400 326.764  0.00  0.00    +0.000 OA
ATOM      9  O   UNL     1      62.950 224.449 325.317  0.00  0.00    +0.000 OA
BRANCH   7  10
ATOM     10  N   UNL     1      61.194 226.018 326.290  0.00  0.00    +0.000 N 
ATOM     11  H   UNL     1      60.763 226.899 326.014  0.00  0.00    +0.000 HD
BRANCH  10  12
ATOM     12  C   UNL     1      60.371 224.940 326.721  0.00  0.00    +0.000 A 
ATOM     13  C   UNL     1      60.495 224.352 327.978  0.00  0.00    +0.000 A 
ATOM     14  C   UNL     1      59.610 223.355 328.381  0.00  0.00    +0.000 A 
ATOM     15  C   UNL     1      58.577 222.960 327.536  0.00  0.00    +0.000 A 
ATOM     16  C   UNL     1      58.425 223.569 326.293  0.00  0.00    +0.000 A 
ATOM     17  C   UNL     1      59.313 224.565 325.894  0.00  0.00    +0.000 A 
ENDBRANCH  10  12
ENDBRANCH   7  10
ENDBRANCH   1   7
BRANCH   3  18
ATOM     18  C   UNL     1      60.648 228.053 321.617  0.00  0.00    +0.000 C 
ATOM     19  C   UNL     1      59.677 228.233 320.935  0.00  0.00    +0.000 C 
BRANCH  19  20
ATOM     20  C   UNL     1      58.510 228.448 320.115  0.00  0.00    +0.000 C 
ATOM     21  O   UNL     1      58.559 229.200 319.149  0.00  0.00    +0.000 OA
ATOM     22  N   UNL     1      57.386 227.764 320.483  0.00  0.00    +0.000 N 
ATOM     23  H   UNL     1      57.344 227.095 321.243  0.00  0.00    +0.000 HD
BRANCH  22  24
ATOM     24  O   UNL     1      56.237 227.912 319.676  0.00  0.00    +0.000 OA
ATOM     25  H   UNL     1      56.569 228.450 318.924  0.00  0.00    +0.000 HD
ENDBRANCH  22  24
ENDBRANCH  19  20
ENDBRANCH   3  18
TORSDOF 6
ENDMDL
MODEL 2
REMARK VINA RESULT:      -5.2     15.509     18.239
REMARK  Name = Belinostat.pdbqt.pdb
REMARK  6 active torsions:
REMARK  status: ('A' for Active; 'I' for Inactive)
REMARK    1  A    between atoms: C_1  and  S_7
REMARK    2  A    between atoms: C_3  and  C_18
REMARK    3  A    between atoms: S_7  and  N_10
REMARK    4  A    between atoms: N_10  and  C_12
REMARK    5  A    between atoms: C_19  and  C_20
REMARK    6  A    between atoms: N_22  and  O_24
REMARK                            x       y       z     vdW  Elec       q    Type
REMARK                         _______ _______ _______ _____ _____    ______ ____
ROOT
ATOM      1  C   UNL     1      48.575 239.572 324.797  0.00  0.00    +0.000 A 
ATOM      2  C   UNL     1      48.405 238.194 324.860  0.00  0.00    +0.000 A 
ATOM      3  C   UNL     1      47.950 237.518 323.732  0.00  0.00    +0.000 A 
ATOM      4  C   UNL     1      48.330 240.283 323.627  0.00  0.00    +0.000 A 
ATOM      5  C   UNL     1      47.685 238.217 322.555  0.00  0.00    +0.000 A 
ATOM      6  C   UNL     1      47.877 239.599 322.502  0.00  0.00    +0.000 A 
ENDROOT
BRANCH   1   7
ATOM      7  S   UNL     1      49.187 240.430 326.202  0.00  0.00    +0.000 S 
ATOM      8  O   UNL     1      50.304 239.665 326.713  0.00  0.00    +0.000 OA
ATOM      9  O   UNL     1      48.064 240.770 327.049  0.00  0.00    +0.000 OA
BRANCH   7  10
ATOM     10  N   UNL     1      49.831 241.832 325.551  0.00  0.00    +0.000 N 
ATOM     11  H   UNL     1      49.200 242.339 324.932  0.00  0.00    +0.000 HD
BRANCH  10  12
ATOM     12  C   UNL     1      50.963 242.500 326.098  0.00  0.00    +0.000 A 
ATOM     13  C   UNL     1      52.152 242.670 325.391  0.00  0.00    +0.000 A 
ATOM     14  C   UNL     1      53.201 243.402 325.942  0.00  0.00    +0.000 A 
ATOM     15  C   UNL     1      53.055 243.992 327.194  0.00  0.00    +0.000 A 
ATOM     16  C   UNL     1      51.856 243.856 327.889  0.00  0.00    +0.000 A 
ATOM     17  C   UNL     1      50.810 243.123 327.336  0.00  0.00    +0.000 A 
ENDBRANCH  10  12
ENDBRANCH   7  10
ENDBRANCH   1   7
BRANCH   3  18
ATOM     18  C   UNL     1      47.756 236.106 323.782  0.00  0.00    +0.000 C 
ATOM     19  C   UNL     1      47.591 234.917 323.821  0.00  0.00    +0.000 C 
BRANCH  19  20
ATOM     20  C   UNL     1      47.393 233.490 323.867  0.00  0.00    +0.000 C 
ATOM     21  O   UNL     1      46.290 233.007 323.638  0.00  0.00    +0.000 OA
ATOM     22  N   UNL     1      48.497 232.742 324.167  0.00  0.00    +0.000 N 
ATOM     23  H   UNL     1      49.427 233.121 324.302  0.00  0.00    +0.000 HD
BRANCH  22  24
ATOM     24  O   UNL     1      48.352 231.337 324.174  0.00  0.00    +0.000 OA
ATOM     25  H   UNL     1      48.735 231.085 325.042  0.00  0.00    +0.000 HD
ENDBRANCH  22  24
ENDBRANCH  19  20
ENDBRANCH   3  18
TORSDOF 6
ENDMDL
MODEL 3
REMARK VINA RESULT:      -5.2      3.823      7.126
REMARK  Name = Belinostat.pdbqt.pdb
REMARK  6 active torsions:
REMARK  status: ('A' for Active; 'I' for Inactive)
REMARK    1  A    between atoms: C_1  and  S_7
REMARK    2  A    between atoms: C_3  and  C_18
REMARK    3  A    between atoms: S_7  and  N_10
REMARK    4  A    between atoms: N_10  and  C_12
REMARK    5  A    between atoms: C_19  and  C_20
REMARK    6  A    between atoms: N_22  and  O_24
REMARK                            x       y       z     vdW  Elec       q    Type
REMARK                         _______ _______ _______ _____ _____    ______ ____
ROOT
ATOM      1  C   UNL     1      59.115 228.922 320.068  0.00  0.00    +0.000 A 
ATOM      2  C   UNL     1      59.780 228.590 321.242  0.00  0.00    +0.000 A 
ATOM      3  C   UNL     1      60.817 229.405 321.684  0.00  0.00    +0.000 A 
ATOM      4  C   UNL     1      59.444 230.064 319.344  0.00  0.00    +0.000 A 
ATOM      5  C   UNL     1      61.171 230.544 320.962  0.00  0.00    +0.000 A 
ATOM      6  C   UNL     1      60.483 230.874 319.794  0.00  0.00    +0.000 A 
ENDROOT
BRANCH   1   7
ATOM      7  S   UNL     1      57.777 227.924 319.522  0.00  0.00    +0.000 S 
ATOM      8  O   UNL     1      58.347 226.819 318.781  0.00  0.00    +0.000 OA
ATOM      9  O   UNL     1      56.781 228.788 318.928  0.00  0.00    +0.000 OA
BRANCH   7  10
ATOM     10  N   UNL     1      57.170 227.278 320.943  0.00  0.00    +0.000 N 
ATOM     11  H   UNL     1      57.405 227.807 321.782  0.00  0.00    +0.000 HD
BRANCH  10  12
ATOM     12  C   UNL     1      56.097 226.343 320.981  0.00  0.00    +0.000 A 
ATOM     13  C   UNL     1      55.372 225.981 319.848  0.00  0.00    +0.000 A 
ATOM     14  C   UNL     1      54.386 224.999 319.926  0.00  0.00    +0.000 A 
ATOM     15  C   UNL     1      54.141 224.356 321.135  0.00  0.00    +0.000 A 
ATOM     16  C   UNL     1      54.887 224.687 322.262  0.00  0.00    +0.000 A 
ATOM     17  C   UNL     1      55.871 225.669 322.181  0.00  0.00    +0.000 A 
ENDBRANCH  10  12
ENDBRANCH   7  10
ENDBRANCH   1   7
BRANCH   3  18
ATOM     18  C   UNL     1      61.521 229.071 322.880  0.00  0.00    +0.000 C 
ATOM     19  C   UNL     1      62.110 228.789 323.888  0.00  0.00    +0.000 C 
BRANCH  19  20
ATOM     20  C   UNL     1      62.817 228.450 325.097  0.00  0.00    +0.000 C 
ATOM     21  O   UNL     1      62.335 228.712 326.193  0.00  0.00    +0.000 OA
ATOM     22  N   UNL     1      64.023 227.828 324.931  0.00  0.00    +0.000 N 
ATOM     23  H   UNL     1      64.408 227.553 324.035  0.00  0.00    +0.000 HD
BRANCH  22  24
ATOM     24  O   UNL     1      64.722 227.437 326.094  0.00  0.00    +0.000 OA
ATOM     25  H   UNL     1      64.039 227.521 326.795  0.00  0.00    +0.000 HD
ENDBRANCH  22  24
ENDBRANCH  19  20
ENDBRANCH   3  18
TORSDOF 6
ENDMDL
MODEL 4
REMARK VINA RESULT:      -5.1     28.533     30.058
REMARK  Name = Belinostat.pdbqt.pdb
REMARK  6 active torsions:
REMARK  status: ('A' for Active; 'I' for Inactive)
REMARK    1  A    between atoms: C_1  and  S_7
REMARK    2  A    between atoms: C_3  and  C_18
REMARK    3  A    between atoms: S_7  and  N_10
REMARK    4  A    between atoms: N_10  and  C_12
REMARK    5  A    between atoms: C_19  and  C_20
REMARK    6  A    between atoms: N_22  and  O_24
REMARK                            x       y       z     vdW  Elec       q    Type
REMARK                         _______ _______ _______ _____ _____    ______ ____
ROOT
ATOM      1  C   UNL     1      54.368 241.549 347.258  0.00  0.00    +0.000 A 
ATOM      2  C   UNL     1      53.163 240.886 347.461  0.00  0.00    +0.000 A 
ATOM      3  C   UNL     1      53.145 239.745 348.256  0.00  0.00    +0.000 A 
ATOM      4  C   UNL     1      55.547 241.113 347.856  0.00  0.00    +0.000 A 
ATOM      5  C   UNL     1      54.321 239.286 348.851  0.00  0.00    +0.000 A 
ATOM      6  C   UNL     1      55.520 239.971 348.651  0.00  0.00    +0.000 A 
ENDROOT
BRANCH   1   7
ATOM      7  S   UNL     1      54.395 243.013 346.289  0.00  0.00    +0.000 S 
ATOM      8  O   UNL     1      53.174 243.031 345.513  0.00  0.00    +0.000 OA
ATOM      9  O   UNL     1      55.689 243.108 345.648  0.00  0.00    +0.000 OA
BRANCH   7  10
ATOM     10  N   UNL     1      54.252 244.234 347.426  0.00  0.00    +0.000 N 
ATOM     11  H   UNL     1      54.547 245.153 347.099  0.00  0.00    +0.000 HD
BRANCH  10  12
ATOM     12  C   UNL     1      53.429 244.132 348.583  0.00  0.00    +0.000 A 
ATOM     13  C   UNL     1      52.037 244.164 348.523  0.00  0.00    +0.000 A 
ATOM     14  C   UNL     1      51.277 243.978 349.675  0.00  0.00    +0.000 A 
ATOM     15  C   UNL     1      51.908 243.731 350.891  0.00  0.00    +0.000 A 
ATOM     16  C   UNL     1      53.297 243.662 350.951  0.00  0.00    +0.000 A 
ATOM     17  C   UNL     1      54.053 243.849 349.797  0.00  0.00    +0.000 A 
ENDBRANCH  10  12
ENDBRANCH   7  10
ENDBRANCH   1   7
BRANCH   3  18
ATOM     18  C   UNL     1      51.920 239.044 348.464  0.00  0.00    +0.000 C 
ATOM     19  C   UNL     1      50.889 238.454 348.636  0.00  0.00    +0.000 C 
BRANCH  19  20
ATOM     20  C   UNL     1      49.651 237.744 348.841  0.00  0.00    +0.000 C 
ATOM     21  O   UNL     1      48.977 237.948 349.844  0.00  0.00    +0.000 OA
ATOM     22  N   UNL     1      49.296 236.863 347.859  0.00  0.00    +0.000 N 
ATOM     23  H   UNL     1      49.812 236.725 346.997  0.00  0.00    +0.000 HD
BRANCH  22  24
ATOM     24  O   UNL     1      48.066 236.185 348.002  0.00  0.00    +0.000 OA
ATOM     25  H   UNL     1      47.422 236.922 348.086  0.00  0.00    +0.000 HD
ENDBRANCH  22  24
ENDBRANCH  19  20
ENDBRANCH   3  18
TORSDOF 6
ENDMDL
MODEL 5
REMARK VINA RESULT:      -5.1     19.798     21.586
REMARK  Name = Belinostat.pdbqt.pdb
REMARK  6 active torsions:
REMARK  status: ('A' for Active; 'I' for Inactive)
REMARK    1  A    between atoms: C_1  and  S_7
REMARK    2  A    between atoms: C_3  and  C_18
REMARK    3  A    between atoms: S_7  and  N_10
REMARK    4  A    between atoms: N_10  and  C_12
REMARK    5  A    between atoms: C_19  and  C_20
REMARK    6  A    between atoms: N_22  and  O_24
REMARK                            x       y       z     vdW  Elec       q    Type
REMARK                         _______ _______ _______ _____ _____    ______ ____
ROOT
ATOM      1  C   UNL     1      66.372 239.109 342.634  0.00  0.00    +0.000 A 
ATOM      2  C   UNL     1      66.640 238.468 341.429  0.00  0.00    +0.000 A 
ATOM      3  C   UNL     1      66.372 239.133 340.237  0.00  0.00    +0.000 A 
ATOM      4  C   UNL     1      65.873 240.407 342.672  0.00  0.00    +0.000 A 
ATOM      5  C   UNL     1      65.857 240.429 340.257  0.00  0.00    +0.000 A 
ATOM      6  C   UNL     1      65.609 241.066 341.474  0.00  0.00    +0.000 A 
ENDROOT
BRANCH   1   7
ATOM      7  S   UNL     1      66.744 238.295 344.144  0.00  0.00    +0.000 S 
ATOM      8  O   UNL     1      66.511 239.247 345.208  0.00  0.00    +0.000 OA
ATOM      9  O   UNL     1      68.023 237.634 343.999  0.00  0.00    +0.000 OA
BRANCH   7  10
ATOM     10  N   UNL     1      65.538 237.140 344.270  0.00  0.00    +0.000 N 
ATOM     11  H   UNL     1      64.603 237.480 344.049  0.00  0.00    +0.000 HD
BRANCH  10  12
ATOM     12  C   UNL     1      65.793 235.739 344.270  0.00  0.00    +0.000 A 
ATOM     13  C   UNL     1      66.096 235.027 345.429  0.00  0.00    +0.000 A 
ATOM     14  C   UNL     1      66.256 233.644 345.386  0.00  0.00    +0.000 A 
ATOM     15  C   UNL     1      66.087 232.963 344.184  0.00  0.00    +0.000 A 
ATOM     16  C   UNL     1      65.749 233.664 343.029  0.00  0.00    +0.000 A 
ATOM     17  C   UNL     1      65.590 235.046 343.077  0.00  0.00    +0.000 A 
ENDBRANCH  10  12
ENDBRANCH   7  10
ENDBRANCH   1   7
BRANCH   3  18
ATOM     18  C   UNL     1      66.627 238.486 338.991  0.00  0.00    +0.000 C 
ATOM     19  C   UNL     1      66.843 237.944 337.942  0.00  0.00    +0.000 C 
BRANCH  19  20
ATOM     20  C   UNL     1      67.103 237.293 336.682  0.00  0.00    +0.000 C 
ATOM     21  O   UNL     1      67.082 236.071 336.597  0.00  0.00    +0.000 OA
ATOM     22  N   UNL     1      67.357 238.120 335.623  0.00  0.00    +0.000 N 
ATOM     23  H   UNL     1      67.321 239.132 335.663  0.00  0.00    +0.000 HD
BRANCH  22  24
ATOM     24  O   UNL     1      67.568 237.520 334.362  0.00  0.00    +0.000 OA
ATOM     25  H   UNL     1      67.044 236.692 334.427  0.00  0.00    +0.000 HD
ENDBRANCH  22  24
ENDBRANCH  19  20
ENDBRANCH   3  18
TORSDOF 6
ENDMDL
MODEL 6
REMARK VINA RESULT:      -5.1     23.109     26.165
REMARK  Name = Belinostat.pdbqt.pdb
REMARK  6 active torsions:
REMARK  status: ('A' for Active; 'I' for Inactive)
REMARK    1  A    between atoms: C_1  and  S_7
REMARK    2  A    between atoms: C_3  and  C_18
REMARK    3  A    between atoms: S_7  and  N_10
REMARK    4  A    between atoms: N_10  and  C_12
REMARK    5  A    between atoms: C_19  and  C_20
REMARK    6  A    between atoms: N_22  and  O_24
REMARK                            x       y       z     vdW  Elec       q    Type
REMARK                         _______ _______ _______ _____ _____    ______ ____
ROOT
ATOM      1  C   UNL     1      65.735 229.168 350.193  0.00  0.00    +0.000 A 
ATOM      2  C   UNL     1      65.784 229.364 348.818  0.00  0.00    +0.000 A 
ATOM      3  C   UNL     1      65.717 230.660 348.318  0.00  0.00    +0.000 A 
ATOM      4  C   UNL     1      65.650 230.239 351.078  0.00  0.00    +0.000 A 
ATOM      5  C   UNL     1      65.617 231.744 349.190  0.00  0.00    +0.000 A 
ATOM      6  C   UNL     1      65.585 231.533 350.569  0.00  0.00    +0.000 A 
ENDROOT
BRANCH   1   7
ATOM      7  S   UNL     1      65.859 227.539 350.837  0.00  0.00    +0.000 S 
ATOM      8  O   UNL     1      67.262 227.183 350.824  0.00  0.00    +0.000 OA
ATOM      9  O   UNL     1      64.872 226.714 350.175  0.00  0.00    +0.000 OA
BRANCH   7  10
ATOM     10  N   UNL     1      65.433 227.724 352.447  0.00  0.00    +0.000 N 
ATOM     11  H   UNL     1      66.051 228.335 352.980  0.00  0.00    +0.000 HD
BRANCH  10  12
ATOM     12  C   UNL     1      64.137 227.424 352.951  0.00  0.00    +0.000 A 
ATOM     13  C   UNL     1      63.040 228.262 352.760  0.00  0.00    +0.000 A 
ATOM     14  C   UNL     1      61.775 227.882 353.203  0.00  0.00    +0.000 A 
ATOM     15  C   UNL     1      61.598 226.646 353.818  0.00  0.00    +0.000 A 
ATOM     16  C   UNL     1      62.683 225.788 353.981  0.00  0.00    +0.000 A 
ATOM     17  C   UNL     1      63.945 226.172 353.537  0.00  0.00    +0.000 A 
ENDBRANCH  10  12
ENDBRANCH   7  10
ENDBRANCH   1   7
BRANCH   3  18
ATOM     18  C   UNL     1      65.752 230.879 346.909  0.00  0.00    +0.000 C 
ATOM     19  C   UNL     1      65.781 231.067 345.723  0.00  0.00    +0.000 C 
BRANCH  19  20
ATOM     20  C   UNL     1      65.816 231.293 344.299  0.00  0.00    +0.000 C 
ATOM     21  O   UNL     1      65.908 230.350 343.522  0.00  0.00    +0.000 OA
ATOM     22  N   UNL     1      65.732 232.597 343.899  0.00  0.00    +0.000 N 
ATOM     23  H   UNL     1      65.598 233.383 344.525  0.00  0.00    +0.000 HD
BRANCH  22  24
ATOM     24  O   UNL     1      65.715 232.854 342.510  0.00  0.00    +0.000 OA
ATOM     25  H   UNL     1      65.651 233.833 342.473  0.00  0.00    +0.000 HD
ENDBRANCH  22  24
ENDBRANCH  19  20
ENDBRANCH   3  18
TORSDOF 6
ENDMDL
MODEL 7
REMARK VINA RESULT:      -5.0     15.937     17.426
REMARK  Name = Belinostat.pdbqt.pdb
REMARK  6 active torsions:
REMARK  status: ('A' for Active; 'I' for Inactive)
REMARK    1  A    between atoms: C_1  and  S_7
REMARK    2  A    between atoms: C_3  and  C_18
REMARK    3  A    between atoms: S_7  and  N_10
REMARK    4  A    between atoms: N_10  and  C_12
REMARK    5  A    between atoms: C_19  and  C_20
REMARK    6  A    between atoms: N_22  and  O_24
REMARK                            x       y       z     vdW  Elec       q    Type
REMARK                         _______ _______ _______ _____ _____    ______ ____
ROOT
ATOM      1  C   UNL     1      46.301 232.962 323.137  0.00  0.00    +0.000 A 
ATOM      2  C   UNL     1      46.647 234.049 323.931  0.00  0.00    +0.000 A 
ATOM      3  C   UNL     1      47.561 234.977 323.444  0.00  0.00    +0.000 A 
ATOM      4  C   UNL     1      46.825 232.799 321.858  0.00  0.00    +0.000 A 
ATOM      5  C   UNL     1      48.108 234.821 322.170  0.00  0.00    +0.000 A 
ATOM      6  C   UNL     1      47.738 233.734 321.378  0.00  0.00    +0.000 A 
ENDROOT
BRANCH   1   7
ATOM      7  S   UNL     1      45.117 231.805 323.725  0.00  0.00    +0.000 S 
ATOM      8  O   UNL     1      45.677 230.486 323.525  0.00  0.00    +0.000 OA
ATOM      9  O   UNL     1      43.826 232.161 323.176  0.00  0.00    +0.000 OA
BRANCH   7  10
ATOM     10  N   UNL     1      45.105 232.070 325.379  0.00  0.00    +0.000 N 
ATOM     11  H   UNL     1      46.029 232.146 325.801  0.00  0.00    +0.000 HD
BRANCH  10  12
ATOM     12  C   UNL     1      43.969 232.558 326.084  0.00  0.00    +0.000 A 
ATOM     13  C   UNL     1      42.838 231.782 326.323  0.00  0.00    +0.000 A 
ATOM     14  C   UNL     1      41.787 232.281 327.089  0.00  0.00    +0.000 A 
ATOM     15  C   UNL     1      41.878 233.554 327.644  0.00  0.00    +0.000 A 
ATOM     16  C   UNL     1      43.021 234.322 327.440  0.00  0.00    +0.000 A 
ATOM     17  C   UNL     1      44.068 233.819 326.673  0.00  0.00    +0.000 A 
ENDBRANCH  10  12
ENDBRANCH   7  10
ENDBRANCH   1   7
BRANCH   3  18
ATOM     18  C   UNL     1      47.939 236.091 324.251  0.00  0.00    +0.000 C 
ATOM     19  C   UNL     1      48.258 237.027 324.932  0.00  0.00    +0.000 C 
BRANCH  19  20
ATOM     20  C   UNL     1      48.642 238.151 325.750  0.00  0.00    +0.000 C 
ATOM     21  O   UNL     1      47.803 238.762 326.401  0.00  0.00    +0.000 OA
ATOM     22  N   UNL     1      49.973 238.464 325.749  0.00  0.00    +0.000 N 
ATOM     23  H   UNL     1      50.687 237.934 325.263  0.00  0.00    +0.000 HD
BRANCH  22  24
ATOM     24  O   UNL     1      50.393 239.528 326.577  0.00  0.00    +0.000 OA
ATOM     25  H   UNL     1      49.784 239.460 327.343  0.00  0.00    +0.000 HD
ENDBRANCH  22  24
ENDBRANCH  19  20
ENDBRANCH   3  18
TORSDOF 6
ENDMDL
MODEL 8
REMARK VINA RESULT:      -5.0     15.305     17.785
REMARK  Name = Belinostat.pdbqt.pdb
REMARK  6 active torsions:
REMARK  status: ('A' for Active; 'I' for Inactive)
REMARK    1  A    between atoms: C_1  and  S_7
REMARK    2  A    between atoms: C_3  and  C_18
REMARK    3  A    between atoms: S_7  and  N_10
REMARK    4  A    between atoms: N_10  and  C_12
REMARK    5  A    between atoms: C_19  and  C_20
REMARK    6  A    between atoms: N_22  and  O_24
REMARK                            x       y       z     vdW  Elec       q    Type
REMARK                         _______ _______ _______ _____ _____    ______ ____
ROOT
ATOM      1  C   UNL     1      47.879 238.300 321.878  0.00  0.00    +0.000 A 
ATOM      2  C   UNL     1      48.630 239.023 322.797  0.00  0.00    +0.000 A 
ATOM      3  C   UNL     1      48.026 239.453 323.974  0.00  0.00    +0.000 A 
ATOM      4  C   UNL     1      46.549 237.974 322.122  0.00  0.00    +0.000 A 
ATOM      5  C   UNL     1      46.689 239.148 324.228  0.00  0.00    +0.000 A 
ATOM      6  C   UNL     1      45.952 238.407 323.303  0.00  0.00    +0.000 A 
ENDROOT
BRANCH   1   7
ATOM      7  S   UNL     1      48.642 237.717 320.408  0.00  0.00    +0.000 S 
ATOM      8  O   UNL     1      49.618 238.711 320.014  0.00  0.00    +0.000 OA
ATOM      9  O   UNL     1      47.603 237.288 319.498  0.00  0.00    +0.000 OA
BRANCH   7  10
ATOM     10  N   UNL     1      49.509 236.381 320.924  0.00  0.00    +0.000 N 
ATOM     11  H   UNL     1      50.514 236.441 320.763  0.00  0.00    +0.000 HD
BRANCH  10  12
ATOM     12  C   UNL     1      49.005 235.436 321.862  0.00  0.00    +0.000 A 
ATOM     13  C   UNL     1      48.049 234.479 321.529  0.00  0.00    +0.000 A 
ATOM     14  C   UNL     1      47.650 233.525 322.462  0.00  0.00    +0.000 A 
ATOM     15  C   UNL     1      48.227 233.509 323.728  0.00  0.00    +0.000 A 
ATOM     16  C   UNL     1      49.209 234.440 324.056  0.00  0.00    +0.000 A 
ATOM     17  C   UNL     1      49.605 235.392 323.120  0.00  0.00    +0.000 A 
ENDBRANCH  10  12
ENDBRANCH   7  10
ENDBRANCH   1   7
BRANCH   3  18
ATOM     18  C   UNL     1      48.778 240.208 324.923  0.00  0.00    +0.000 C 
ATOM     19  C   UNL     1      49.409 240.846 325.721  0.00  0.00    +0.000 C 
BRANCH  19  20
ATOM     20  C   UNL     1      50.167 241.612 326.678  0.00  0.00    +0.000 C 
ATOM     21  O   UNL     1      49.596 242.254 327.552  0.00  0.00    +0.000 OA
ATOM     22  N   UNL     1      51.526 241.561 326.544  0.00  0.00    +0.000 N 
ATOM     23  H   UNL     1      52.015 240.990 325.864  0.00  0.00    +0.000 HD
BRANCH  22  24
ATOM     24  O   UNL     1      52.303 242.261 327.494  0.00  0.00    +0.000 OA
ATOM     25  H   UNL     1      53.184 242.301 327.064  0.00  0.00    +0.000 HD
ENDBRANCH  22  24
ENDBRANCH  19  20
ENDBRANCH   3  18
TORSDOF 6
ENDMDL
MODEL 9
REMARK VINA RESULT:      -5.0     11.722     14.653
REMARK  Name = Belinostat.pdbqt.pdb
REMARK  6 active torsions:
REMARK  status: ('A' for Active; 'I' for Inactive)
REMARK    1  A    between atoms: C_1  and  S_7
REMARK    2  A    between atoms: C_3  and  C_18
REMARK    3  A    between atoms: S_7  and  N_10
REMARK    4  A    between atoms: N_10  and  C_12
REMARK    5  A    between atoms: C_19  and  C_20
REMARK    6  A    between atoms: N_22  and  O_24
REMARK                            x       y       z     vdW  Elec       q    Type
REMARK                         _______ _______ _______ _____ _____    ______ ____
ROOT
ATOM      1  C   UNL     1      68.166 220.124 335.070  0.00  0.00    +0.000 A 
ATOM      2  C   UNL     1      67.064 220.564 334.346  0.00  0.00    +0.000 A 
ATOM      3  C   UNL     1      66.924 220.165 333.021  0.00  0.00    +0.000 A 
ATOM      4  C   UNL     1      69.112 219.273 334.509  0.00  0.00    +0.000 A 
ATOM      5  C   UNL     1      67.872 219.324 332.437  0.00  0.00    +0.000 A 
ATOM      6  C   UNL     1      68.964 218.878 333.182  0.00  0.00    +0.000 A 
ENDROOT
BRANCH   1   7
ATOM      7  S   UNL     1      68.332 220.588 336.756  0.00  0.00    +0.000 S 
ATOM      8  O   UNL     1      69.206 219.618 337.379  0.00  0.00    +0.000 OA
ATOM      9  O   UNL     1      67.011 220.854 337.284  0.00  0.00    +0.000 OA
BRANCH   7  10
ATOM     10  N   UNL     1      69.194 222.023 336.681  0.00  0.00    +0.000 N 
ATOM     11  H   UNL     1      68.802 222.718 336.047  0.00  0.00    +0.000 HD
BRANCH  10  12
ATOM     12  C   UNL     1      70.125 222.428 337.678  0.00  0.00    +0.000 A 
ATOM     13  C   UNL     1      69.751 222.707 338.991  0.00  0.00    +0.000 A 
ATOM     14  C   UNL     1      70.714 223.019 339.947  0.00  0.00    +0.000 A 
ATOM     15  C   UNL     1      72.062 223.027 339.599  0.00  0.00    +0.000 A 
ATOM     16  C   UNL     1      72.445 222.714 338.298  0.00  0.00    +0.000 A 
ATOM     17  C   UNL     1      71.479 222.403 337.345  0.00  0.00    +0.000 A 
ENDBRANCH  10  12
ENDBRANCH   7  10
ENDBRANCH   1   7
BRANCH   3  18
ATOM     18  C   UNL     1      65.807 220.618 332.258  0.00  0.00    +0.000 C 
ATOM     19  C   UNL     1      64.865 221.000 331.619  0.00  0.00    +0.000 C 
BRANCH  19  20
ATOM     20  C   UNL     1      63.734 221.460 330.852  0.00  0.00    +0.000 C 
ATOM     21  O   UNL     1      63.889 222.248 329.926  0.00  0.00    +0.000 OA
ATOM     22  N   UNL     1      62.517 220.957 331.220  0.00  0.00    +0.000 N 
ATOM     23  H   UNL     1      62.379 220.261 331.944  0.00  0.00    +0.000 HD
BRANCH  22  24
ATOM     24  O   UNL     1      61.392 221.347 330.461  0.00  0.00    +0.000 OA
ATOM     25  H   UNL     1      60.969 220.487 330.246  0.00  0.00    +0.000 HD
ENDBRANCH  22  24
ENDBRANCH  19  20
ENDBRANCH   3  18
TORSDOF 6
ENDMDL
