MODEL 1
REMARK VINA RESULT:      -6.8      0.000      0.000
REMARK  Name = Benzo[a]pyrene.pdbqt.pdb
REMARK  0 active torsions:
REMARK  status: ('A' for Active; 'I' for Inactive)
REMARK                            x       y       z     vdW  Elec       q    Type
REMARK                         _______ _______ _______ _____ _____    ______ ____
ROOT
ATOM      1  C   UNL     1      57.865 217.886 335.038  0.00  0.00    +0.000 A 
ATOM      2  C   UNL     1      58.507 218.000 336.291  0.00  0.00    +0.000 A 
ATOM      3  C   UNL     1      56.622 218.519 334.811  0.00  0.00    +0.000 A 
ATOM      4  C   UNL     1      58.481 217.133 334.017  0.00  0.00    +0.000 A 
ATOM      5  C   UNL     1      56.000 218.388 333.545  0.00  0.00    +0.000 A 
ATOM      6  C   UNL     1      57.909 218.748 337.325  0.00  0.00    +0.000 A 
ATOM      7  C   UNL     1      59.748 217.367 336.512  0.00  0.00    +0.000 A 
ATOM      8  C   UNL     1      56.634 217.629 332.535  0.00  0.00    +0.000 A 
ATOM      9  C   UNL     1      57.859 217.013 332.778  0.00  0.00    +0.000 A 
ATOM     10  C   UNL     1      56.054 219.257 335.865  0.00  0.00    +0.000 A 
ATOM     11  C   UNL     1      59.707 216.512 334.250  0.00  0.00    +0.000 A 
ATOM     12  C   UNL     1      56.684 219.372 337.103  0.00  0.00    +0.000 A 
ATOM     13  C   UNL     1      60.337 216.627 335.488  0.00  0.00    +0.000 A 
ATOM     14  C   UNL     1      58.550 218.855 338.559  0.00  0.00    +0.000 A 
ATOM     15  C   UNL     1      60.373 217.486 337.753  0.00  0.00    +0.000 A 
ATOM     16  C   UNL     1      54.766 218.986 333.241  0.00  0.00    +0.000 A 
ATOM     17  C   UNL     1      56.041 217.486 331.281  0.00  0.00    +0.000 A 
ATOM     18  C   UNL     1      59.776 218.227 338.772  0.00  0.00    +0.000 A 
ATOM     19  C   UNL     1      54.178 218.840 331.987  0.00  0.00    +0.000 A 
ATOM     20  C   UNL     1      54.816 218.090 331.006  0.00  0.00    +0.000 A 
ENDROOT
TORSDOF 0
ENDMDL
MODEL 2
REMARK VINA RESULT:      -6.6     28.931     30.827
REMARK  Name = Benzo[a]pyrene.pdbqt.pdb
REMARK  0 active torsions:
REMARK  status: ('A' for Active; 'I' for Inactive)
REMARK                            x       y       z     vdW  Elec       q    Type
REMARK                         _______ _______ _______ _____ _____    ______ ____
ROOT
ATOM      1  C   UNL     1      55.210 246.386 323.216  0.00  0.00    +0.000 A 
ATOM      2  C   UNL     1      56.031 247.527 323.076  0.00  0.00    +0.000 A 
ATOM      3  C   UNL     1      54.227 246.332 324.231  0.00  0.00    +0.000 A 
ATOM      4  C   UNL     1      55.383 245.302 322.330  0.00  0.00    +0.000 A 
ATOM      5  C   UNL     1      53.418 245.175 324.348  0.00  0.00    +0.000 A 
ATOM      6  C   UNL     1      55.874 248.621 323.951  0.00  0.00    +0.000 A 
ATOM      7  C   UNL     1      57.010 247.575 322.062  0.00  0.00    +0.000 A 
ATOM      8  C   UNL     1      53.608 244.100 323.450  0.00  0.00    +0.000 A 
ATOM      9  C   UNL     1      54.581 244.173 322.457  0.00  0.00    +0.000 A 
ATOM     10  C   UNL     1      54.099 247.441 325.085  0.00  0.00    +0.000 A 
ATOM     11  C   UNL     1      56.355 245.364 321.332  0.00  0.00    +0.000 A 
ATOM     12  C   UNL     1      54.907 248.569 324.951  0.00  0.00    +0.000 A 
ATOM     13  C   UNL     1      57.163 246.492 321.198  0.00  0.00    +0.000 A 
ATOM     14  C   UNL     1      56.689 249.743 323.805  0.00  0.00    +0.000 A 
ATOM     15  C   UNL     1      57.815 248.707 321.932  0.00  0.00    +0.000 A 
ATOM     16  C   UNL     1      52.421 245.045 325.329  0.00  0.00    +0.000 A 
ATOM     17  C   UNL     1      52.822 242.952 323.547  0.00  0.00    +0.000 A 
ATOM     18  C   UNL     1      57.655 249.786 322.801  0.00  0.00    +0.000 A 
ATOM     19  C   UNL     1      51.639 243.895 325.421  0.00  0.00    +0.000 A 
ATOM     20  C   UNL     1      51.841 242.848 324.530  0.00  0.00    +0.000 A 
ENDROOT
TORSDOF 0
ENDMDL
MODEL 3
REMARK VINA RESULT:      -6.6     28.940     30.971
REMARK  Name = Benzo[a]pyrene.pdbqt.pdb
REMARK  0 active torsions:
REMARK  status: ('A' for Active; 'I' for Inactive)
REMARK                            x       y       z     vdW  Elec       q    Type
REMARK                         _______ _______ _______ _____ _____    ______ ____
ROOT
ATOM      1  C   UNL     1      54.941 246.741 323.783  0.00  0.00    +0.000 A 
ATOM      2  C   UNL     1      55.954 247.426 323.075  0.00  0.00    +0.000 A 
ATOM      3  C   UNL     1      54.569 245.430 323.409  0.00  0.00    +0.000 A 
ATOM      4  C   UNL     1      54.307 247.384 324.867  0.00  0.00    +0.000 A 
ATOM      5  C   UNL     1      53.550 244.767 324.137  0.00  0.00    +0.000 A 
ATOM      6  C   UNL     1      56.600 246.803 321.988  0.00  0.00    +0.000 A 
ATOM      7  C   UNL     1      56.321 248.735 323.452  0.00  0.00    +0.000 A 
ATOM      8  C   UNL     1      52.927 245.428 325.220  0.00  0.00    +0.000 A 
ATOM      9  C   UNL     1      53.308 246.720 325.573  0.00  0.00    +0.000 A 
ATOM     10  C   UNL     1      55.234 244.839 322.321  0.00  0.00    +0.000 A 
ATOM     11  C   UNL     1      54.681 248.677 325.229  0.00  0.00    +0.000 A 
ATOM     12  C   UNL     1      56.234 245.511 321.619  0.00  0.00    +0.000 A 
ATOM     13  C   UNL     1      55.681 249.349 324.527  0.00  0.00    +0.000 A 
ATOM     14  C   UNL     1      57.598 247.486 321.295  0.00  0.00    +0.000 A 
ATOM     15  C   UNL     1      57.322 249.401 322.746  0.00  0.00    +0.000 A 
ATOM     16  C   UNL     1      53.124 243.465 323.828  0.00  0.00    +0.000 A 
ATOM     17  C   UNL     1      51.922 244.795 325.951  0.00  0.00    +0.000 A 
ATOM     18  C   UNL     1      57.958 248.779 321.672  0.00  0.00    +0.000 A 
ATOM     19  C   UNL     1      52.119 242.837 324.562  0.00  0.00    +0.000 A 
ATOM     20  C   UNL     1      51.518 243.503 325.623  0.00  0.00    +0.000 A 
ENDROOT
TORSDOF 0
ENDMDL
MODEL 4
REMARK VINA RESULT:      -6.4     28.840     30.925
REMARK  Name = Benzo[a]pyrene.pdbqt.pdb
REMARK  0 active torsions:
REMARK  status: ('A' for Active; 'I' for Inactive)
REMARK                            x       y       z     vdW  Elec       q    Type
REMARK                         _______ _______ _______ _____ _____    ______ ____
ROOT
ATOM      1  C   UNL     1      54.361 246.301 324.150  0.00  0.00    +0.000 A 
ATOM      2  C   UNL     1      53.477 245.240 324.448  0.00  0.00    +0.000 A 
ATOM      3  C   UNL     1      55.259 246.199 323.063  0.00  0.00    +0.000 A 
ATOM      4  C   UNL     1      54.336 247.462 324.951  0.00  0.00    +0.000 A 
ATOM      5  C   UNL     1      56.134 247.279 322.787  0.00  0.00    +0.000 A 
ATOM      6  C   UNL     1      53.486 244.071 323.660  0.00  0.00    +0.000 A 
ATOM      7  C   UNL     1      52.583 245.346 325.534  0.00  0.00    +0.000 A 
ATOM      8  C   UNL     1      56.093 248.433 323.602  0.00  0.00    +0.000 A 
ATOM      9  C   UNL     1      55.201 248.513 324.668  0.00  0.00    +0.000 A 
ATOM     10  C   UNL     1      55.241 245.020 322.299  0.00  0.00    +0.000 A 
ATOM     11  C   UNL     1      53.446 247.552 326.021  0.00  0.00    +0.000 A 
ATOM     12  C   UNL     1      54.370 243.970 322.589  0.00  0.00    +0.000 A 
ATOM     13  C   UNL     1      52.576 246.503 326.311  0.00  0.00    +0.000 A 
ATOM     14  C   UNL     1      52.610 243.029 323.961  0.00  0.00    +0.000 A 
ATOM     15  C   UNL     1      51.715 244.293 325.819  0.00  0.00    +0.000 A 
ATOM     16  C   UNL     1      57.055 247.255 321.726  0.00  0.00    +0.000 A 
ATOM     17  C   UNL     1      56.946 249.507 323.349  0.00  0.00    +0.000 A 
ATOM     18  C   UNL     1      51.728 243.139 325.036  0.00  0.00    +0.000 A 
ATOM     19  C   UNL     1      57.904 248.331 321.478  0.00  0.00    +0.000 A 
ATOM     20  C   UNL     1      57.849 249.458 322.291  0.00  0.00    +0.000 A 
ENDROOT
TORSDOF 0
ENDMDL
MODEL 5
REMARK VINA RESULT:      -6.3      2.174      2.908
REMARK  Name = Benzo[a]pyrene.pdbqt.pdb
REMARK  0 active torsions:
REMARK  status: ('A' for Active; 'I' for Inactive)
REMARK                            x       y       z     vdW  Elec       q    Type
REMARK                         _______ _______ _______ _____ _____    ______ ____
ROOT
ATOM      1  C   UNL     1      56.562 217.481 336.943  0.00  0.00    +0.000 A 
ATOM      2  C   UNL     1      57.217 218.008 338.079  0.00  0.00    +0.000 A 
ATOM      3  C   UNL     1      56.505 218.224 335.742  0.00  0.00    +0.000 A 
ATOM      4  C   UNL     1      55.967 216.205 337.024  0.00  0.00    +0.000 A 
ATOM      5  C   UNL     1      55.842 217.671 334.619  0.00  0.00    +0.000 A 
ATOM      6  C   UNL     1      57.819 219.281 338.020  0.00  0.00    +0.000 A 
ATOM      7  C   UNL     1      57.271 217.262 339.275  0.00  0.00    +0.000 A 
ATOM      8  C   UNL     1      55.252 216.391 334.721  0.00  0.00    +0.000 A 
ATOM      9  C   UNL     1      55.319 215.675 335.913  0.00  0.00    +0.000 A 
ATOM     10  C   UNL     1      57.116 219.490 335.719  0.00  0.00    +0.000 A 
ATOM     11  C   UNL     1      56.028 215.479 338.213  0.00  0.00    +0.000 A 
ATOM     12  C   UNL     1      57.763 220.014 336.837  0.00  0.00    +0.000 A 
ATOM     13  C   UNL     1      56.676 216.003 339.331  0.00  0.00    +0.000 A 
ATOM     14  C   UNL     1      58.463 219.793 339.145  0.00  0.00    +0.000 A 
ATOM     15  C   UNL     1      57.920 217.791 340.390  0.00  0.00    +0.000 A 
ATOM     16  C   UNL     1      55.742 218.346 333.391  0.00  0.00    +0.000 A 
ATOM     17  C   UNL     1      54.594 215.828 333.627  0.00  0.00    +0.000 A 
ATOM     18  C   UNL     1      58.514 219.052 340.325  0.00  0.00    +0.000 A 
ATOM     19  C   UNL     1      55.083 217.778 332.302  0.00  0.00    +0.000 A 
ATOM     20  C   UNL     1      54.509 216.518 332.421  0.00  0.00    +0.000 A 
ENDROOT
TORSDOF 0
ENDMDL
MODEL 6
REMARK VINA RESULT:      -6.3      1.572      6.322
REMARK  Name = Benzo[a]pyrene.pdbqt.pdb
REMARK  0 active torsions:
REMARK  status: ('A' for Active; 'I' for Inactive)
REMARK                            x       y       z     vdW  Elec       q    Type
REMARK                         _______ _______ _______ _____ _____    ______ ____
ROOT
ATOM      1  C   UNL     1      56.130 217.802 331.597  0.00  0.00    +0.000 A 
ATOM      2  C   UNL     1      55.372 218.046 330.430  0.00  0.00    +0.000 A 
ATOM      3  C   UNL     1      55.698 218.300 332.847  0.00  0.00    +0.000 A 
ATOM      4  C   UNL     1      57.323 217.056 331.498  0.00  0.00    +0.000 A 
ATOM      5  C   UNL     1      56.478 218.040 334.001  0.00  0.00    +0.000 A 
ATOM      6  C   UNL     1      54.177 218.789 330.507  0.00  0.00    +0.000 A 
ATOM      7  C   UNL     1      55.808 217.547 329.185  0.00  0.00    +0.000 A 
ATOM      8  C   UNL     1      57.670 217.291 333.880  0.00  0.00    +0.000 A 
ATOM      9  C   UNL     1      58.079 216.809 332.640  0.00  0.00    +0.000 A 
ATOM     10  C   UNL     1      54.502 219.037 332.887  0.00  0.00    +0.000 A 
ATOM     11  C   UNL     1      57.742 216.569 330.260  0.00  0.00    +0.000 A 
ATOM     12  C   UNL     1      53.751 219.280 331.738  0.00  0.00    +0.000 A 
ATOM     13  C   UNL     1      56.991 216.812 329.111  0.00  0.00    +0.000 A 
ATOM     14  C   UNL     1      53.436 219.025 329.350  0.00  0.00    +0.000 A 
ATOM     15  C   UNL     1      55.052 217.794 328.039  0.00  0.00    +0.000 A 
ATOM     16  C   UNL     1      56.116 218.500 335.279  0.00  0.00    +0.000 A 
ATOM     17  C   UNL     1      58.453 217.023 335.003  0.00  0.00    +0.000 A 
ATOM     18  C   UNL     1      53.871 218.530 328.121  0.00  0.00    +0.000 A 
ATOM     19  C   UNL     1      56.902 218.230 336.396  0.00  0.00    +0.000 A 
ATOM     20  C   UNL     1      58.071 217.491 336.258  0.00  0.00    +0.000 A 
ENDROOT
TORSDOF 0
ENDMDL
MODEL 7
REMARK VINA RESULT:      -6.3     11.704     15.514
REMARK  Name = Benzo[a]pyrene.pdbqt.pdb
REMARK  0 active torsions:
REMARK  status: ('A' for Active; 'I' for Inactive)
REMARK                            x       y       z     vdW  Elec       q    Type
REMARK                         _______ _______ _______ _____ _____    ______ ____
ROOT
ATOM      1  C   UNL     1      70.565 220.935 340.092  0.00  0.00    +0.000 A 
ATOM      2  C   UNL     1      69.378 220.479 339.476  0.00  0.00    +0.000 A 
ATOM      3  C   UNL     1      71.201 222.112 339.637  0.00  0.00    +0.000 A 
ATOM      4  C   UNL     1      71.106 220.199 341.168  0.00  0.00    +0.000 A 
ATOM      5  C   UNL     1      72.390 222.545 340.274  0.00  0.00    +0.000 A 
ATOM      6  C   UNL     1      68.821 221.199 338.400  0.00  0.00    +0.000 A 
ATOM      7  C   UNL     1      68.748 219.304 339.934  0.00  0.00    +0.000 A 
ATOM      8  C   UNL     1      72.916 221.794 341.350  0.00  0.00    +0.000 A 
ATOM      9  C   UNL     1      72.274 220.637 341.784  0.00  0.00    +0.000 A 
ATOM     10  C   UNL     1      70.618 222.804 338.562  0.00  0.00    +0.000 A 
ATOM     11  C   UNL     1      70.471 219.040 341.611  0.00  0.00    +0.000 A 
ATOM     12  C   UNL     1      69.447 222.358 337.950  0.00  0.00    +0.000 A 
ATOM     13  C   UNL     1      69.300 218.594 340.999  0.00  0.00    +0.000 A 
ATOM     14  C   UNL     1      67.650 220.742 337.797  0.00  0.00    +0.000 A 
ATOM     15  C   UNL     1      67.577 218.864 339.318  0.00  0.00    +0.000 A 
ATOM     16  C   UNL     1      73.081 223.703 339.881  0.00  0.00    +0.000 A 
ATOM     17  C   UNL     1      74.084 222.202 341.992  0.00  0.00    +0.000 A 
ATOM     18  C   UNL     1      67.030 219.580 338.254  0.00  0.00    +0.000 A 
ATOM     19  C   UNL     1      74.248 224.106 340.526  0.00  0.00    +0.000 A 
ATOM     20  C   UNL     1      74.750 223.355 341.582  0.00  0.00    +0.000 A 
ENDROOT
TORSDOF 0
ENDMDL
MODEL 8
REMARK VINA RESULT:      -6.2      0.838      3.010
REMARK  Name = Benzo[a]pyrene.pdbqt.pdb
REMARK  0 active torsions:
REMARK  status: ('A' for Active; 'I' for Inactive)
REMARK                            x       y       z     vdW  Elec       q    Type
REMARK                         _______ _______ _______ _____ _____    ______ ____
ROOT
ATOM      1  C   UNL     1      57.327 218.163 334.602  0.00  0.00    +0.000 A 
ATOM      2  C   UNL     1      58.473 217.900 335.384  0.00  0.00    +0.000 A 
ATOM      3  C   UNL     1      57.250 217.701 333.268  0.00  0.00    +0.000 A 
ATOM      4  C   UNL     1      56.261 218.894 335.169  0.00  0.00    +0.000 A 
ATOM      5  C   UNL     1      56.088 217.980 332.507  0.00  0.00    +0.000 A 
ATOM      6  C   UNL     1      59.549 217.172 334.838  0.00  0.00    +0.000 A 
ATOM      7  C   UNL     1      58.544 218.363 336.715  0.00  0.00    +0.000 A 
ATOM      8  C   UNL     1      55.031 218.713 333.093  0.00  0.00    +0.000 A 
ATOM      9  C   UNL     1      55.127 219.160 334.408  0.00  0.00    +0.000 A 
ATOM     10  C   UNL     1      58.341 216.978 332.756  0.00  0.00    +0.000 A 
ATOM     11  C   UNL     1      56.346 219.346 336.485  0.00  0.00    +0.000 A 
ATOM     12  C   UNL     1      59.474 216.716 333.525  0.00  0.00    +0.000 A 
ATOM     13  C   UNL     1      57.479 219.083 337.254  0.00  0.00    +0.000 A 
ATOM     14  C   UNL     1      60.676 216.916 335.618  0.00  0.00    +0.000 A 
ATOM     15  C   UNL     1      59.681 218.097 337.478  0.00  0.00    +0.000 A 
ATOM     16  C   UNL     1      55.935 217.555 331.176  0.00  0.00    +0.000 A 
ATOM     17  C   UNL     1      53.879 218.999 332.362  0.00  0.00    +0.000 A 
ATOM     18  C   UNL     1      60.742 217.377 336.932  0.00  0.00    +0.000 A 
ATOM     19  C   UNL     1      54.781 217.844 330.451  0.00  0.00    +0.000 A 
ATOM     20  C   UNL     1      53.753 218.566 331.044  0.00  0.00    +0.000 A 
ENDROOT
TORSDOF 0
ENDMDL
MODEL 9
REMARK VINA RESULT:      -6.2     11.846     15.717
REMARK  Name = Benzo[a]pyrene.pdbqt.pdb
REMARK  0 active torsions:
REMARK  status: ('A' for Active; 'I' for Inactive)
REMARK                            x       y       z     vdW  Elec       q    Type
REMARK                         _______ _______ _______ _____ _____    ______ ____
ROOT
ATOM      1  C   UNL     1      70.692 221.396 339.706  0.00  0.00    +0.000 A 
ATOM      2  C   UNL     1      69.504 220.782 339.250  0.00  0.00    +0.000 A 
ATOM      3  C   UNL     1      71.352 220.907 340.856  0.00  0.00    +0.000 A 
ATOM      4  C   UNL     1      71.209 222.502 339.000  0.00  0.00    +0.000 A 
ATOM      5  C   UNL     1      72.542 221.541 341.291  0.00  0.00    +0.000 A 
ATOM      6  C   UNL     1      68.970 219.676 339.940  0.00  0.00    +0.000 A 
ATOM      7  C   UNL     1      68.848 221.275 338.102  0.00  0.00    +0.000 A 
ATOM      8  C   UNL     1      73.044 222.648 340.569  0.00  0.00    +0.000 A 
ATOM      9  C   UNL     1      72.378 223.115 339.439  0.00  0.00    +0.000 A 
ATOM     10  C   UNL     1      70.792 219.802 341.520  0.00  0.00    +0.000 A 
ATOM     11  C   UNL     1      70.550 222.978 337.867  0.00  0.00    +0.000 A 
ATOM     12  C   UNL     1      69.620 219.194 341.073  0.00  0.00    +0.000 A 
ATOM     13  C   UNL     1      69.378 222.369 337.420  0.00  0.00    +0.000 A 
ATOM     14  C   UNL     1      67.797 219.077 339.483  0.00  0.00    +0.000 A 
ATOM     15  C   UNL     1      67.676 220.662 337.660  0.00  0.00    +0.000 A 
ATOM     16  C   UNL     1      73.257 221.116 342.423  0.00  0.00    +0.000 A 
ATOM     17  C   UNL     1      74.213 223.288 340.980  0.00  0.00    +0.000 A 
ATOM     18  C   UNL     1      67.153 219.567 338.347  0.00  0.00    +0.000 A 
ATOM     19  C   UNL     1      74.424 221.759 342.828  0.00  0.00    +0.000 A 
ATOM     20  C   UNL     1      74.902 222.845 342.106  0.00  0.00    +0.000 A 
ENDROOT
TORSDOF 0
ENDMDL
