MODEL 1
REMARK VINA RESULT:      -5.6      0.000      0.000
REMARK  Name = Bicalutamide.pdbqt.pdb
REMARK  8 active torsions:
REMARK  status: ('A' for Active; 'I' for Inactive)
REMARK    1  A    between atoms: C_2  and  N_13
REMARK    2  A    between atoms: C_5  and  C_9
REMARK    3  A    between atoms: C_6  and  C_8
REMARK    4  A    between atoms: C_14  and  C_17
REMARK    5  A    between atoms: C_17  and  O_19
REMARK    6  A    between atoms: C_17  and  C_21
REMARK    7  A    between atoms: C_21  and  S_22
REMARK    8  A    between atoms: S_22  and  C_25
REMARK                            x       y       z     vdW  Elec       q    Type
REMARK                         _______ _______ _______ _____ _____    ______ ____
ROOT
ATOM      1  N   UNL     1      52.586 244.286 325.598  0.00  0.00    +0.000 N 
ATOM      2  C   UNL     1      53.058 243.710 326.775  0.00  0.00    +0.000 C 
ATOM      3  O   UNL     1      54.207 243.288 326.938  0.00  0.00    +0.000 OA
ATOM      4  H   UNL     1      51.647 244.685 325.631  0.00  0.00    +0.000 HD
ENDROOT
BRANCH   1   5
ATOM      5  C   UNL     1      53.312 244.441 324.406  0.00  0.00    +0.000 A 
ATOM      6  C   UNL     1      54.051 245.612 324.243  0.00  0.00    +0.000 A 
ATOM      7  C   UNL     1      53.313 243.490 323.391  0.00  0.00    +0.000 A 
ATOM      8  C   UNL     1      54.795 245.846 323.080  0.00  0.00    +0.000 A 
ATOM      9  C   UNL     1      54.788 244.878 322.065  0.00  0.00    +0.000 A 
ATOM     10  C   UNL     1      54.046 243.706 322.227  0.00  0.00    +0.000 A 
BRANCH   8  11
ATOM     11  C   UNL     1      55.573 247.123 322.956  0.00  0.00    +0.000 C 
ATOM     12  F   UNL     1      56.860 246.932 322.554  0.00  0.00    +0.000 F 
ATOM     13  F   UNL     1      55.025 247.977 322.051  0.00  0.00    +0.000 F 
ATOM     14  F   UNL     1      55.649 247.801 324.131  0.00  0.00    +0.000 F 
ENDBRANCH   8  11
BRANCH   9  16
ATOM     15  N   UNL     1      56.110 245.163 319.855  0.00  0.00    +0.000 NA
ATOM     16  C   UNL     1      55.521 245.042 320.847  0.00  0.00    +0.000 C 
ENDBRANCH   9  16
ENDBRANCH   1   5
BRANCH   2  17
ATOM     17  C   UNL     1      51.991 243.576 327.935  0.00  0.00    +0.000 C 
ATOM     18  C   UNL     1      51.799 244.923 328.687  0.00  0.00    +0.000 C 
BRANCH  17  19
ATOM     19  O   UNL     1      52.422 242.621 328.892  0.00  0.00    +0.000 OA
ATOM     20  H   UNL     1      53.283 242.307 328.556  0.00  0.00    +0.000 HD
ENDBRANCH  17  19
BRANCH  17  21
ATOM     21  C   UNL     1      50.760 243.130 327.357  0.00  0.00    +0.000 C 
BRANCH  21  22
ATOM     22  S   UNL     1      49.253 242.803 326.586  0.00  0.00    +0.000 S 
ATOM     23  O   UNL     1      48.553 243.991 327.005  0.00  0.00    +0.000 OA
ATOM     24  O   UNL     1      49.069 241.481 327.134  0.00  0.00    +0.000 OA
BRANCH  22  25
ATOM     25  C   UNL     1      49.487 242.762 324.870  0.00  0.00    +0.000 A 
ATOM     26  C   UNL     1      49.363 243.954 324.164  0.00  0.00    +0.000 A 
ATOM     27  C   UNL     1      49.524 243.943 322.781  0.00  0.00    +0.000 A 
ATOM     28  C   UNL     1      49.800 242.742 322.134  0.00  0.00    +0.000 A 
ATOM     29  F   UNL     1      49.955 242.732 320.803  0.00  0.00    +0.000 F 
ATOM     30  C   UNL     1      49.916 241.550 322.845  0.00  0.00    +0.000 A 
ATOM     31  C   UNL     1      49.755 241.559 324.226  0.00  0.00    +0.000 A 
ENDBRANCH  22  25
ENDBRANCH  21  22
ENDBRANCH  17  21
ENDBRANCH   2  17
TORSDOF 8
ENDMDL
MODEL 2
REMARK VINA RESULT:      -5.5     27.198     28.862
REMARK  Name = Bicalutamide.pdbqt.pdb
REMARK  8 active torsions:
REMARK  status: ('A' for Active; 'I' for Inactive)
REMARK    1  A    between atoms: C_2  and  N_13
REMARK    2  A    between atoms: C_5  and  C_9
REMARK    3  A    between atoms: C_6  and  C_8
REMARK    4  A    between atoms: C_14  and  C_17
REMARK    5  A    between atoms: C_17  and  O_19
REMARK    6  A    between atoms: C_17  and  C_21
REMARK    7  A    between atoms: C_21  and  S_22
REMARK    8  A    between atoms: S_22  and  C_25
REMARK                            x       y       z     vdW  Elec       q    Type
REMARK                         _______ _______ _______ _____ _____    ______ ____
ROOT
ATOM      1  N   UNL     1      59.624 217.043 333.232  0.00  0.00    +0.000 N 
ATOM      2  C   UNL     1      60.559 217.533 332.323  0.00  0.00    +0.000 C 
ATOM      3  O   UNL     1      61.384 218.418 332.571  0.00  0.00    +0.000 OA
ATOM      4  H   UNL     1      59.070 216.242 332.928  0.00  0.00    +0.000 HD
ENDROOT
BRANCH   1   5
ATOM      5  C   UNL     1      59.438 217.496 334.548  0.00  0.00    +0.000 A 
ATOM      6  C   UNL     1      58.343 218.321 334.803  0.00  0.00    +0.000 A 
ATOM      7  C   UNL     1      60.300 217.169 335.591  0.00  0.00    +0.000 A 
ATOM      8  C   UNL     1      58.093 218.822 336.086  0.00  0.00    +0.000 A 
ATOM      9  C   UNL     1      58.968 218.482 337.128  0.00  0.00    +0.000 A 
ATOM     10  C   UNL     1      60.067 217.658 336.874  0.00  0.00    +0.000 A 
BRANCH   8  11
ATOM     11  C   UNL     1      56.900 219.705 336.305  0.00  0.00    +0.000 C 
ATOM     12  F   UNL     1      56.020 219.688 335.265  0.00  0.00    +0.000 F 
ATOM     13  F   UNL     1      56.183 219.344 337.402  0.00  0.00    +0.000 F 
ATOM     14  F   UNL     1      57.243 221.008 336.478  0.00  0.00    +0.000 F 
ENDBRANCH   8  11
BRANCH   9  16
ATOM     15  N   UNL     1      58.632 219.348 339.547  0.00  0.00    +0.000 NA
ATOM     16  C   UNL     1      58.781 218.953 338.467  0.00  0.00    +0.000 C 
ENDBRANCH   9  16
ENDBRANCH   1   5
BRANCH   2  17
ATOM     17  C   UNL     1      60.482 216.904 330.873  0.00  0.00    +0.000 C 
ATOM     18  C   UNL     1      61.418 215.669 330.742  0.00  0.00    +0.000 C 
BRANCH  17  19
ATOM     19  O   UNL     1      60.901 217.851 329.903  0.00  0.00    +0.000 OA
ATOM     20  H   UNL     1      61.720 218.234 330.270  0.00  0.00    +0.000 HD
ENDBRANCH  17  19
BRANCH  17  21
ATOM     21  C   UNL     1      59.121 216.547 330.615  0.00  0.00    +0.000 C 
BRANCH  21  22
ATOM     22  S   UNL     1      57.563 215.949 330.181  0.00  0.00    +0.000 S 
ATOM     23  O   UNL     1      57.539 214.803 331.055  0.00  0.00    +0.000 OA
ATOM     24  O   UNL     1      57.788 215.914 328.756  0.00  0.00    +0.000 OA
BRANCH  22  25
ATOM     25  C   UNL     1      56.362 217.118 330.616  0.00  0.00    +0.000 A 
ATOM     26  C   UNL     1      56.222 217.445 331.960  0.00  0.00    +0.000 A 
ATOM     27  C   UNL     1      55.249 218.365 332.338  0.00  0.00    +0.000 A 
ATOM     28  C   UNL     1      54.432 218.934 331.364  0.00  0.00    +0.000 A 
ATOM     29  F   UNL     1      53.494 219.820 331.728  0.00  0.00    +0.000 F 
ATOM     30  C   UNL     1      54.570 218.598 330.020  0.00  0.00    +0.000 A 
ATOM     31  C   UNL     1      55.542 217.679 329.641  0.00  0.00    +0.000 A 
ENDBRANCH  22  25
ENDBRANCH  21  22
ENDBRANCH  17  21
ENDBRANCH   2  17
TORSDOF 8
ENDMDL
MODEL 3
REMARK VINA RESULT:      -5.1      2.129      2.674
REMARK  Name = Bicalutamide.pdbqt.pdb
REMARK  8 active torsions:
REMARK  status: ('A' for Active; 'I' for Inactive)
REMARK    1  A    between atoms: C_2  and  N_13
REMARK    2  A    between atoms: C_5  and  C_9
REMARK    3  A    between atoms: C_6  and  C_8
REMARK    4  A    between atoms: C_14  and  C_17
REMARK    5  A    between atoms: C_17  and  O_19
REMARK    6  A    between atoms: C_17  and  C_21
REMARK    7  A    between atoms: C_21  and  S_22
REMARK    8  A    between atoms: S_22  and  C_25
REMARK                            x       y       z     vdW  Elec       q    Type
REMARK                         _______ _______ _______ _____ _____    ______ ____
ROOT
ATOM      1  N   UNL     1      52.616 243.954 325.396  0.00  0.00    +0.000 N 
ATOM      2  C   UNL     1      53.123 243.518 326.617  0.00  0.00    +0.000 C 
ATOM      3  O   UNL     1      54.321 243.332 326.854  0.00  0.00    +0.000 OA
ATOM      4  H   UNL     1      51.617 244.164 325.366  0.00  0.00    +0.000 HD
ENDROOT
BRANCH   1   5
ATOM      5  C   UNL     1      53.364 244.209 324.235  0.00  0.00    +0.000 A 
ATOM      6  C   UNL     1      54.044 245.423 324.154  0.00  0.00    +0.000 A 
ATOM      7  C   UNL     1      53.442 243.313 323.173  0.00  0.00    +0.000 A 
ATOM      8  C   UNL     1      54.805 245.756 323.027  0.00  0.00    +0.000 A 
ATOM      9  C   UNL     1      54.876 244.843 321.964  0.00  0.00    +0.000 A 
ATOM     10  C   UNL     1      54.193 243.628 322.043  0.00  0.00    +0.000 A 
BRANCH   8  11
ATOM     11  C   UNL     1      55.517 247.077 322.991  0.00  0.00    +0.000 C 
ATOM     12  F   UNL     1      56.836 246.967 322.670  0.00  0.00    +0.000 F 
ATOM     13  F   UNL     1      54.982 247.928 322.077  0.00  0.00    +0.000 F 
ATOM     14  F   UNL     1      55.480 247.719 324.188  0.00  0.00    +0.000 F 
ENDBRANCH   8  11
BRANCH   9  16
ATOM     15  N   UNL     1      56.239 245.313 319.811  0.00  0.00    +0.000 NA
ATOM     16  C   UNL     1      55.632 245.109 320.778  0.00  0.00    +0.000 C 
ENDBRANCH   9  16
ENDBRANCH   1   5
BRANCH   2  17
ATOM     17  C   UNL     1      52.038 243.216 327.729  0.00  0.00    +0.000 C 
ATOM     18  C   UNL     1      51.640 244.508 328.497  0.00  0.00    +0.000 C 
BRANCH  17  19
ATOM     19  O   UNL     1      52.554 242.304 328.685  0.00  0.00    +0.000 OA
ATOM     20  H   UNL     1      53.095 241.680 328.164  0.00  0.00    +0.000 HD
ENDBRANCH  17  19
BRANCH  17  21
ATOM     21  C   UNL     1      50.901 242.627 327.091  0.00  0.00    +0.000 C 
BRANCH  21  22
ATOM     22  S   UNL     1      49.497 242.116 326.229  0.00  0.00    +0.000 S 
ATOM     23  O   UNL     1      49.142 241.002 327.071  0.00  0.00    +0.000 OA
ATOM     24  O   UNL     1      50.123 242.024 324.932  0.00  0.00    +0.000 OA
BRANCH  22  25
ATOM     25  C   UNL     1      48.306 243.372 326.283  0.00  0.00    +0.000 A 
ATOM     26  C   UNL     1      47.028 243.045 326.723  0.00  0.00    +0.000 A 
ATOM     27  C   UNL     1      46.047 244.032 326.753  0.00  0.00    +0.000 A 
ATOM     28  C   UNL     1      46.363 245.323 326.339  0.00  0.00    +0.000 A 
ATOM     29  F   UNL     1      45.418 246.273 326.369  0.00  0.00    +0.000 F 
ATOM     30  C   UNL     1      47.642 245.644 325.893  0.00  0.00    +0.000 A 
ATOM     31  C   UNL     1      48.623 244.659 325.861  0.00  0.00    +0.000 A 
ENDBRANCH  22  25
ENDBRANCH  21  22
ENDBRANCH  17  21
ENDBRANCH   2  17
TORSDOF 8
ENDMDL
MODEL 4
REMARK VINA RESULT:      -5.0     31.705     33.567
REMARK  Name = Bicalutamide.pdbqt.pdb
REMARK  8 active torsions:
REMARK  status: ('A' for Active; 'I' for Inactive)
REMARK    1  A    between atoms: C_2  and  N_13
REMARK    2  A    between atoms: C_5  and  C_9
REMARK    3  A    between atoms: C_6  and  C_8
REMARK    4  A    between atoms: C_14  and  C_17
REMARK    5  A    between atoms: C_17  and  O_19
REMARK    6  A    between atoms: C_17  and  C_21
REMARK    7  A    between atoms: C_21  and  S_22
REMARK    8  A    between atoms: S_22  and  C_25
REMARK                            x       y       z     vdW  Elec       q    Type
REMARK                         _______ _______ _______ _____ _____    ______ ____
ROOT
ATOM      1  N   UNL     1      57.280 216.408 340.356  0.00  0.00    +0.000 N 
ATOM      2  C   UNL     1      58.470 215.854 340.822  0.00  0.00    +0.000 C 
ATOM      3  O   UNL     1      59.450 215.599 340.115  0.00  0.00    +0.000 OA
ATOM      4  H   UNL     1      56.588 216.662 341.063  0.00  0.00    +0.000 HD
ENDROOT
BRANCH   1   5
ATOM      5  C   UNL     1      56.984 216.724 339.020  0.00  0.00    +0.000 A 
ATOM      6  C   UNL     1      57.439 217.945 338.525  0.00  0.00    +0.000 A 
ATOM      7  C   UNL     1      56.254 215.882 338.187  0.00  0.00    +0.000 A 
ATOM      8  C   UNL     1      57.177 218.338 337.207  0.00  0.00    +0.000 A 
ATOM      9  C   UNL     1      56.442 217.478 336.377  0.00  0.00    +0.000 A 
ATOM     10  C   UNL     1      55.984 216.256 336.873  0.00  0.00    +0.000 A 
BRANCH   8  11
ATOM     11  C   UNL     1      57.691 219.663 336.725  0.00  0.00    +0.000 C 
ATOM     12  F   UNL     1      58.305 220.389 337.700  0.00  0.00    +0.000 F 
ATOM     13  F   UNL     1      58.606 219.532 335.729  0.00  0.00    +0.000 F 
ATOM     14  F   UNL     1      56.701 220.458 336.239  0.00  0.00    +0.000 F 
ENDBRANCH   8  11
BRANCH   9  16
ATOM     15  N   UNL     1      55.884 218.086 333.921  0.00  0.00    +0.000 NA
ATOM     16  C   UNL     1      56.134 217.806 335.018  0.00  0.00    +0.000 C 
ENDBRANCH   9  16
ENDBRANCH   1   5
BRANCH   2  17
ATOM     17  C   UNL     1      58.494 215.509 342.366  0.00  0.00    +0.000 C 
ATOM     18  C   UNL     1      57.295 214.602 342.763  0.00  0.00    +0.000 C 
BRANCH  17  19
ATOM     19  O   UNL     1      58.393 216.696 343.137  0.00  0.00    +0.000 OA
ATOM     20  H   UNL     1      59.285 217.091 343.099  0.00  0.00    +0.000 HD
ENDBRANCH  17  19
BRANCH  17  21
ATOM     21  C   UNL     1      59.740 214.871 342.659  0.00  0.00    +0.000 C 
BRANCH  21  22
ATOM     22  S   UNL     1      61.125 213.913 343.036  0.00  0.00    +0.000 S 
ATOM     23  O   UNL     1      61.893 214.200 341.851  0.00  0.00    +0.000 OA
ATOM     24  O   UNL     1      60.412 212.687 343.299  0.00  0.00    +0.000 OA
BRANCH  22  25
ATOM     25  C   UNL     1      61.880 214.539 344.462  0.00  0.00    +0.000 A 
ATOM     26  C   UNL     1      63.227 214.882 344.395  0.00  0.00    +0.000 A 
ATOM     27  C   UNL     1      63.862 215.366 345.534  0.00  0.00    +0.000 A 
ATOM     28  C   UNL     1      63.141 215.492 346.718  0.00  0.00    +0.000 A 
ATOM     29  F   UNL     1      63.753 215.958 347.815  0.00  0.00    +0.000 F 
ATOM     30  C   UNL     1      61.795 215.141 346.783  0.00  0.00    +0.000 A 
ATOM     31  C   UNL     1      61.158 214.657 345.646  0.00  0.00    +0.000 A 
ENDBRANCH  22  25
ENDBRANCH  21  22
ENDBRANCH  17  21
ENDBRANCH   2  17
TORSDOF 8
ENDMDL
MODEL 5
REMARK VINA RESULT:      -4.9     32.526     34.223
REMARK  Name = Bicalutamide.pdbqt.pdb
REMARK  8 active torsions:
REMARK  status: ('A' for Active; 'I' for Inactive)
REMARK    1  A    between atoms: C_2  and  N_13
REMARK    2  A    between atoms: C_5  and  C_9
REMARK    3  A    between atoms: C_6  and  C_8
REMARK    4  A    between atoms: C_14  and  C_17
REMARK    5  A    between atoms: C_17  and  O_19
REMARK    6  A    between atoms: C_17  and  C_21
REMARK    7  A    between atoms: C_21  and  S_22
REMARK    8  A    between atoms: S_22  and  C_25
REMARK                            x       y       z     vdW  Elec       q    Type
REMARK                         _______ _______ _______ _____ _____    ______ ____
ROOT
ATOM      1  N   UNL     1      74.006 222.578 340.197  0.00  0.00    +0.000 N 
ATOM      2  C   UNL     1      74.284 223.940 340.272  0.00  0.00    +0.000 C 
ATOM      3  O   UNL     1      74.207 224.617 341.303  0.00  0.00    +0.000 OA
ATOM      4  H   UNL     1      74.208 222.121 339.306  0.00  0.00    +0.000 HD
ENDROOT
BRANCH   1   5
ATOM      5  C   UNL     1      73.556 221.767 341.252  0.00  0.00    +0.000 A 
ATOM      6  C   UNL     1      72.278 221.220 341.151  0.00  0.00    +0.000 A 
ATOM      7  C   UNL     1      74.322 221.504 342.384  0.00  0.00    +0.000 A 
ATOM      8  C   UNL     1      71.753 220.409 342.165  0.00  0.00    +0.000 A 
ATOM      9  C   UNL     1      72.537 220.150 343.299  0.00  0.00    +0.000 A 
ATOM     10  C   UNL     1      73.816 220.700 343.402  0.00  0.00    +0.000 A 
BRANCH   8  11
ATOM     11  C   UNL     1      70.372 219.845 342.005  0.00  0.00    +0.000 C 
ATOM     12  F   UNL     1      70.353 218.485 341.922  0.00  0.00    +0.000 F 
ATOM     13  F   UNL     1      69.560 220.163 343.047  0.00  0.00    +0.000 F 
ATOM     14  F   UNL     1      69.754 220.294 340.881  0.00  0.00    +0.000 F 
ENDBRANCH   8  11
BRANCH   9  16
ATOM     15  N   UNL     1      71.700 218.678 345.261  0.00  0.00    +0.000 NA
ATOM     16  C   UNL     1      72.072 219.331 344.378  0.00  0.00    +0.000 C 
ENDBRANCH   9  16
ENDBRANCH   1   5
BRANCH   2  17
ATOM     17  C   UNL     1      74.681 224.625 338.902  0.00  0.00    +0.000 C 
ATOM     18  C   UNL     1      76.219 224.830 338.797  0.00  0.00    +0.000 C 
BRANCH  17  19
ATOM     19  O   UNL     1      74.080 225.906 338.800  0.00  0.00    +0.000 OA
ATOM     20  H   UNL     1      74.826 226.516 338.642  0.00  0.00    +0.000 HD
ENDBRANCH  17  19
BRANCH  17  21
ATOM     21  C   UNL     1      74.199 223.800 337.837  0.00  0.00    +0.000 C 
BRANCH  21  22
ATOM     22  S   UNL     1      73.455 222.957 336.530  0.00  0.00    +0.000 S 
ATOM     23  O   UNL     1      74.308 221.796 336.531  0.00  0.00    +0.000 OA
ATOM     24  O   UNL     1      73.511 224.040 335.579  0.00  0.00    +0.000 OA
BRANCH  22  25
ATOM     25  C   UNL     1      71.825 222.561 336.960  0.00  0.00    +0.000 A 
ATOM     26  C   UNL     1      71.302 223.114 338.124  0.00  0.00    +0.000 A 
ATOM     27  C   UNL     1      70.001 222.792 338.504  0.00  0.00    +0.000 A 
ATOM     28  C   UNL     1      69.254 221.922 337.715  0.00  0.00    +0.000 A 
ATOM     29  F   UNL     1      68.003 221.613 338.081  0.00  0.00    +0.000 F 
ATOM     30  C   UNL     1      69.784 221.365 336.554  0.00  0.00    +0.000 A 
ATOM     31  C   UNL     1      71.083 221.685 336.173  0.00  0.00    +0.000 A 
ENDBRANCH  22  25
ENDBRANCH  21  22
ENDBRANCH  17  21
ENDBRANCH   2  17
TORSDOF 8
ENDMDL
MODEL 6
REMARK VINA RESULT:      -4.9     22.778     24.627
REMARK  Name = Bicalutamide.pdbqt.pdb
REMARK  8 active torsions:
REMARK  status: ('A' for Active; 'I' for Inactive)
REMARK    1  A    between atoms: C_2  and  N_13
REMARK    2  A    between atoms: C_5  and  C_9
REMARK    3  A    between atoms: C_6  and  C_8
REMARK    4  A    between atoms: C_14  and  C_17
REMARK    5  A    between atoms: C_17  and  O_19
REMARK    6  A    between atoms: C_17  and  C_21
REMARK    7  A    between atoms: C_21  and  S_22
REMARK    8  A    between atoms: S_22  and  C_25
REMARK                            x       y       z     vdW  Elec       q    Type
REMARK                         _______ _______ _______ _____ _____    ______ ____
ROOT
ATOM      1  N   UNL     1      55.952 242.123 350.369  0.00  0.00    +0.000 N 
ATOM      2  C   UNL     1      56.617 240.902 350.459  0.00  0.00    +0.000 C 
ATOM      3  O   UNL     1      57.742 240.679 349.999  0.00  0.00    +0.000 OA
ATOM      4  H   UNL     1      55.072 242.200 350.880  0.00  0.00    +0.000 HD
ENDROOT
BRANCH   1   5
ATOM      5  C   UNL     1      56.422 243.272 349.714  0.00  0.00    +0.000 A 
ATOM      6  C   UNL     1      56.220 243.363 348.337  0.00  0.00    +0.000 A 
ATOM      7  C   UNL     1      57.084 244.303 350.373  0.00  0.00    +0.000 A 
ATOM      8  C   UNL     1      56.667 244.472 347.609  0.00  0.00    +0.000 A 
ATOM      9  C   UNL     1      57.331 245.505 348.287  0.00  0.00    +0.000 A 
ATOM     10  C   UNL     1      57.536 245.414 349.665  0.00  0.00    +0.000 A 
BRANCH   8  11
ATOM     11  C   UNL     1      56.423 244.520 346.129  0.00  0.00    +0.000 C 
ATOM     12  F   UNL     1      57.538 244.826 345.409  0.00  0.00    +0.000 F 
ATOM     13  F   UNL     1      55.980 243.332 345.639  0.00  0.00    +0.000 F 
ATOM     14  F   UNL     1      55.494 245.451 345.786  0.00  0.00    +0.000 F 
ENDBRANCH   8  11
BRANCH   9  16
ATOM     15  N   UNL     1      58.200 247.624 347.074  0.00  0.00    +0.000 NA
ATOM     16  C   UNL     1      57.818 246.672 347.615  0.00  0.00    +0.000 C 
ENDBRANCH   9  16
ENDBRANCH   1   5
BRANCH   2  17
ATOM     17  C   UNL     1      55.809 239.745 351.174  0.00  0.00    +0.000 C 
ATOM     18  C   UNL     1      55.616 240.042 352.688  0.00  0.00    +0.000 C 
BRANCH  17  19
ATOM     19  O   UNL     1      56.514 238.518 351.075  0.00  0.00    +0.000 OA
ATOM     20  H   UNL     1      56.539 238.325 350.118  0.00  0.00    +0.000 HD
ENDBRANCH  17  19
BRANCH  17  21
ATOM     21  C   UNL     1      54.547 239.610 350.513  0.00  0.00    +0.000 C 
BRANCH  21  22
ATOM     22  S   UNL     1      52.986 239.657 349.781  0.00  0.00    +0.000 S 
ATOM     23  O   UNL     1      52.227 240.003 350.956  0.00  0.00    +0.000 OA
ATOM     24  O   UNL     1      53.047 238.349 349.174  0.00  0.00    +0.000 OA
BRANCH  22  25
ATOM     25  C   UNL     1      52.950 240.917 348.595  0.00  0.00    +0.000 A 
ATOM     26  C   UNL     1      53.398 240.623 347.311  0.00  0.00    +0.000 A 
ATOM     27  C   UNL     1      53.400 241.625 346.346  0.00  0.00    +0.000 A 
ATOM     28  C   UNL     1      52.960 242.902 346.685  0.00  0.00    +0.000 A 
ATOM     29  F   UNL     1      52.963 243.867 345.755  0.00  0.00    +0.000 F 
ATOM     30  C   UNL     1      52.520 243.195 347.973  0.00  0.00    +0.000 A 
ATOM     31  C   UNL     1      52.517 242.194 348.939  0.00  0.00    +0.000 A 
ENDBRANCH  22  25
ENDBRANCH  21  22
ENDBRANCH  17  21
ENDBRANCH   2  17
TORSDOF 8
ENDMDL
MODEL 7
REMARK VINA RESULT:      -4.9     26.886     28.535
REMARK  Name = Bicalutamide.pdbqt.pdb
REMARK  8 active torsions:
REMARK  status: ('A' for Active; 'I' for Inactive)
REMARK    1  A    between atoms: C_2  and  N_13
REMARK    2  A    between atoms: C_5  and  C_9
REMARK    3  A    between atoms: C_6  and  C_8
REMARK    4  A    between atoms: C_14  and  C_17
REMARK    5  A    between atoms: C_17  and  O_19
REMARK    6  A    between atoms: C_17  and  C_21
REMARK    7  A    between atoms: C_21  and  S_22
REMARK    8  A    between atoms: S_22  and  C_25
REMARK                            x       y       z     vdW  Elec       q    Type
REMARK                         _______ _______ _______ _____ _____    ______ ____
ROOT
ATOM      1  N   UNL     1      58.131 216.310 332.318  0.00  0.00    +0.000 N 
ATOM      2  C   UNL     1      58.798 216.708 331.162  0.00  0.00    +0.000 C 
ATOM      3  O   UNL     1      59.706 217.545 331.128  0.00  0.00    +0.000 OA
ATOM      4  H   UNL     1      57.471 215.537 332.219  0.00  0.00    +0.000 HD
ENDROOT
BRANCH   1   5
ATOM      5  C   UNL     1      58.345 216.816 333.610  0.00  0.00    +0.000 A 
ATOM      6  C   UNL     1      57.440 217.759 334.096  0.00  0.00    +0.000 A 
ATOM      7  C   UNL     1      59.417 216.428 334.407  0.00  0.00    +0.000 A 
ATOM      8  C   UNL     1      57.589 218.319 335.371  0.00  0.00    +0.000 A 
ATOM      9  C   UNL     1      58.674 217.917 336.165  0.00  0.00    +0.000 A 
ATOM     10  C   UNL     1      59.581 216.975 335.677  0.00  0.00    +0.000 A 
BRANCH   8  11
ATOM     11  C   UNL     1      56.586 219.329 335.845  0.00  0.00    +0.000 C 
ATOM     12  F   UNL     1      55.613 219.592 334.930  0.00  0.00    +0.000 F 
ATOM     13  F   UNL     1      55.938 218.926 336.970  0.00  0.00    +0.000 F 
ATOM     14  F   UNL     1      57.155 220.529 336.136  0.00  0.00    +0.000 F 
ENDBRANCH   8  11
BRANCH   9  16
ATOM     15  N   UNL     1      59.079 218.854 338.546  0.00  0.00    +0.000 NA
ATOM     16  C   UNL     1      58.895 218.442 337.478  0.00  0.00    +0.000 C 
ENDBRANCH   9  16
ENDBRANCH   1   5
BRANCH   2  17
ATOM     17  C   UNL     1      58.285 216.039 329.822  0.00  0.00    +0.000 C 
ATOM     18  C   UNL     1      57.765 214.595 330.074  0.00  0.00    +0.000 C 
BRANCH  17  19
ATOM     19  O   UNL     1      59.344 215.944 328.883  0.00  0.00    +0.000 OA
ATOM     20  H   UNL     1      60.153 215.887 329.428  0.00  0.00    +0.000 HD
ENDBRANCH  17  19
BRANCH  17  21
ATOM     21  C   UNL     1      57.255 216.868 329.278  0.00  0.00    +0.000 C 
BRANCH  21  22
ATOM     22  S   UNL     1      55.967 217.698 328.484  0.00  0.00    +0.000 S 
ATOM     23  O   UNL     1      55.566 216.637 327.595  0.00  0.00    +0.000 OA
ATOM     24  O   UNL     1      56.727 218.866 328.110  0.00  0.00    +0.000 OA
BRANCH  22  25
ATOM     25  C   UNL     1      54.733 218.074 329.639  0.00  0.00    +0.000 A 
ATOM     26  C   UNL     1      53.417 218.142 329.194  0.00  0.00    +0.000 A 
ATOM     27  C   UNL     1      52.410 218.465 330.098  0.00  0.00    +0.000 A 
ATOM     28  C   UNL     1      52.740 218.717 331.427  0.00  0.00    +0.000 A 
ATOM     29  F   UNL     1      51.770 219.028 332.298  0.00  0.00    +0.000 F 
ATOM     30  C   UNL     1      54.059 218.654 331.868  0.00  0.00    +0.000 A 
ATOM     31  C   UNL     1      55.067 218.332 330.965  0.00  0.00    +0.000 A 
ENDBRANCH  22  25
ENDBRANCH  21  22
ENDBRANCH  17  21
ENDBRANCH   2  17
TORSDOF 8
ENDMDL
MODEL 8
REMARK VINA RESULT:      -4.8     26.185     28.481
REMARK  Name = Bicalutamide.pdbqt.pdb
REMARK  8 active torsions:
REMARK  status: ('A' for Active; 'I' for Inactive)
REMARK    1  A    between atoms: C_2  and  N_13
REMARK    2  A    between atoms: C_5  and  C_9
REMARK    3  A    between atoms: C_6  and  C_8
REMARK    4  A    between atoms: C_14  and  C_17
REMARK    5  A    between atoms: C_17  and  O_19
REMARK    6  A    between atoms: C_17  and  C_21
REMARK    7  A    between atoms: C_21  and  S_22
REMARK    8  A    between atoms: S_22  and  C_25
REMARK                            x       y       z     vdW  Elec       q    Type
REMARK                         _______ _______ _______ _____ _____    ______ ____
ROOT
ATOM      1  N   UNL     1      52.757 217.182 332.637  0.00  0.00    +0.000 N 
ATOM      2  C   UNL     1      52.779 215.888 333.150  0.00  0.00    +0.000 C 
ATOM      3  O   UNL     1      51.823 215.107 333.128  0.00  0.00    +0.000 OA
ATOM      4  H   UNL     1      53.646 217.684 332.629  0.00  0.00    +0.000 HD
ENDROOT
BRANCH   1   5
ATOM      5  C   UNL     1      51.649 217.821 332.058  0.00  0.00    +0.000 A 
ATOM      6  C   UNL     1      50.746 218.457 332.910  0.00  0.00    +0.000 A 
ATOM      7  C   UNL     1      51.413 217.833 330.686  0.00  0.00    +0.000 A 
ATOM      8  C   UNL     1      49.612 219.108 332.412  0.00  0.00    +0.000 A 
ATOM      9  C   UNL     1      49.387 219.114 331.027  0.00  0.00    +0.000 A 
ATOM     10  C   UNL     1      50.289 218.476 330.173  0.00  0.00    +0.000 A 
BRANCH   8  11
ATOM     11  C   UNL     1      48.673 219.777 333.373  0.00  0.00    +0.000 C 
ATOM     12  F   UNL     1      47.400 219.299 333.302  0.00  0.00    +0.000 F 
ATOM     13  F   UNL     1      49.057 219.616 334.667  0.00  0.00    +0.000 F 
ATOM     14  F   UNL     1      48.579 221.116 333.160  0.00  0.00    +0.000 F 
ENDBRANCH   8  11
BRANCH   9  16
ATOM     15  N   UNL     1      47.339 220.292 329.965  0.00  0.00    +0.000 NA
ATOM     16  C   UNL     1      48.251 219.758 330.440  0.00  0.00    +0.000 C 
ENDBRANCH   9  16
ENDBRANCH   1   5
BRANCH   2  17
ATOM     17  C   UNL     1      54.140 215.457 333.835  0.00  0.00    +0.000 C 
ATOM     18  C   UNL     1      54.681 214.130 333.233  0.00  0.00    +0.000 C 
BRANCH  17  19
ATOM     19  O   UNL     1      53.944 215.238 335.223  0.00  0.00    +0.000 OA
ATOM     20  H   UNL     1      54.724 215.641 335.649  0.00  0.00    +0.000 HD
ENDBRANCH  17  19
BRANCH  17  21
ATOM     21  C   UNL     1      55.080 216.521 333.662  0.00  0.00    +0.000 C 
BRANCH  21  22
ATOM     22  S   UNL     1      56.257 217.714 333.252  0.00  0.00    +0.000 S 
ATOM     23  O   UNL     1      55.373 218.649 332.603  0.00  0.00    +0.000 OA
ATOM     24  O   UNL     1      57.174 216.822 332.585  0.00  0.00    +0.000 OA
BRANCH  22  25
ATOM     25  C   UNL     1      56.935 218.369 334.705  0.00  0.00    +0.000 A 
ATOM     26  C   UNL     1      58.264 218.080 334.996  0.00  0.00    +0.000 A 
ATOM     27  C   UNL     1      58.825 218.575 336.170  0.00  0.00    +0.000 A 
ATOM     28  C   UNL     1      58.045 219.345 337.029  0.00  0.00    +0.000 A 
ATOM     29  F   UNL     1      58.586 219.822 338.158  0.00  0.00    +0.000 F 
ATOM     30  C   UNL     1      56.713 219.626 336.736  0.00  0.00    +0.000 A 
ATOM     31  C   UNL     1      56.150 219.132 335.564  0.00  0.00    +0.000 A 
ENDBRANCH  22  25
ENDBRANCH  21  22
ENDBRANCH  17  21
ENDBRANCH   2  17
TORSDOF 8
ENDMDL
MODEL 9
REMARK VINA RESULT:      -4.8     21.122     22.222
REMARK  Name = Bicalutamide.pdbqt.pdb
REMARK  8 active torsions:
REMARK  status: ('A' for Active; 'I' for Inactive)
REMARK    1  A    between atoms: C_2  and  N_13
REMARK    2  A    between atoms: C_5  and  C_9
REMARK    3  A    between atoms: C_6  and  C_8
REMARK    4  A    between atoms: C_14  and  C_17
REMARK    5  A    between atoms: C_17  and  O_19
REMARK    6  A    between atoms: C_17  and  C_21
REMARK    7  A    between atoms: C_21  and  S_22
REMARK    8  A    between atoms: S_22  and  C_25
REMARK                            x       y       z     vdW  Elec       q    Type
REMARK                         _______ _______ _______ _____ _____    ______ ____
ROOT
ATOM      1  N   UNL     1      60.234 224.413 322.817  0.00  0.00    +0.000 N 
ATOM      2  C   UNL     1      60.474 223.356 321.943  0.00  0.00    +0.000 C 
ATOM      3  O   UNL     1      61.595 222.932 321.644  0.00  0.00    +0.000 OA
ATOM      4  H   UNL     1      59.258 224.595 323.054  0.00  0.00    +0.000 HD
ENDROOT
BRANCH   1   5
ATOM      5  C   UNL     1      61.211 225.190 323.460  0.00  0.00    +0.000 A 
ATOM      6  C   UNL     1      61.790 224.676 324.620  0.00  0.00    +0.000 A 
ATOM      7  C   UNL     1      61.608 226.441 322.998  0.00  0.00    +0.000 A 
ATOM      8  C   UNL     1      62.764 225.392 325.325  0.00  0.00    +0.000 A 
ATOM      9  C   UNL     1      63.157 226.651 324.847  0.00  0.00    +0.000 A 
ATOM     10  C   UNL     1      62.576 227.168 323.687  0.00  0.00    +0.000 A 
BRANCH   8  11
ATOM     11  C   UNL     1      63.355 224.792 326.567  0.00  0.00    +0.000 C 
ATOM     12  F   UNL     1      63.429 225.670 327.605  0.00  0.00    +0.000 F 
ATOM     13  F   UNL     1      62.633 223.736 327.025  0.00  0.00    +0.000 F 
ATOM     14  F   UNL     1      64.622 224.340 326.373  0.00  0.00    +0.000 F 
ENDBRANCH   8  11
BRANCH   9  16
ATOM     15  N   UNL     1      64.942 228.085 326.060  0.00  0.00    +0.000 NA
ATOM     16  C   UNL     1      64.147 227.446 325.510  0.00  0.00    +0.000 C 
ENDBRANCH   9  16
ENDBRANCH   1   5
BRANCH   2  17
ATOM     17  C   UNL     1      59.184 222.718 321.284  0.00  0.00    +0.000 C 
ATOM     18  C   UNL     1      59.474 221.291 320.738  0.00  0.00    +0.000 C 
BRANCH  17  19
ATOM     19  O   UNL     1      58.752 223.506 320.187  0.00  0.00    +0.000 OA
ATOM     20  H   UNL     1      59.555 223.642 319.649  0.00  0.00    +0.000 HD
ENDBRANCH  17  19
BRANCH  17  21
ATOM     21  C   UNL     1      58.149 222.690 322.271  0.00  0.00    +0.000 C 
BRANCH  21  22
ATOM     22  S   UNL     1      57.061 222.708 323.610  0.00  0.00    +0.000 S 
ATOM     23  O   UNL     1      56.506 221.390 323.432  0.00  0.00    +0.000 OA
ATOM     24  O   UNL     1      56.405 223.948 323.274  0.00  0.00    +0.000 OA
BRANCH  22  25
ATOM     25  C   UNL     1      57.967 222.834 325.080  0.00  0.00    +0.000 A 
ATOM     26  C   UNL     1      58.404 221.660 325.684  0.00  0.00    +0.000 A 
ATOM     27  C   UNL     1      59.114 221.734 326.878  0.00  0.00    +0.000 A 
ATOM     28  C   UNL     1      59.369 222.980 327.446  0.00  0.00    +0.000 A 
ATOM     29  F   UNL     1      60.052 223.051 328.597  0.00  0.00    +0.000 F 
ATOM     30  C   UNL     1      58.923 224.152 326.842  0.00  0.00    +0.000 A 
ATOM     31  C   UNL     1      58.213 224.080 325.649  0.00  0.00    +0.000 A 
ENDBRANCH  22  25
ENDBRANCH  21  22
ENDBRANCH  17  21
ENDBRANCH   2  17
TORSDOF 8
ENDMDL
