MODEL 1
REMARK VINA RESULT:      -5.3      0.000      0.000
REMARK  Name = Bisphenol_A.pdbqt.pdb
REMARK  4 active torsions:
REMARK  status: ('A' for Active; 'I' for Inactive)
REMARK    1  A    between atoms: C_1  and  C_4
REMARK    2  A    between atoms: C_1  and  C_12
REMARK    3  A    between atoms: C_7  and  O_10
REMARK    4  A    between atoms: C_15  and  O_18
REMARK                            x       y       z     vdW  Elec       q    Type
REMARK                         _______ _______ _______ _____ _____    ______ ____
ROOT
ATOM      1  C   UNL     1      53.008 243.967 323.059  0.00  0.00    +0.000 C 
ATOM      2  C   UNL     1      53.375 242.681 322.237  0.00  0.00    +0.000 C 
ATOM      3  C   UNL     1      51.674 244.554 322.474  0.00  0.00    +0.000 C 
ENDROOT
BRANCH   1   4
ATOM      4  C   UNL     1      52.843 243.528 324.522  0.00  0.00    +0.000 A 
ATOM      5  C   UNL     1      53.847 243.825 325.461  0.00  0.00    +0.000 A 
ATOM      6  C   UNL     1      53.738 243.426 326.792  0.00  0.00    +0.000 A 
ATOM      7  C   UNL     1      52.616 242.714 327.198  0.00  0.00    +0.000 A 
ATOM      8  C   UNL     1      51.609 242.396 326.295  0.00  0.00    +0.000 A 
ATOM      9  C   UNL     1      51.731 242.798 324.966  0.00  0.00    +0.000 A 
BRANCH   7  10
ATOM     10  O   UNL     1      52.476 242.312 328.493  0.00  0.00    +0.000 OA
ATOM     11  H   UNL     1      53.361 242.204 328.882  0.00  0.00    +0.000 HD
ENDBRANCH   7  10
ENDBRANCH   1   4
BRANCH   1  12
ATOM     12  C   UNL     1      54.076 245.061 322.915  0.00  0.00    +0.000 A 
ATOM     13  C   UNL     1      55.177 244.860 322.062  0.00  0.00    +0.000 A 
ATOM     14  C   UNL     1      56.172 245.824 321.922  0.00  0.00    +0.000 A 
ATOM     15  C   UNL     1      56.078 247.008 322.643  0.00  0.00    +0.000 A 
ATOM     16  C   UNL     1      55.008 247.237 323.500  0.00  0.00    +0.000 A 
ATOM     17  C   UNL     1      54.020 246.264 323.634  0.00  0.00    +0.000 A 
BRANCH  15  18
ATOM     18  O   UNL     1      57.032 247.975 322.525  0.00  0.00    +0.000 OA
ATOM     19  H   UNL     1      56.901 248.437 321.678  0.00  0.00    +0.000 HD
ENDBRANCH  15  18
ENDBRANCH   1  12
TORSDOF 4
ENDMDL
MODEL 2
REMARK VINA RESULT:      -5.3     30.199     32.530
REMARK  Name = Bisphenol_A.pdbqt.pdb
REMARK  4 active torsions:
REMARK  status: ('A' for Active; 'I' for Inactive)
REMARK    1  A    between atoms: C_1  and  C_4
REMARK    2  A    between atoms: C_1  and  C_12
REMARK    3  A    between atoms: C_7  and  O_10
REMARK    4  A    between atoms: C_15  and  O_18
REMARK                            x       y       z     vdW  Elec       q    Type
REMARK                         _______ _______ _______ _____ _____    ______ ____
ROOT
ATOM      1  C   UNL     1      64.279 230.158 349.760  0.00  0.00    +0.000 C 
ATOM      2  C   UNL     1      64.943 231.478 350.291  0.00  0.00    +0.000 C 
ATOM      3  C   UNL     1      64.161 230.267 348.198  0.00  0.00    +0.000 C 
ENDROOT
BRANCH   1   4
ATOM      4  C   UNL     1      65.194 228.999 350.182  0.00  0.00    +0.000 A 
ATOM      5  C   UNL     1      66.347 229.257 350.946  0.00  0.00    +0.000 A 
ATOM      6  C   UNL     1      67.209 228.232 351.330  0.00  0.00    +0.000 A 
ATOM      7  C   UNL     1      66.926 226.927 350.945  0.00  0.00    +0.000 A 
ATOM      8  C   UNL     1      65.801 226.637 350.183  0.00  0.00    +0.000 A 
ATOM      9  C   UNL     1      64.949 227.671 349.803  0.00  0.00    +0.000 A 
BRANCH   7  10
ATOM     10  O   UNL     1      67.746 225.899 351.308  0.00  0.00    +0.000 OA
ATOM     11  H   UNL     1      67.873 225.318 350.538  0.00  0.00    +0.000 HD
ENDBRANCH   7  10
ENDBRANCH   1   4
BRANCH   1  12
ATOM     12  C   UNL     1      62.854 229.978 350.302  0.00  0.00    +0.000 A 
ATOM     13  C   UNL     1      61.748 230.274 349.484  0.00  0.00    +0.000 A 
ATOM     14  C   UNL     1      60.443 230.139 349.949  0.00  0.00    +0.000 A 
ATOM     15  C   UNL     1      60.227 229.705 351.252  0.00  0.00    +0.000 A 
ATOM     16  C   UNL     1      61.296 229.410 352.089  0.00  0.00    +0.000 A 
ATOM     17  C   UNL     1      62.597 229.552 351.614  0.00  0.00    +0.000 A 
BRANCH  15  18
ATOM     18  O   UNL     1      58.962 229.556 351.738  0.00  0.00    +0.000 OA
ATOM     19  H   UNL     1      58.613 230.435 351.968  0.00  0.00    +0.000 HD
ENDBRANCH  15  18
ENDBRANCH   1  12
TORSDOF 4
ENDMDL
MODEL 3
REMARK VINA RESULT:      -5.3      9.163     12.037
REMARK  Name = Bisphenol_A.pdbqt.pdb
REMARK  4 active torsions:
REMARK  status: ('A' for Active; 'I' for Inactive)
REMARK    1  A    between atoms: C_1  and  C_4
REMARK    2  A    between atoms: C_1  and  C_12
REMARK    3  A    between atoms: C_7  and  O_10
REMARK    4  A    between atoms: C_15  and  O_18
REMARK                            x       y       z     vdW  Elec       q    Type
REMARK                         _______ _______ _______ _____ _____    ______ ____
ROOT
ATOM      1  C   UNL     1      46.253 235.919 323.199  0.00  0.00    +0.000 C 
ATOM      2  C   UNL     1      44.954 235.889 324.080  0.00  0.00    +0.000 C 
ATOM      3  C   UNL     1      45.903 236.620 321.839  0.00  0.00    +0.000 C 
ENDROOT
BRANCH   1   4
ATOM      4  C   UNL     1      47.309 236.706 323.990  0.00  0.00    +0.000 A 
ATOM      5  C   UNL     1      48.623 236.806 323.500  0.00  0.00    +0.000 A 
ATOM      6  C   UNL     1      49.610 237.497 324.200  0.00  0.00    +0.000 A 
ATOM      7  C   UNL     1      49.290 238.095 325.412  0.00  0.00    +0.000 A 
ATOM      8  C   UNL     1      48.004 238.010 325.931  0.00  0.00    +0.000 A 
ATOM      9  C   UNL     1      47.026 237.314 325.222  0.00  0.00    +0.000 A 
BRANCH   7  10
ATOM     10  O   UNL     1      50.230 238.783 326.121  0.00  0.00    +0.000 OA
ATOM     11  H   UNL     1      49.823 239.106 326.944  0.00  0.00    +0.000 HD
ENDBRANCH   7  10
ENDBRANCH   1   4
BRANCH   1  12
ATOM     12  C   UNL     1      46.743 234.505 322.857  0.00  0.00    +0.000 A 
ATOM     13  C   UNL     1      46.886 233.544 323.875  0.00  0.00    +0.000 A 
ATOM     14  C   UNL     1      47.344 232.258 323.602  0.00  0.00    +0.000 A 
ATOM     15  C   UNL     1      47.672 231.917 322.296  0.00  0.00    +0.000 A 
ATOM     16  C   UNL     1      47.550 232.842 321.266  0.00  0.00    +0.000 A 
ATOM     17  C   UNL     1      47.093 234.126 321.552  0.00  0.00    +0.000 A 
BRANCH  15  18
ATOM     18  O   UNL     1      48.118 230.664 321.992  0.00  0.00    +0.000 OA
ATOM     19  H   UNL     1      47.525 230.015 322.408  0.00  0.00    +0.000 HD
ENDBRANCH  15  18
ENDBRANCH   1  12
TORSDOF 4
ENDMDL
MODEL 4
REMARK VINA RESULT:      -5.2     26.765     28.888
REMARK  Name = Bisphenol_A.pdbqt.pdb
REMARK  4 active torsions:
REMARK  status: ('A' for Active; 'I' for Inactive)
REMARK    1  A    between atoms: C_1  and  C_4
REMARK    2  A    between atoms: C_1  and  C_12
REMARK    3  A    between atoms: C_7  and  O_10
REMARK    4  A    between atoms: C_15  and  O_18
REMARK                            x       y       z     vdW  Elec       q    Type
REMARK                         _______ _______ _______ _____ _____    ______ ____
ROOT
ATOM      1  C   UNL     1      56.567 216.739 333.695  0.00  0.00    +0.000 C 
ATOM      2  C   UNL     1      56.308 215.222 334.005  0.00  0.00    +0.000 C 
ATOM      3  C   UNL     1      57.699 216.828 332.611  0.00  0.00    +0.000 C 
ENDROOT
BRANCH   1   4
ATOM      4  C   UNL     1      55.241 217.321 333.182  0.00  0.00    +0.000 A 
ATOM      5  C   UNL     1      55.194 218.640 332.697  0.00  0.00    +0.000 A 
ATOM      6  C   UNL     1      54.005 219.205 332.241  0.00  0.00    +0.000 A 
ATOM      7  C   UNL     1      52.839 218.451 332.272  0.00  0.00    +0.000 A 
ATOM      8  C   UNL     1      52.847 217.147 332.752  0.00  0.00    +0.000 A 
ATOM      9  C   UNL     1      54.042 216.594 333.208  0.00  0.00    +0.000 A 
BRANCH   7  10
ATOM     10  O   UNL     1      51.659 218.971 331.829  0.00  0.00    +0.000 OA
ATOM     11  H   UNL     1      51.850 219.631 331.140  0.00  0.00    +0.000 HD
ENDBRANCH   7  10
ENDBRANCH   1   4
BRANCH   1  12
ATOM     12  C   UNL     1      57.075 217.496 334.930  0.00  0.00    +0.000 A 
ATOM     13  C   UNL     1      56.285 217.555 336.093  0.00  0.00    +0.000 A 
ATOM     14  C   UNL     1      56.707 218.248 337.225  0.00  0.00    +0.000 A 
ATOM     15  C   UNL     1      57.935 218.898 337.204  0.00  0.00    +0.000 A 
ATOM     16  C   UNL     1      58.739 218.866 336.071  0.00  0.00    +0.000 A 
ATOM     17  C   UNL     1      58.304 218.173 334.944  0.00  0.00    +0.000 A 
BRANCH  15  18
ATOM     18  O   UNL     1      58.382 219.580 338.297  0.00  0.00    +0.000 OA
ATOM     19  H   UNL     1      57.613 219.870 338.817  0.00  0.00    +0.000 HD
ENDBRANCH  15  18
ENDBRANCH   1  12
TORSDOF 4
ENDMDL
MODEL 5
REMARK VINA RESULT:      -5.1     26.817     28.928
REMARK  Name = Bisphenol_A.pdbqt.pdb
REMARK  4 active torsions:
REMARK  status: ('A' for Active; 'I' for Inactive)
REMARK    1  A    between atoms: C_1  and  C_4
REMARK    2  A    between atoms: C_1  and  C_12
REMARK    3  A    between atoms: C_7  and  O_10
REMARK    4  A    between atoms: C_15  and  O_18
REMARK                            x       y       z     vdW  Elec       q    Type
REMARK                         _______ _______ _______ _____ _____    ______ ____
ROOT
ATOM      1  C   UNL     1      56.522 216.678 333.959  0.00  0.00    +0.000 C 
ATOM      2  C   UNL     1      57.697 216.655 332.919  0.00  0.00    +0.000 C 
ATOM      3  C   UNL     1      56.191 215.194 334.352  0.00  0.00    +0.000 C 
ENDROOT
BRANCH   1   4
ATOM      4  C   UNL     1      57.013 217.490 335.167  0.00  0.00    +0.000 A 
ATOM      5  C   UNL     1      58.220 218.207 335.087  0.00  0.00    +0.000 A 
ATOM      6  C   UNL     1      58.704 218.940 336.169  0.00  0.00    +0.000 A 
ATOM      7  C   UNL     1      57.980 218.957 337.355  0.00  0.00    +0.000 A 
ATOM      8  C   UNL     1      56.787 218.254 337.472  0.00  0.00    +0.000 A 
ATOM      9  C   UNL     1      56.315 217.523 336.383  0.00  0.00    +0.000 A 
BRANCH   7  10
ATOM     10  O   UNL     1      58.422 219.667 338.432  0.00  0.00    +0.000 OA
ATOM     11  H   UNL     1      57.669 220.149 338.816  0.00  0.00    +0.000 HD
ENDBRANCH   7  10
ENDBRANCH   1   4
BRANCH   1  12
ATOM     12  C   UNL     1      55.241 217.275 333.360  0.00  0.00    +0.000 A 
ATOM     13  C   UNL     1      55.231 218.607 332.905  0.00  0.00    +0.000 A 
ATOM     14  C   UNL     1      54.082 219.185 332.373  0.00  0.00    +0.000 A 
ATOM     15  C   UNL     1      52.917 218.432 332.292  0.00  0.00    +0.000 A 
ATOM     16  C   UNL     1      52.888 217.116 332.737  0.00  0.00    +0.000 A 
ATOM     17  C   UNL     1      54.044 216.549 333.271  0.00  0.00    +0.000 A 
BRANCH  15  18
ATOM     18  O   UNL     1      51.776 218.965 331.771  0.00  0.00    +0.000 OA
ATOM     19  H   UNL     1      51.808 218.878 330.802  0.00  0.00    +0.000 HD
ENDBRANCH  15  18
ENDBRANCH   1  12
TORSDOF 4
ENDMDL
MODEL 6
REMARK VINA RESULT:      -5.1     29.801     32.769
REMARK  Name = Bisphenol_A.pdbqt.pdb
REMARK  4 active torsions:
REMARK  status: ('A' for Active; 'I' for Inactive)
REMARK    1  A    between atoms: C_1  and  C_4
REMARK    2  A    between atoms: C_1  and  C_12
REMARK    3  A    between atoms: C_7  and  O_10
REMARK    4  A    between atoms: C_15  and  O_18
REMARK                            x       y       z     vdW  Elec       q    Type
REMARK                         _______ _______ _______ _____ _____    ______ ____
ROOT
ATOM      1  C   UNL     1      63.848 229.422 351.672  0.00  0.00    +0.000 C 
ATOM      2  C   UNL     1      62.400 229.922 352.013  0.00  0.00    +0.000 C 
ATOM      3  C   UNL     1      64.849 230.113 352.665  0.00  0.00    +0.000 C 
ENDROOT
BRANCH   1   4
ATOM      4  C   UNL     1      63.843 227.895 351.840  0.00  0.00    +0.000 A 
ATOM      5  C   UNL     1      63.074 227.304 352.858  0.00  0.00    +0.000 A 
ATOM      6  C   UNL     1      63.060 225.924 353.051  0.00  0.00    +0.000 A 
ATOM      7  C   UNL     1      63.828 225.115 352.222  0.00  0.00    +0.000 A 
ATOM      8  C   UNL     1      64.606 225.666 351.212  0.00  0.00    +0.000 A 
ATOM      9  C   UNL     1      64.614 227.048 351.031  0.00  0.00    +0.000 A 
BRANCH   7  10
ATOM     10  O   UNL     1      63.834 223.761 352.380  0.00  0.00    +0.000 OA
ATOM     11  H   UNL     1      63.855 223.346 351.500  0.00  0.00    +0.000 HD
ENDBRANCH   7  10
ENDBRANCH   1   4
BRANCH   1  12
ATOM     12  C   UNL     1      64.274 229.833 350.255  0.00  0.00    +0.000 A 
ATOM     13  C   UNL     1      63.328 229.850 349.214  0.00  0.00    +0.000 A 
ATOM     14  C   UNL     1      63.684 230.200 347.914  0.00  0.00    +0.000 A 
ATOM     15  C   UNL     1      65.004 230.536 347.638  0.00  0.00    +0.000 A 
ATOM     16  C   UNL     1      65.966 230.523 348.640  0.00  0.00    +0.000 A 
ATOM     17  C   UNL     1      65.599 230.168 349.936  0.00  0.00    +0.000 A 
BRANCH  15  18
ATOM     18  O   UNL     1      65.385 230.889 346.377  0.00  0.00    +0.000 OA
ATOM     19  H   UNL     1      66.345 230.747 346.293  0.00  0.00    +0.000 HD
ENDBRANCH  15  18
ENDBRANCH   1  12
TORSDOF 4
ENDMDL
MODEL 7
REMARK VINA RESULT:      -5.0      1.431      2.132
REMARK  Name = Bisphenol_A.pdbqt.pdb
REMARK  4 active torsions:
REMARK  status: ('A' for Active; 'I' for Inactive)
REMARK    1  A    between atoms: C_1  and  C_4
REMARK    2  A    between atoms: C_1  and  C_12
REMARK    3  A    between atoms: C_7  and  O_10
REMARK    4  A    between atoms: C_15  and  O_18
REMARK                            x       y       z     vdW  Elec       q    Type
REMARK                         _______ _______ _______ _____ _____    ______ ____
ROOT
ATOM      1  C   UNL     1      53.514 245.383 323.628  0.00  0.00    +0.000 C 
ATOM      2  C   UNL     1      54.190 244.257 322.769  0.00  0.00    +0.000 C 
ATOM      3  C   UNL     1      52.235 245.877 322.864  0.00  0.00    +0.000 C 
ENDROOT
BRANCH   1   4
ATOM      4  C   UNL     1      53.159 244.755 324.985  0.00  0.00    +0.000 A 
ATOM      5  C   UNL     1      54.049 243.852 325.594  0.00  0.00    +0.000 A 
ATOM      6  C   UNL     1      53.751 243.250 326.815  0.00  0.00    +0.000 A 
ATOM      7  C   UNL     1      52.546 243.544 327.441  0.00  0.00    +0.000 A 
ATOM      8  C   UNL     1      51.640 244.425 326.864  0.00  0.00    +0.000 A 
ATOM      9  C   UNL     1      51.948 245.018 325.641  0.00  0.00    +0.000 A 
BRANCH   7  10
ATOM     10  O   UNL     1      52.224 242.977 328.638  0.00  0.00    +0.000 OA
ATOM     11  H   UNL     1      51.379 243.350 328.942  0.00  0.00    +0.000 HD
ENDBRANCH   7  10
ENDBRANCH   1   4
BRANCH   1  12
ATOM     12  C   UNL     1      54.432 246.603 323.794  0.00  0.00    +0.000 A 
ATOM     13  C   UNL     1      54.181 247.537 324.815  0.00  0.00    +0.000 A 
ATOM     14  C   UNL     1      54.983 248.664 324.983  0.00  0.00    +0.000 A 
ATOM     15  C   UNL     1      56.051 248.872 324.118  0.00  0.00    +0.000 A 
ATOM     16  C   UNL     1      56.324 247.973 323.094  0.00  0.00    +0.000 A 
ATOM     17  C   UNL     1      55.513 246.851 322.935  0.00  0.00    +0.000 A 
BRANCH  15  18
ATOM     18  O   UNL     1      56.860 249.961 324.257  0.00  0.00    +0.000 OA
ATOM     19  H   UNL     1      56.744 250.534 323.479  0.00  0.00    +0.000 HD
ENDBRANCH  15  18
ENDBRANCH   1  12
TORSDOF 4
ENDMDL
MODEL 8
REMARK VINA RESULT:      -5.0     31.200     33.255
REMARK  Name = Bisphenol_A.pdbqt.pdb
REMARK  4 active torsions:
REMARK  status: ('A' for Active; 'I' for Inactive)
REMARK    1  A    between atoms: C_1  and  C_4
REMARK    2  A    between atoms: C_1  and  C_12
REMARK    3  A    between atoms: C_7  and  O_10
REMARK    4  A    between atoms: C_15  and  O_18
REMARK                            x       y       z     vdW  Elec       q    Type
REMARK                         _______ _______ _______ _____ _____    ______ ____
ROOT
ATOM      1  C   UNL     1      70.237 219.737 339.872  0.00  0.00    +0.000 C 
ATOM      2  C   UNL     1      71.126 218.729 339.061  0.00  0.00    +0.000 C 
ATOM      3  C   UNL     1      68.820 219.089 340.066  0.00  0.00    +0.000 C 
ENDROOT
BRANCH   1   4
ATOM      4  C   UNL     1      70.944 219.972 341.216  0.00  0.00    +0.000 A 
ATOM      5  C   UNL     1      72.346 220.065 341.264  0.00  0.00    +0.000 A 
ATOM      6  C   UNL     1      73.021 220.260 342.467  0.00  0.00    +0.000 A 
ATOM      7  C   UNL     1      72.292 220.358 343.646  0.00  0.00    +0.000 A 
ATOM      8  C   UNL     1      70.906 220.262 343.637  0.00  0.00    +0.000 A 
ATOM      9  C   UNL     1      70.244 220.065 342.427  0.00  0.00    +0.000 A 
BRANCH   7  10
ATOM     10  O   UNL     1      72.920 220.553 344.841  0.00  0.00    +0.000 OA
ATOM     11  H   UNL     1      72.265 220.865 345.488  0.00  0.00    +0.000 HD
ENDBRANCH   7  10
ENDBRANCH   1   4
BRANCH   1  12
ATOM     12  C   UNL     1      70.023 221.052 339.109  0.00  0.00    +0.000 A 
ATOM     13  C   UNL     1      70.206 222.283 339.765  0.00  0.00    +0.000 A 
ATOM     14  C   UNL     1      70.003 223.494 339.108  0.00  0.00    +0.000 A 
ATOM     15  C   UNL     1      69.608 223.486 337.775  0.00  0.00    +0.000 A 
ATOM     16  C   UNL     1      69.412 222.289 337.098  0.00  0.00    +0.000 A 
ATOM     17  C   UNL     1      69.615 221.084 337.767  0.00  0.00    +0.000 A 
BRANCH  15  18
ATOM     18  O   UNL     1      69.407 224.653 337.100  0.00  0.00    +0.000 OA
ATOM     19  H   UNL     1      68.457 224.864 337.121  0.00  0.00    +0.000 HD
ENDBRANCH  15  18
ENDBRANCH   1  12
TORSDOF 4
ENDMDL
MODEL 9
REMARK VINA RESULT:      -4.9      1.419      5.837
REMARK  Name = Bisphenol_A.pdbqt.pdb
REMARK  4 active torsions:
REMARK  status: ('A' for Active; 'I' for Inactive)
REMARK    1  A    between atoms: C_1  and  C_4
REMARK    2  A    between atoms: C_1  and  C_12
REMARK    3  A    between atoms: C_7  and  O_10
REMARK    4  A    between atoms: C_15  and  O_18
REMARK                            x       y       z     vdW  Elec       q    Type
REMARK                         _______ _______ _______ _____ _____    ______ ____
ROOT
ATOM      1  C   UNL     1      53.091 246.373 324.678  0.00  0.00    +0.000 C 
ATOM      2  C   UNL     1      53.582 247.316 325.832  0.00  0.00    +0.000 C 
ATOM      3  C   UNL     1      51.835 247.035 324.008  0.00  0.00    +0.000 C 
ENDROOT
BRANCH   1   4
ATOM      4  C   UNL     1      54.258 246.237 323.688  0.00  0.00    +0.000 A 
ATOM      5  C   UNL     1      55.164 247.299 323.521  0.00  0.00    +0.000 A 
ATOM      6  C   UNL     1      56.223 247.217 322.620  0.00  0.00    +0.000 A 
ATOM      7  C   UNL     1      56.383 246.062 321.864  0.00  0.00    +0.000 A 
ATOM      8  C   UNL     1      55.502 244.996 321.997  0.00  0.00    +0.000 A 
ATOM      9  C   UNL     1      54.445 245.092 322.900  0.00  0.00    +0.000 A 
BRANCH   7  10
ATOM     10  O   UNL     1      57.411 245.946 320.975  0.00  0.00    +0.000 OA
ATOM     11  H   UNL     1      58.068 245.327 321.340  0.00  0.00    +0.000 HD
ENDBRANCH   7  10
ENDBRANCH   1   4
BRANCH   1  12
ATOM     12  C   UNL     1      52.640 245.005 325.211  0.00  0.00    +0.000 A 
ATOM     13  C   UNL     1      53.431 244.322 326.153  0.00  0.00    +0.000 A 
ATOM     14  C   UNL     1      53.061 243.073 326.644  0.00  0.00    +0.000 A 
ATOM     15  C   UNL     1      51.886 242.485 326.189  0.00  0.00    +0.000 A 
ATOM     16  C   UNL     1      51.084 243.128 325.254  0.00  0.00    +0.000 A 
ATOM     17  C   UNL     1      51.467 244.376 324.768  0.00  0.00    +0.000 A 
BRANCH  15  18
ATOM     18  O   UNL     1      51.491 241.265 326.653  0.00  0.00    +0.000 OA
ATOM     19  H   UNL     1      51.526 240.628 325.918  0.00  0.00    +0.000 HD
ENDBRANCH  15  18
ENDBRANCH   1  12
TORSDOF 4
ENDMDL
