REMARK  Name = Bisphenol_A.pdbqt.pdb
REMARK  4 active torsions:
REMARK  status: ('A' for Active; 'I' for Inactive)
REMARK    1  A    between atoms: C_1  and  C_4
REMARK    2  A    between atoms: C_1  and  C_12
REMARK    3  A    between atoms: C_7  and  O_10
REMARK    4  A    between atoms: C_15  and  O_18
REMARK                            x       y       z     vdW  Elec       q    Type
REMARK                         _______ _______ _______ _____ _____    ______ ____
ROOT
ATOM      1  C   UNL     1      -0.006  -1.450   0.000  0.00  0.00    +0.000 C 
ATOM      2  C   UNL     1      -0.086  -2.372   1.268  0.00  0.00    +0.000 C 
ATOM      3  C   UNL     1       0.064  -2.372  -1.269  0.00  0.00    +0.000 C 
ENDROOT
BRANCH   1   4
ATOM      4  C   UNL     1      -1.272  -0.580   0.002  0.00  0.00    +0.000 A 
ATOM      5  C   UNL     1      -1.421   0.440   0.959  0.00  0.00    +0.000 A 
ATOM      6  C   UNL     1      -2.564   1.236   1.001  0.00  0.00    +0.000 A 
ATOM      7  C   UNL     1      -3.581   1.013   0.081  0.00  0.00    +0.000 A 
ATOM      8  C   UNL     1      -3.471   0.009  -0.873  0.00  0.00    +0.000 A 
ATOM      9  C   UNL     1      -2.324  -0.782  -0.903  0.00  0.00    +0.000 A 
BRANCH   7  10
ATOM     10  O   UNL     1      -4.711   1.776   0.091  0.00  0.00    +0.000 OA
ATOM     11  H   UNL     1      -4.654   2.405   0.831  0.00  0.00    +0.000 HD
ENDBRANCH   7  10
ENDBRANCH   1   4
BRANCH   1  12
ATOM     12  C   UNL     1       1.268  -0.593  -0.003  0.00  0.00    +0.000 A 
ATOM     13  C   UNL     1       1.427   0.427  -0.959  0.00  0.00    +0.000 A 
ATOM     14  C   UNL     1       2.577   1.211  -1.001  0.00  0.00    +0.000 A 
ATOM     15  C   UNL     1       3.592   0.978  -0.081  0.00  0.00    +0.000 A 
ATOM     16  C   UNL     1       3.472  -0.025   0.873  0.00  0.00    +0.000 A 
ATOM     17  C   UNL     1       2.318  -0.805   0.903  0.00  0.00    +0.000 A 
BRANCH  15  18
ATOM     18  O   UNL     1       4.729   1.731  -0.090  0.00  0.00    +0.000 OA
ATOM     19  H   UNL     1       4.678   2.360  -0.831  0.00  0.00    +0.000 HD
ENDBRANCH  15  18
ENDBRANCH   1  12
TORSDOF 4
