MODEL 1
REMARK VINA RESULT:      -5.5      0.000      0.000
REMARK  Name = BX795.pdbqt.pdb
REMARK  7 active torsions:
REMARK  status: ('A' for Active; 'I' for Inactive)
REMARK    1  A    between atoms: C_4  and  N_25
REMARK    2  A    between atoms: N_8  and  C_10
REMARK    3  A    between atoms: C_12  and  N_16
REMARK    4  A    between atoms: N_25  and  C_27
REMARK    5  A    between atoms: C_27  and  C_28
REMARK    6  A    between atoms: C_29  and  N_30
REMARK    7  A    between atoms: C_31  and  C_34
REMARK                            x       y       z     vdW  Elec       q    Type
REMARK                         _______ _______ _______ _____ _____    ______ ____
ROOT
ATOM      1  I   UNL     1      65.376 218.285 336.343  0.00  0.00    +0.000 I 
ATOM      2  N   UNL     1      68.063 219.377 339.551  0.00  0.00    +0.000 NA
ATOM      3  N   UNL     1      67.513 217.110 339.860  0.00  0.00    +0.000 NA
ATOM      4  C   UNL     1      67.265 219.457 338.465  0.00  0.00    +0.000 A 
ATOM      5  C   UNL     1      68.165 218.218 340.218  0.00  0.00    +0.000 A 
ATOM      6  C   UNL     1      66.598 218.341 338.002  0.00  0.00    +0.000 A 
ATOM      7  C   UNL     1      66.759 217.199 338.749  0.00  0.00    +0.000 A 
ATOM      8  N   UNL     1      68.941 218.137 341.370  0.00  0.00    +0.000 N 
ATOM      9  H   UNL     1      68.863 217.229 341.803  0.00  0.00    +0.000 HD
ENDROOT
BRANCH   8  10
ATOM     10  C   UNL     1      69.909 219.015 341.869  0.00  0.00    +0.000 A 
ATOM     11  C   UNL     1      69.910 219.454 343.197  0.00  0.00    +0.000 A 
ATOM     12  C   UNL     1      70.933 220.249 343.712  0.00  0.00    +0.000 A 
ATOM     13  C   UNL     1      72.001 220.596 342.891  0.00  0.00    +0.000 A 
ATOM     14  C   UNL     1      72.031 220.162 341.568  0.00  0.00    +0.000 A 
ATOM     15  C   UNL     1      70.994 219.376 341.065  0.00  0.00    +0.000 A 
BRANCH  12  16
ATOM     16  N   UNL     1      70.801 220.698 345.038  0.00  0.00    +0.000 N 
ATOM     17  C   UNL     1      71.394 220.133 346.152  0.00  0.00    +0.000 C 
ATOM     18  O   UNL     1      72.011 219.068 346.141  0.00  0.00    +0.000 OA
ATOM     19  N   UNL     1      71.207 220.871 347.321  0.00  0.00    +0.000 N 
ATOM     20  C   UNL     1      70.551 222.039 347.576  0.00  0.00    +0.000 A 
ATOM     21  C   UNL     1      71.646 220.597 348.581  0.00  0.00    +0.000 A 
ATOM     22  C   UNL     1      70.500 222.605 348.999  0.00  0.00    +0.000 A 
ATOM     23  C   UNL     1      71.311 221.536 349.745  0.00  0.00    +0.000 A 
ATOM     24  H   UNL     1      70.153 221.462 345.194  0.00  0.00    +0.000 HD
ENDBRANCH  12  16
ENDBRANCH   8  10
BRANCH   4  25
ATOM     25  N   UNL     1      67.184 220.691 337.770  0.00  0.00    +0.000 N 
ATOM     26  H   UNL     1      66.396 221.231 338.122  0.00  0.00    +0.000 HD
BRANCH  25  27
ATOM     27  C   UNL     1      68.430 221.445 337.659  0.00  0.00    +0.000 C 
BRANCH  27  28
ATOM     28  C   UNL     1      69.680 222.326 337.560  0.00  0.00    +0.000 C 
ATOM     29  C   UNL     1      70.980 223.127 337.451  0.00  0.00    +0.000 C 
BRANCH  29  30
ATOM     30  N   UNL     1      72.149 223.794 337.324  0.00  0.00    +0.000 N 
ATOM     31  C   UNL     1      73.165 223.956 338.255  0.00  0.00    +0.000 C 
ATOM     32  O   UNL     1      73.094 223.438 339.368  0.00  0.00    +0.000 OA
ATOM     33  H   UNL     1      72.241 224.281 336.440  0.00  0.00    +0.000 HD
BRANCH  31  34
ATOM     34  C   UNL     1      74.273 224.787 337.814  0.00  0.00    +0.000 A 
ATOM     35  S   UNL     1      75.692 224.911 338.780  0.00  0.00    +0.000 S 
ATOM     36  C   UNL     1      76.413 225.978 337.679  0.00  0.00    +0.000 A 
ATOM     37  C   UNL     1      75.625 226.249 336.596  0.00  0.00    +0.000 A 
ATOM     38  C   UNL     1      74.393 225.561 336.678  0.00  0.00    +0.000 A 
ENDBRANCH  31  34
ENDBRANCH  29  30
ENDBRANCH  27  28
ENDBRANCH  25  27
ENDBRANCH   4  25
TORSDOF 7
ENDMDL
MODEL 2
REMARK VINA RESULT:      -5.3     18.398     23.103
REMARK  Name = BX795.pdbqt.pdb
REMARK  7 active torsions:
REMARK  status: ('A' for Active; 'I' for Inactive)
REMARK    1  A    between atoms: C_4  and  N_25
REMARK    2  A    between atoms: N_8  and  C_10
REMARK    3  A    between atoms: C_12  and  N_16
REMARK    4  A    between atoms: N_25  and  C_27
REMARK    5  A    between atoms: C_27  and  C_28
REMARK    6  A    between atoms: C_29  and  N_30
REMARK    7  A    between atoms: C_31  and  C_34
REMARK                            x       y       z     vdW  Elec       q    Type
REMARK                         _______ _______ _______ _____ _____    ______ ____
ROOT
ATOM      1  I   UNL     1      69.915 243.883 324.887  0.00  0.00    +0.000 I 
ATOM      2  N   UNL     1      67.804 243.352 328.624  0.00  0.00    +0.000 NA
ATOM      3  N   UNL     1      67.855 245.664 328.189  0.00  0.00    +0.000 NA
ATOM      4  C   UNL     1      68.510 243.092 327.504  0.00  0.00    +0.000 A 
ATOM      5  C   UNL     1      67.499 244.619 328.940  0.00  0.00    +0.000 A 
ATOM      6  C   UNL     1      68.872 244.115 326.650  0.00  0.00    +0.000 A 
ATOM      7  C   UNL     1      68.520 245.379 327.054  0.00  0.00    +0.000 A 
ATOM      8  N   UNL     1      66.818 244.906 330.118  0.00  0.00    +0.000 N 
ATOM      9  H   UNL     1      66.725 245.901 330.258  0.00  0.00    +0.000 HD
ENDROOT
BRANCH   8  10
ATOM     10  C   UNL     1      66.113 244.059 330.982  0.00  0.00    +0.000 A 
ATOM     11  C   UNL     1      66.740 243.052 331.722  0.00  0.00    +0.000 A 
ATOM     12  C   UNL     1      66.048 242.279 332.652  0.00  0.00    +0.000 A 
ATOM     13  C   UNL     1      64.699 242.532 332.874  0.00  0.00    +0.000 A 
ATOM     14  C   UNL     1      64.052 243.536 332.159  0.00  0.00    +0.000 A 
ATOM     15  C   UNL     1      64.757 244.294 331.224  0.00  0.00    +0.000 A 
BRANCH  12  16
ATOM     16  N   UNL     1      66.754 241.243 333.290  0.00  0.00    +0.000 N 
ATOM     17  C   UNL     1      67.021 241.152 334.644  0.00  0.00    +0.000 C 
ATOM     18  O   UNL     1      66.789 242.047 335.456  0.00  0.00    +0.000 OA
ATOM     19  N   UNL     1      67.613 239.945 335.017  0.00  0.00    +0.000 N 
ATOM     20  C   UNL     1      67.982 238.843 334.306  0.00  0.00    +0.000 A 
ATOM     21  C   UNL     1      68.008 239.538 336.256  0.00  0.00    +0.000 A 
ATOM     22  C   UNL     1      68.646 237.653 335.007  0.00  0.00    +0.000 A 
ATOM     23  C   UNL     1      68.666 238.168 336.454  0.00  0.00    +0.000 A 
ATOM     24  H   UNL     1      67.165 240.539 332.688  0.00  0.00    +0.000 HD
ENDBRANCH  12  16
ENDBRANCH   8  10
BRANCH   4  25
ATOM     25  N   UNL     1      68.810 241.742 327.187  0.00  0.00    +0.000 N 
ATOM     26  H   UNL     1      69.247 241.694 326.269  0.00  0.00    +0.000 HD
BRANCH  25  27
ATOM     27  C   UNL     1      69.501 240.981 328.224  0.00  0.00    +0.000 C 
BRANCH  27  28
ATOM     28  C   UNL     1      70.317 240.197 329.257  0.00  0.00    +0.000 C 
ATOM     29  C   UNL     1      71.056 239.407 330.341  0.00  0.00    +0.000 C 
BRANCH  29  30
ATOM     30  N   UNL     1      71.659 238.684 331.311  0.00  0.00    +0.000 N 
ATOM     31  C   UNL     1      71.926 237.323 331.345  0.00  0.00    +0.000 C 
ATOM     32  O   UNL     1      71.634 236.595 330.397  0.00  0.00    +0.000 OA
ATOM     33  H   UNL     1      71.882 239.226 332.138  0.00  0.00    +0.000 HD
BRANCH  31  34
ATOM     34  C   UNL     1      72.542 236.850 332.573  0.00  0.00    +0.000 A 
ATOM     35  S   UNL     1      71.830 235.548 333.446  0.00  0.00    +0.000 S 
ATOM     36  C   UNL     1      73.029 235.623 334.641  0.00  0.00    +0.000 A 
ATOM     37  C   UNL     1      73.961 236.596 334.409  0.00  0.00    +0.000 A 
ATOM     38  C   UNL     1      73.676 237.300 333.217  0.00  0.00    +0.000 A 
ENDBRANCH  31  34
ENDBRANCH  29  30
ENDBRANCH  27  28
ENDBRANCH  25  27
ENDBRANCH   4  25
TORSDOF 7
ENDMDL
MODEL 3
REMARK VINA RESULT:      -5.0     26.707     28.552
REMARK  Name = BX795.pdbqt.pdb
REMARK  7 active torsions:
REMARK  status: ('A' for Active; 'I' for Inactive)
REMARK    1  A    between atoms: C_4  and  N_25
REMARK    2  A    between atoms: N_8  and  C_10
REMARK    3  A    between atoms: C_12  and  N_16
REMARK    4  A    between atoms: N_25  and  C_27
REMARK    5  A    between atoms: C_27  and  C_28
REMARK    6  A    between atoms: C_29  and  N_30
REMARK    7  A    between atoms: C_31  and  C_34
REMARK                            x       y       z     vdW  Elec       q    Type
REMARK                         _______ _______ _______ _____ _____    ______ ____
ROOT
ATOM      1  I   UNL     1      47.010 242.718 353.283  0.00  0.00    +0.000 I 
ATOM      2  N   UNL     1      50.288 241.071 350.993  0.00  0.00    +0.000 NA
ATOM      3  N   UNL     1      48.821 239.292 351.467  0.00  0.00    +0.000 NA
ATOM      4  C   UNL     1      49.511 241.937 351.677  0.00  0.00    +0.000 A 
ATOM      5  C   UNL     1      49.930 239.781 350.907  0.00  0.00    +0.000 A 
ATOM      6  C   UNL     1      48.323 241.518 352.242  0.00  0.00    +0.000 A 
ATOM      7  C   UNL     1      48.039 240.181 352.106  0.00  0.00    +0.000 A 
ATOM      8  N   UNL     1      50.748 238.867 350.251  0.00  0.00    +0.000 N 
ATOM      9  H   UNL     1      50.390 237.927 350.331  0.00  0.00    +0.000 HD
ENDROOT
BRANCH   8  10
ATOM     10  C   UNL     1      51.823 239.081 349.380  0.00  0.00    +0.000 A 
ATOM     11  C   UNL     1      53.123 239.316 349.838  0.00  0.00    +0.000 A 
ATOM     12  C   UNL     1      54.204 239.430 348.965  0.00  0.00    +0.000 A 
ATOM     13  C   UNL     1      53.992 239.279 347.599  0.00  0.00    +0.000 A 
ATOM     14  C   UNL     1      52.709 239.033 347.117  0.00  0.00    +0.000 A 
ATOM     15  C   UNL     1      51.636 238.933 348.003  0.00  0.00    +0.000 A 
BRANCH  12  16
ATOM     16  N   UNL     1      55.458 239.740 349.522  0.00  0.00    +0.000 N 
ATOM     17  C   UNL     1      56.192 240.890 349.287  0.00  0.00    +0.000 C 
ATOM     18  O   UNL     1      55.899 241.736 348.444  0.00  0.00    +0.000 OA
ATOM     19  N   UNL     1      57.331 240.998 350.085  0.00  0.00    +0.000 N 
ATOM     20  C   UNL     1      57.861 240.190 351.046  0.00  0.00    +0.000 A 
ATOM     21  C   UNL     1      58.266 241.988 350.103  0.00  0.00    +0.000 A 
ATOM     22  C   UNL     1      59.167 240.574 351.749  0.00  0.00    +0.000 A 
ATOM     23  C   UNL     1      59.469 241.908 351.050  0.00  0.00    +0.000 A 
ATOM     24  H   UNL     1      55.891 239.021 350.088  0.00  0.00    +0.000 HD
ENDBRANCH  12  16
ENDBRANCH   8  10
BRANCH   4  25
ATOM     25  N   UNL     1      49.906 243.298 351.744  0.00  0.00    +0.000 N 
ATOM     26  H   UNL     1      49.840 243.628 352.704  0.00  0.00    +0.000 HD
BRANCH  25  27
ATOM     27  C   UNL     1      51.162 243.632 351.077  0.00  0.00    +0.000 C 
BRANCH  27  28
ATOM     28  C   UNL     1      52.421 244.006 350.288  0.00  0.00    +0.000 C 
ATOM     29  C   UNL     1      53.726 244.385 349.582  0.00  0.00    +0.000 C 
BRANCH  29  30
ATOM     30  N   UNL     1      54.906 244.697 349.001  0.00  0.00    +0.000 N 
ATOM     31  C   UNL     1      55.145 245.200 347.730  0.00  0.00    +0.000 C 
ATOM     32  O   UNL     1      54.217 245.454 346.963  0.00  0.00    +0.000 OA
ATOM     33  H   UNL     1      55.711 244.465 349.572  0.00  0.00    +0.000 HD
BRANCH  31  34
ATOM     34  C   UNL     1      56.548 245.372 347.393  0.00  0.00    +0.000 A 
ATOM     35  S   UNL     1      56.995 245.901 345.817  0.00  0.00    +0.000 S 
ATOM     36  C   UNL     1      58.644 245.830 346.202  0.00  0.00    +0.000 A 
ATOM     37  C   UNL     1      58.880 245.422 347.485  0.00  0.00    +0.000 A 
ATOM     38  C   UNL     1      57.670 245.160 348.167  0.00  0.00    +0.000 A 
ENDBRANCH  31  34
ENDBRANCH  29  30
ENDBRANCH  27  28
ENDBRANCH  25  27
ENDBRANCH   4  25
TORSDOF 7
ENDMDL
MODEL 4
REMARK VINA RESULT:      -5.0      6.033      9.936
REMARK  Name = BX795.pdbqt.pdb
REMARK  7 active torsions:
REMARK  status: ('A' for Active; 'I' for Inactive)
REMARK    1  A    between atoms: C_4  and  N_25
REMARK    2  A    between atoms: N_8  and  C_10
REMARK    3  A    between atoms: C_12  and  N_16
REMARK    4  A    between atoms: N_25  and  C_27
REMARK    5  A    between atoms: C_27  and  C_28
REMARK    6  A    between atoms: C_29  and  N_30
REMARK    7  A    between atoms: C_31  and  C_34
REMARK                            x       y       z     vdW  Elec       q    Type
REMARK                         _______ _______ _______ _____ _____    ______ ____
ROOT
ATOM      1  I   UNL     1      77.066 224.086 330.367  0.00  0.00    +0.000 I 
ATOM      2  N   UNL     1      76.335 224.483 334.611  0.00  0.00    +0.000 NA
ATOM      3  N   UNL     1      77.051 226.588 333.839  0.00  0.00    +0.000 NA
ATOM      4  C   UNL     1      76.468 223.949 333.378  0.00  0.00    +0.000 A 
ATOM      5  C   UNL     1      76.629 225.776 334.811  0.00  0.00    +0.000 A 
ATOM      6  C   UNL     1      76.852 224.736 332.311  0.00  0.00    +0.000 A 
ATOM      7  C   UNL     1      77.135 226.046 332.609  0.00  0.00    +0.000 A 
ATOM      8  N   UNL     1      76.547 226.326 336.086  0.00  0.00    +0.000 N 
ATOM      9  H   UNL     1      76.868 227.282 336.097  0.00  0.00    +0.000 HD
ENDROOT
BRANCH   8  10
ATOM     10  C   UNL     1      75.933 225.834 337.243  0.00  0.00    +0.000 A 
ATOM     11  C   UNL     1      74.749 225.091 337.205  0.00  0.00    +0.000 A 
ATOM     12  C   UNL     1      74.196 224.521 338.351  0.00  0.00    +0.000 A 
ATOM     13  C   UNL     1      74.855 224.671 339.567  0.00  0.00    +0.000 A 
ATOM     14  C   UNL     1      76.041 225.396 339.632  0.00  0.00    +0.000 A 
ATOM     15  C   UNL     1      76.575 225.969 338.477  0.00  0.00    +0.000 A 
BRANCH  12  16
ATOM     16  N   UNL     1      72.964 223.857 338.217  0.00  0.00    +0.000 N 
ATOM     17  C   UNL     1      72.723 222.523 338.497  0.00  0.00    +0.000 C 
ATOM     18  O   UNL     1      73.600 221.706 338.773  0.00  0.00    +0.000 OA
ATOM     19  N   UNL     1      71.376 222.170 338.412  0.00  0.00    +0.000 N 
ATOM     20  C   UNL     1      70.256 222.881 338.103  0.00  0.00    +0.000 A 
ATOM     21  C   UNL     1      70.802 220.951 338.615  0.00  0.00    +0.000 A 
ATOM     22  C   UNL     1      68.885 222.196 338.069  0.00  0.00    +0.000 A 
ATOM     23  C   UNL     1      69.290 220.764 338.449  0.00  0.00    +0.000 A 
ATOM     24  H   UNL     1      72.206 224.390 337.808  0.00  0.00    +0.000 HD
ENDBRANCH  12  16
ENDBRANCH   8  10
BRANCH   4  25
ATOM     25  N   UNL     1      76.140 222.581 333.191  0.00  0.00    +0.000 N 
ATOM     26  H   UNL     1      76.941 222.000 333.429  0.00  0.00    +0.000 HD
BRANCH  25  27
ATOM     27  C   UNL     1      74.879 222.141 333.781  0.00  0.00    +0.000 C 
BRANCH  27  28
ATOM     28  C   UNL     1      73.521 221.655 334.300  0.00  0.00    +0.000 C 
ATOM     29  C   UNL     1      72.136 221.164 334.729  0.00  0.00    +0.000 C 
BRANCH  29  30
ATOM     30  N   UNL     1      70.909 220.703 335.060  0.00  0.00    +0.000 N 
ATOM     31  C   UNL     1      69.994 220.019 334.271  0.00  0.00    +0.000 C 
ATOM     32  O   UNL     1      70.256 219.724 333.106  0.00  0.00    +0.000 OA
ATOM     33  H   UNL     1      70.621 220.957 335.998  0.00  0.00    +0.000 HD
BRANCH  31  34
ATOM     34  C   UNL     1      68.732 219.715 334.923  0.00  0.00    +0.000 A 
ATOM     35  S   UNL     1      68.507 218.191 335.692  0.00  0.00    +0.000 S 
ATOM     36  C   UNL     1      66.922 218.590 336.139  0.00  0.00    +0.000 A 
ATOM     37  C   UNL     1      66.546 219.840 335.732  0.00  0.00    +0.000 A 
ATOM     38  C   UNL     1      67.591 220.483 335.033  0.00  0.00    +0.000 A 
ENDBRANCH  31  34
ENDBRANCH  29  30
ENDBRANCH  27  28
ENDBRANCH  25  27
ENDBRANCH   4  25
TORSDOF 7
ENDMDL
MODEL 5
REMARK VINA RESULT:      -5.0     32.031     34.426
REMARK  Name = BX795.pdbqt.pdb
REMARK  7 active torsions:
REMARK  status: ('A' for Active; 'I' for Inactive)
REMARK    1  A    between atoms: C_4  and  N_25
REMARK    2  A    between atoms: N_8  and  C_10
REMARK    3  A    between atoms: C_12  and  N_16
REMARK    4  A    between atoms: N_25  and  C_27
REMARK    5  A    between atoms: C_27  and  C_28
REMARK    6  A    between atoms: C_29  and  N_30
REMARK    7  A    between atoms: C_31  and  C_34
REMARK                            x       y       z     vdW  Elec       q    Type
REMARK                         _______ _______ _______ _____ _____    ______ ____
ROOT
ATOM      1  I   UNL     1      48.145 246.198 318.962  0.00  0.00    +0.000 I 
ATOM      2  N   UNL     1      50.472 244.704 322.287  0.00  0.00    +0.000 NA
ATOM      3  N   UNL     1      50.730 247.043 322.267  0.00  0.00    +0.000 NA
ATOM      4  C   UNL     1      49.690 244.747 321.187  0.00  0.00    +0.000 A 
ATOM      5  C   UNL     1      50.971 245.841 322.794  0.00  0.00    +0.000 A 
ATOM      6  C   UNL     1      49.354 245.957 320.614  0.00  0.00    +0.000 A 
ATOM      7  C   UNL     1      49.912 247.068 321.198  0.00  0.00    +0.000 A 
ATOM      8  N   UNL     1      51.822 245.805 323.894  0.00  0.00    +0.000 N 
ATOM      9  H   UNL     1      52.176 246.724 324.116  0.00  0.00    +0.000 HD
ENDROOT
BRANCH   8  10
ATOM     10  C   UNL     1      52.081 244.772 324.802  0.00  0.00    +0.000 A 
ATOM     11  C   UNL     1      51.328 243.594 324.831  0.00  0.00    +0.000 A 
ATOM     12  C   UNL     1      51.653 242.530 325.671  0.00  0.00    +0.000 A 
ATOM     13  C   UNL     1      52.776 242.628 326.485  0.00  0.00    +0.000 A 
ATOM     14  C   UNL     1      53.550 243.785 326.467  0.00  0.00    +0.000 A 
ATOM     15  C   UNL     1      53.204 244.845 325.629  0.00  0.00    +0.000 A 
BRANCH  12  16
ATOM     16  N   UNL     1      50.788 241.421 325.678  0.00  0.00    +0.000 N 
ATOM     17  C   UNL     1      49.668 241.267 326.475  0.00  0.00    +0.000 C 
ATOM     18  O   UNL     1      49.359 242.031 327.388  0.00  0.00    +0.000 OA
ATOM     19  N   UNL     1      48.916 240.133 326.168  0.00  0.00    +0.000 N 
ATOM     20  C   UNL     1      49.073 239.148 325.239  0.00  0.00    +0.000 A 
ATOM     21  C   UNL     1      47.772 239.685 326.757  0.00  0.00    +0.000 A 
ATOM     22  C   UNL     1      48.070 237.993 325.154  0.00  0.00    +0.000 A 
ATOM     23  C   UNL     1      47.104 238.390 326.280  0.00  0.00    +0.000 A 
ATOM     24  H   UNL     1      51.056 240.636 325.097  0.00  0.00    +0.000 HD
ENDBRANCH  12  16
ENDBRANCH   8  10
BRANCH   4  25
ATOM     25  N   UNL     1      49.166 243.532 320.677  0.00  0.00    +0.000 N 
ATOM     26  H   UNL     1      48.462 243.732 319.970  0.00  0.00    +0.000 HD
BRANCH  25  27
ATOM     27  C   UNL     1      50.150 242.528 320.282  0.00  0.00    +0.000 C 
BRANCH  27  28
ATOM     28  C   UNL     1      51.217 241.544 319.790  0.00  0.00    +0.000 C 
ATOM     29  C   UNL     1      52.344 240.633 319.296  0.00  0.00    +0.000 C 
BRANCH  29  30
ATOM     30  N   UNL     1      53.376 239.862 318.885  0.00  0.00    +0.000 N 
ATOM     31  C   UNL     1      54.471 239.413 319.611  0.00  0.00    +0.000 C 
ATOM     32  O   UNL     1      54.593 239.680 320.805  0.00  0.00    +0.000 OA
ATOM     33  H   UNL     1      53.351 239.648 317.895  0.00  0.00    +0.000 HD
BRANCH  31  34
ATOM     34  C   UNL     1      55.437 238.643 318.847  0.00  0.00    +0.000 A 
ATOM     35  S   UNL     1      55.133 238.282 317.191  0.00  0.00    +0.000 S 
ATOM     36  C   UNL     1      56.587 237.421 317.056  0.00  0.00    +0.000 A 
ATOM     37  C   UNL     1      57.306 237.393 318.218  0.00  0.00    +0.000 A 
ATOM     38  C   UNL     1      56.641 238.098 319.246  0.00  0.00    +0.000 A 
ENDBRANCH  31  34
ENDBRANCH  29  30
ENDBRANCH  27  28
ENDBRANCH  25  27
ENDBRANCH   4  25
TORSDOF 7
ENDMDL
MODEL 6
REMARK VINA RESULT:      -4.7     32.826     35.578
REMARK  Name = BX795.pdbqt.pdb
REMARK  7 active torsions:
REMARK  status: ('A' for Active; 'I' for Inactive)
REMARK    1  A    between atoms: C_4  and  N_25
REMARK    2  A    between atoms: N_8  and  C_10
REMARK    3  A    between atoms: C_12  and  N_16
REMARK    4  A    between atoms: N_25  and  C_27
REMARK    5  A    between atoms: C_27  and  C_28
REMARK    6  A    between atoms: C_29  and  N_30
REMARK    7  A    between atoms: C_31  and  C_34
REMARK                            x       y       z     vdW  Elec       q    Type
REMARK                         _______ _______ _______ _____ _____    ______ ____
ROOT
ATOM      1  I   UNL     1      45.092 251.162 327.857  0.00  0.00    +0.000 I 
ATOM      2  N   UNL     1      47.358 247.910 329.587  0.00  0.00    +0.000 NA
ATOM      3  N   UNL     1      46.877 249.413 331.332  0.00  0.00    +0.000 NA
ATOM      4  C   UNL     1      46.737 248.702 328.688  0.00  0.00    +0.000 A 
ATOM      5  C   UNL     1      47.416 248.281 330.874  0.00  0.00    +0.000 A 
ATOM      6  C   UNL     1      46.112 249.865 329.093  0.00  0.00    +0.000 A 
ATOM      7  C   UNL     1      46.224 250.167 330.428  0.00  0.00    +0.000 A 
ATOM      8  N   UNL     1      48.100 247.501 331.800  0.00  0.00    +0.000 N 
ATOM      9  H   UNL     1      48.122 247.940 332.708  0.00  0.00    +0.000 HD
ENDROOT
BRANCH   8  10
ATOM     10  C   UNL     1      48.558 246.181 331.706  0.00  0.00    +0.000 A 
ATOM     11  C   UNL     1      49.488 245.778 330.743  0.00  0.00    +0.000 A 
ATOM     12  C   UNL     1      50.013 244.487 330.717  0.00  0.00    +0.000 A 
ATOM     13  C   UNL     1      49.623 243.577 331.694  0.00  0.00    +0.000 A 
ATOM     14  C   UNL     1      48.707 243.956 332.672  0.00  0.00    +0.000 A 
ATOM     15  C   UNL     1      48.183 245.249 332.676  0.00  0.00    +0.000 A 
BRANCH  12  16
ATOM     16  N   UNL     1      50.885 244.161 329.663  0.00  0.00    +0.000 N 
ATOM     17  C   UNL     1      50.538 243.516 328.489  0.00  0.00    +0.000 C 
ATOM     18  O   UNL     1      49.435 243.015 328.276  0.00  0.00    +0.000 OA
ATOM     19  N   UNL     1      51.576 243.453 327.559  0.00  0.00    +0.000 N 
ATOM     20  C   UNL     1      52.863 243.902 327.584  0.00  0.00    +0.000 A 
ATOM     21  C   UNL     1      51.575 242.887 326.320  0.00  0.00    +0.000 A 
ATOM     22  C   UNL     1      53.793 243.660 326.391  0.00  0.00    +0.000 A 
ATOM     23  C   UNL     1      52.839 242.906 325.452  0.00  0.00    +0.000 A 
ATOM     24  H   UNL     1      51.868 244.355 329.813  0.00  0.00    +0.000 HD
ENDBRANCH  12  16
ENDBRANCH   8  10
BRANCH   4  25
ATOM     25  N   UNL     1      46.680 248.281 327.334  0.00  0.00    +0.000 N 
ATOM     26  H   UNL     1      46.029 248.870 326.819  0.00  0.00    +0.000 HD
BRANCH  25  27
ATOM     27  C   UNL     1      47.967 248.084 326.672  0.00  0.00    +0.000 C 
BRANCH  27  28
ATOM     28  C   UNL     1      49.350 247.823 326.066  0.00  0.00    +0.000 C 
ATOM     29  C   UNL     1      50.693 247.574 325.375  0.00  0.00    +0.000 C 
BRANCH  29  30
ATOM     30  N   UNL     1      51.863 247.387 324.723  0.00  0.00    +0.000 N 
ATOM     31  C   UNL     1      53.142 247.261 325.247  0.00  0.00    +0.000 C 
ATOM     32  O   UNL     1      53.336 247.285 326.462  0.00  0.00    +0.000 OA
ATOM     33  H   UNL     1      51.770 247.404 323.714  0.00  0.00    +0.000 HD
BRANCH  31  34
ATOM     34  C   UNL     1      54.198 247.125 324.258  0.00  0.00    +0.000 A 
ATOM     35  S   UNL     1      54.206 245.776 323.190  0.00  0.00    +0.000 S 
ATOM     36  C   UNL     1      55.633 246.305 322.445  0.00  0.00    +0.000 A 
ATOM     37  C   UNL     1      56.113 247.473 322.969  0.00  0.00    +0.000 A 
ATOM     38  C   UNL     1      55.283 247.942 324.013  0.00  0.00    +0.000 A 
ENDBRANCH  31  34
ENDBRANCH  29  30
ENDBRANCH  27  28
ENDBRANCH  25  27
ENDBRANCH   4  25
TORSDOF 7
ENDMDL
MODEL 7
REMARK VINA RESULT:      -4.6     25.126     27.796
REMARK  Name = BX795.pdbqt.pdb
REMARK  7 active torsions:
REMARK  status: ('A' for Active; 'I' for Inactive)
REMARK    1  A    between atoms: C_4  and  N_25
REMARK    2  A    between atoms: N_8  and  C_10
REMARK    3  A    between atoms: C_12  and  N_16
REMARK    4  A    between atoms: N_25  and  C_27
REMARK    5  A    between atoms: C_27  and  C_28
REMARK    6  A    between atoms: C_29  and  N_30
REMARK    7  A    between atoms: C_31  and  C_34
REMARK                            x       y       z     vdW  Elec       q    Type
REMARK                         _______ _______ _______ _____ _____    ______ ____
ROOT
ATOM      1  I   UNL     1      66.689 231.578 315.157  0.00  0.00    +0.000 I 
ATOM      2  N   UNL     1      63.437 230.524 317.806  0.00  0.00    +0.000 NA
ATOM      3  N   UNL     1      65.065 228.838 318.016  0.00  0.00    +0.000 NA
ATOM      4  C   UNL     1      64.176 231.169 316.879  0.00  0.00    +0.000 A 
ATOM      5  C   UNL     1      63.892 229.383 318.344  0.00  0.00    +0.000 A 
ATOM      6  C   UNL     1      65.423 230.694 316.523  0.00  0.00    +0.000 A 
ATOM      7  C   UNL     1      65.806 229.520 317.123  0.00  0.00    +0.000 A 
ATOM      8  N   UNL     1      63.116 228.680 319.261  0.00  0.00    +0.000 N 
ATOM      9  H   UNL     1      63.553 227.809 319.522  0.00  0.00    +0.000 HD
ENDROOT
BRANCH   8  10
ATOM     10  C   UNL     1      61.983 229.080 319.978  0.00  0.00    +0.000 A 
ATOM     11  C   UNL     1      60.871 228.249 320.147  0.00  0.00    +0.000 A 
ATOM     12  C   UNL     1      59.788 228.617 320.944  0.00  0.00    +0.000 A 
ATOM     13  C   UNL     1      59.823 229.834 321.616  0.00  0.00    +0.000 A 
ATOM     14  C   UNL     1      60.923 230.676 321.474  0.00  0.00    +0.000 A 
ATOM     15  C   UNL     1      61.993 230.298 320.663  0.00  0.00    +0.000 A 
BRANCH  12  16
ATOM     16  N   UNL     1      58.688 227.742 320.988  0.00  0.00    +0.000 N 
ATOM     17  C   UNL     1      57.598 227.760 320.136  0.00  0.00    +0.000 C 
ATOM     18  O   UNL     1      57.385 228.643 319.306  0.00  0.00    +0.000 OA
ATOM     19  N   UNL     1      56.727 226.686 320.319  0.00  0.00    +0.000 N 
ATOM     20  C   UNL     1      56.742 225.626 321.175  0.00  0.00    +0.000 A 
ATOM     21  C   UNL     1      55.568 226.409 319.660  0.00  0.00    +0.000 A 
ATOM     22  C   UNL     1      55.608 224.595 321.154  0.00  0.00    +0.000 A 
ATOM     23  C   UNL     1      54.736 225.175 320.030  0.00  0.00    +0.000 A 
ATOM     24  H   UNL     1      58.662 227.087 321.760  0.00  0.00    +0.000 HD
ENDBRANCH  12  16
ENDBRANCH   8  10
BRANCH   4  25
ATOM     25  N   UNL     1      63.677 232.379 316.333  0.00  0.00    +0.000 N 
ATOM     26  H   UNL     1      63.903 232.427 315.341  0.00  0.00    +0.000 HD
BRANCH  25  27
ATOM     27  C   UNL     1      62.288 232.698 316.650  0.00  0.00    +0.000 C 
BRANCH  27  28
ATOM     28  C   UNL     1      60.801 232.973 316.897  0.00  0.00    +0.000 C 
ATOM     29  C   UNL     1      59.341 233.317 317.202  0.00  0.00    +0.000 C 
BRANCH  29  30
ATOM     30  N   UNL     1      58.066 233.673 317.482  0.00  0.00    +0.000 N 
ATOM     31  C   UNL     1      56.918 233.459 316.734  0.00  0.00    +0.000 C 
ATOM     32  O   UNL     1      56.960 232.847 315.667  0.00  0.00    +0.000 OA
ATOM     33  H   UNL     1      57.978 234.222 318.330  0.00  0.00    +0.000 HD
BRANCH  31  34
ATOM     34  C   UNL     1      55.705 234.025 317.298  0.00  0.00    +0.000 A 
ATOM     35  S   UNL     1      55.297 235.668 316.986  0.00  0.00    +0.000 S 
ATOM     36  C   UNL     1      53.894 235.555 317.930  0.00  0.00    +0.000 A 
ATOM     37  C   UNL     1      53.711 234.316 318.477  0.00  0.00    +0.000 A 
ATOM     38  C   UNL     1      54.756 233.438 318.111  0.00  0.00    +0.000 A 
ENDBRANCH  31  34
ENDBRANCH  29  30
ENDBRANCH  27  28
ENDBRANCH  25  27
ENDBRANCH   4  25
TORSDOF 7
ENDMDL
MODEL 8
REMARK VINA RESULT:      -4.6     19.745     22.690
REMARK  Name = BX795.pdbqt.pdb
REMARK  7 active torsions:
REMARK  status: ('A' for Active; 'I' for Inactive)
REMARK    1  A    between atoms: C_4  and  N_25
REMARK    2  A    between atoms: N_8  and  C_10
REMARK    3  A    between atoms: C_12  and  N_16
REMARK    4  A    between atoms: N_25  and  C_27
REMARK    5  A    between atoms: C_27  and  C_28
REMARK    6  A    between atoms: C_29  and  N_30
REMARK    7  A    between atoms: C_31  and  C_34
REMARK                            x       y       z     vdW  Elec       q    Type
REMARK                         _______ _______ _______ _____ _____    ______ ____
ROOT
ATOM      1  I   UNL     1      61.205 222.109 357.298  0.00  0.00    +0.000 I 
ATOM      2  N   UNL     1      58.810 225.352 355.733  0.00  0.00    +0.000 NA
ATOM      3  N   UNL     1      60.135 226.250 357.458  0.00  0.00    +0.000 NA
ATOM      4  C   UNL     1      59.318 224.119 355.939  0.00  0.00    +0.000 A 
ATOM      5  C   UNL     1      59.223 226.378 356.492  0.00  0.00    +0.000 A 
ATOM      6  C   UNL     1      60.301 223.916 356.887  0.00  0.00    +0.000 A 
ATOM      7  C   UNL     1      60.661 225.022 357.617  0.00  0.00    +0.000 A 
ATOM      8  N   UNL     1      58.668 227.643 356.326  0.00  0.00    +0.000 N 
ATOM      9  H   UNL     1      59.021 228.293 357.012  0.00  0.00    +0.000 HD
ENDROOT
BRANCH   8  10
ATOM     10  C   UNL     1      57.891 228.157 355.282  0.00  0.00    +0.000 A 
ATOM     11  C   UNL     1      56.502 228.289 355.377  0.00  0.00    +0.000 A 
ATOM     12  C   UNL     1      55.747 228.893 354.372  0.00  0.00    +0.000 A 
ATOM     13  C   UNL     1      56.394 229.406 353.253  0.00  0.00    +0.000 A 
ATOM     14  C   UNL     1      57.777 229.298 353.139  0.00  0.00    +0.000 A 
ATOM     15  C   UNL     1      58.517 228.680 354.148  0.00  0.00    +0.000 A 
BRANCH  12  16
ATOM     16  N   UNL     1      54.349 228.909 354.531  0.00  0.00    +0.000 N 
ATOM     17  C   UNL     1      53.461 227.981 354.019  0.00  0.00    +0.000 C 
ATOM     18  O   UNL     1      53.772 227.087 353.233  0.00  0.00    +0.000 OA
ATOM     19  N   UNL     1      52.149 228.164 354.455  0.00  0.00    +0.000 N 
ATOM     20  C   UNL     1      51.574 229.080 355.284  0.00  0.00    +0.000 A 
ATOM     21  C   UNL     1      51.038 227.441 354.139  0.00  0.00    +0.000 A 
ATOM     22  C   UNL     1      50.068 229.039 355.563  0.00  0.00    +0.000 A 
ATOM     23  C   UNL     1      49.669 227.822 354.714  0.00  0.00    +0.000 A 
ATOM     24  H   UNL     1      53.958 229.715 355.003  0.00  0.00    +0.000 HD
ENDBRANCH  12  16
ENDBRANCH   8  10
BRANCH   4  25
ATOM     25  N   UNL     1      58.872 223.053 355.116  0.00  0.00    +0.000 N 
ATOM     26  H   UNL     1      58.995 222.168 355.604  0.00  0.00    +0.000 HD
BRANCH  25  27
ATOM     27  C   UNL     1      57.558 223.226 354.504  0.00  0.00    +0.000 C 
BRANCH  27  28
ATOM     28  C   UNL     1      56.221 223.487 353.801  0.00  0.00    +0.000 C 
ATOM     29  C   UNL     1      54.845 223.750 353.184  0.00  0.00    +0.000 C 
BRANCH  29  30
ATOM     30  N   UNL     1      53.615 224.011 352.686  0.00  0.00    +0.000 N 
ATOM     31  C   UNL     1      52.374 223.767 353.257  0.00  0.00    +0.000 C 
ATOM     32  O   UNL     1      52.278 223.272 354.380  0.00  0.00    +0.000 OA
ATOM     33  H   UNL     1      53.632 224.378 351.742  0.00  0.00    +0.000 HD
BRANCH  31  34
ATOM     34  C   UNL     1      51.237 224.118 352.424  0.00  0.00    +0.000 A 
ATOM     35  S   UNL     1      49.713 223.361 352.686  0.00  0.00    +0.000 S 
ATOM     36  C   UNL     1      49.005 224.224 351.412  0.00  0.00    +0.000 A 
ATOM     37  C   UNL     1      49.875 225.075 350.788  0.00  0.00    +0.000 A 
ATOM     38  C   UNL     1      51.158 225.010 351.374  0.00  0.00    +0.000 A 
ENDBRANCH  31  34
ENDBRANCH  29  30
ENDBRANCH  27  28
ENDBRANCH  25  27
ENDBRANCH   4  25
TORSDOF 7
ENDMDL
MODEL 9
REMARK VINA RESULT:      -4.5     32.727     35.412
REMARK  Name = BX795.pdbqt.pdb
REMARK  7 active torsions:
REMARK  status: ('A' for Active; 'I' for Inactive)
REMARK    1  A    between atoms: C_4  and  N_25
REMARK    2  A    between atoms: N_8  and  C_10
REMARK    3  A    between atoms: C_12  and  N_16
REMARK    4  A    between atoms: N_25  and  C_27
REMARK    5  A    between atoms: C_27  and  C_28
REMARK    6  A    between atoms: C_29  and  N_30
REMARK    7  A    between atoms: C_31  and  C_34
REMARK                            x       y       z     vdW  Elec       q    Type
REMARK                         _______ _______ _______ _____ _____    ______ ____
ROOT
ATOM      1  I   UNL     1      42.516 248.568 329.094  0.00  0.00    +0.000 I 
ATOM      2  N   UNL     1      46.123 246.402 330.095  0.00  0.00    +0.000 NA
ATOM      3  N   UNL     1      44.583 244.825 329.268  0.00  0.00    +0.000 NA
ATOM      4  C   UNL     1      45.226 247.401 329.954  0.00  0.00    +0.000 A 
ATOM      5  C   UNL     1      45.783 245.149 329.756  0.00  0.00    +0.000 A 
ATOM      6  C   UNL     1      43.981 247.153 329.411  0.00  0.00    +0.000 A 
ATOM      7  C   UNL     1      43.720 245.843 329.094  0.00  0.00    +0.000 A 
ATOM      8  N   UNL     1      46.679 244.103 329.946  0.00  0.00    +0.000 N 
ATOM      9  H   UNL     1      46.261 243.213 329.716  0.00  0.00    +0.000 HD
ENDROOT
BRANCH   8  10
ATOM     10  C   UNL     1      48.055 244.128 330.203  0.00  0.00    +0.000 A 
ATOM     11  C   UNL     1      48.998 244.399 329.208  0.00  0.00    +0.000 A 
ATOM     12  C   UNL     1      50.358 244.519 329.491  0.00  0.00    +0.000 A 
ATOM     13  C   UNL     1      50.790 244.393 330.807  0.00  0.00    +0.000 A 
ATOM     14  C   UNL     1      49.870 244.134 331.820  0.00  0.00    +0.000 A 
ATOM     15  C   UNL     1      48.514 244.005 331.517  0.00  0.00    +0.000 A 
BRANCH  12  16
ATOM     16  N   UNL     1      51.232 244.720 328.408  0.00  0.00    +0.000 N 
ATOM     17  C   UNL     1      52.133 243.797 327.907  0.00  0.00    +0.000 C 
ATOM     18  O   UNL     1      52.385 242.717 328.440  0.00  0.00    +0.000 OA
ATOM     19  N   UNL     1      52.768 244.215 326.737  0.00  0.00    +0.000 N 
ATOM     20  C   UNL     1      52.673 245.354 325.995  0.00  0.00    +0.000 A 
ATOM     21  C   UNL     1      53.706 243.559 325.997  0.00  0.00    +0.000 A 
ATOM     22  C   UNL     1      53.534 245.538 324.741  0.00  0.00    +0.000 A 
ATOM     23  C   UNL     1      54.301 244.207 324.742  0.00  0.00    +0.000 A 
ATOM     24  H   UNL     1      51.250 245.650 328.008  0.00  0.00    +0.000 HD
ENDBRANCH  12  16
ENDBRANCH   8  10
BRANCH   4  25
ATOM     25  N   UNL     1      45.614 248.718 330.310  0.00  0.00    +0.000 N 
ATOM     26  H   UNL     1      45.278 248.933 331.246  0.00  0.00    +0.000 HD
BRANCH  25  27
ATOM     27  C   UNL     1      47.016 249.055 330.080  0.00  0.00    +0.000 C 
BRANCH  27  28
ATOM     28  C   UNL     1      48.504 249.304 329.814  0.00  0.00    +0.000 C 
ATOM     29  C   UNL     1      50.011 249.480 329.605  0.00  0.00    +0.000 C 
BRANCH  29  30
ATOM     30  N   UNL     1      51.348 249.581 329.430  0.00  0.00    +0.000 N 
ATOM     31  C   UNL     1      52.236 248.632 328.943  0.00  0.00    +0.000 C 
ATOM     32  O   UNL     1      51.844 247.527 328.570  0.00  0.00    +0.000 OA
ATOM     33  H   UNL     1      51.734 250.456 329.764  0.00  0.00    +0.000 HD
BRANCH  31  34
ATOM     34  C   UNL     1      53.629 249.045 328.936  0.00  0.00    +0.000 A 
ATOM     35  S   UNL     1      54.390 249.528 330.403  0.00  0.00    +0.000 S 
ATOM     36  C   UNL     1      55.851 249.844 329.605  0.00  0.00    +0.000 A 
ATOM     37  C   UNL     1      55.795 249.597 328.262  0.00  0.00    +0.000 A 
ATOM     38  C   UNL     1      54.514 249.137 327.881  0.00  0.00    +0.000 A 
ENDBRANCH  31  34
ENDBRANCH  29  30
ENDBRANCH  27  28
ENDBRANCH  25  27
ENDBRANCH   4  25
TORSDOF 7
ENDMDL
