MODEL 1
REMARK VINA RESULT:      -3.3      0.000      0.000
REMARK  Name = CadmiumAcetate.pdbqt.pdb
REMARK  1 active torsions:
REMARK  status: ('A' for Active; 'I' for Inactive)
REMARK    1  A    between atoms: C_3  and  O_4
REMARK                            x       y       z     vdW  Elec       q    Type
REMARK                         _______ _______ _______ _____ _____    ______ ____
ROOT
ATOM      1  O   UNL     1      63.968 232.447 339.819  0.00  0.00    +0.000 OA
ATOM      2  C   UNL     1      65.757 231.215 339.066  0.00  0.00    +0.000 C 
ATOM      3  C   UNL     1      64.308 231.450 339.217  0.00  0.00    +0.000 C 
ENDROOT
BRANCH   3   4
ATOM      4  O   UNL     1      63.506 230.538 338.672  0.00  0.00    +0.000 OA
ATOM      5  H   UNL     1      63.335 229.932 339.417  0.00  0.00    +0.000 HD
ENDBRANCH   3   4
TORSDOF 1
ENDMDL
MODEL 2
REMARK VINA RESULT:      -2.7      5.536      5.972
REMARK  Name = CadmiumAcetate.pdbqt.pdb
REMARK  1 active torsions:
REMARK  status: ('A' for Active; 'I' for Inactive)
REMARK    1  A    between atoms: C_3  and  O_4
REMARK                            x       y       z     vdW  Elec       q    Type
REMARK                         _______ _______ _______ _____ _____    ______ ____
ROOT
ATOM      1  O   UNL     1      65.974 230.636 343.276  0.00  0.00    +0.000 OA
ATOM      2  C   UNL     1      65.809 230.300 345.545  0.00  0.00    +0.000 C 
ATOM      3  C   UNL     1      66.262 231.071 344.371  0.00  0.00    +0.000 C 
ENDROOT
BRANCH   3   4
ATOM      4  O   UNL     1      66.950 232.182 344.630  0.00  0.00    +0.000 OA
ATOM      5  H   UNL     1      66.402 232.873 344.215  0.00  0.00    +0.000 HD
ENDBRANCH   3   4
TORSDOF 1
ENDMDL
MODEL 3
REMARK VINA RESULT:      -2.5      9.141      9.811
REMARK  Name = CadmiumAcetate.pdbqt.pdb
REMARK  1 active torsions:
REMARK  status: ('A' for Active; 'I' for Inactive)
REMARK    1  A    between atoms: C_3  and  O_4
REMARK                            x       y       z     vdW  Elec       q    Type
REMARK                         _______ _______ _______ _____ _____    ______ ____
ROOT
ATOM      1  O   UNL     1      70.363 222.912 336.572  0.00  0.00    +0.000 OA
ATOM      2  C   UNL     1      69.607 223.171 338.728  0.00  0.00    +0.000 C 
ATOM      3  C   UNL     1      69.802 223.657 337.349  0.00  0.00    +0.000 C 
ENDROOT
BRANCH   3   4
ATOM      4  O   UNL     1      69.340 224.878 337.086  0.00  0.00    +0.000 OA
ATOM      5  H   UNL     1      68.447 224.697 336.738  0.00  0.00    +0.000 HD
ENDBRANCH   3   4
TORSDOF 1
ENDMDL
MODEL 4
REMARK VINA RESULT:      -2.5     21.171     21.662
REMARK  Name = CadmiumAcetate.pdbqt.pdb
REMARK  1 active torsions:
REMARK  status: ('A' for Active; 'I' for Inactive)
REMARK    1  A    between atoms: C_3  and  O_4
REMARK                            x       y       z     vdW  Elec       q    Type
REMARK                         _______ _______ _______ _____ _____    ______ ____
ROOT
ATOM      1  O   UNL     1      47.878 233.479 323.888  0.00  0.00    +0.000 OA
ATOM      2  C   UNL     1      49.570 235.003 323.572  0.00  0.00    +0.000 C 
ATOM      3  C   UNL     1      49.023 233.767 324.164  0.00  0.00    +0.000 C 
ENDROOT
BRANCH   3   4
ATOM      4  O   UNL     1      49.848 233.079 324.952  0.00  0.00    +0.000 OA
ATOM      5  H   UNL     1      49.613 233.403 325.841  0.00  0.00    +0.000 HD
ENDBRANCH   3   4
TORSDOF 1
ENDMDL
MODEL 5
REMARK VINA RESULT:      -2.4     21.202     21.667
REMARK  Name = CadmiumAcetate.pdbqt.pdb
REMARK  1 active torsions:
REMARK  status: ('A' for Active; 'I' for Inactive)
REMARK    1  A    between atoms: C_3  and  O_4
REMARK                            x       y       z     vdW  Elec       q    Type
REMARK                         _______ _______ _______ _____ _____    ______ ____
ROOT
ATOM      1  O   UNL     1      49.672 235.073 323.652  0.00  0.00    +0.000 OA
ATOM      2  C   UNL     1      48.282 233.300 323.192  0.00  0.00    +0.000 C 
ATOM      3  C   UNL     1      49.344 233.952 323.981  0.00  0.00    +0.000 C 
ENDROOT
BRANCH   3   4
ATOM      4  O   UNL     1      49.847 233.240 324.988  0.00  0.00    +0.000 OA
ATOM      5  H   UNL     1      50.358 232.550 324.527  0.00  0.00    +0.000 HD
ENDBRANCH   3   4
TORSDOF 1
ENDMDL
MODEL 6
REMARK VINA RESULT:      -2.3     20.083     20.345
REMARK  Name = CadmiumAcetate.pdbqt.pdb
REMARK  1 active torsions:
REMARK  status: ('A' for Active; 'I' for Inactive)
REMARK    1  A    between atoms: C_3  and  O_4
REMARK                            x       y       z     vdW  Elec       q    Type
REMARK                         _______ _______ _______ _____ _____    ______ ____
ROOT
ATOM      1  O   UNL     1      51.897 242.103 326.336  0.00  0.00    +0.000 OA
ATOM      2  C   UNL     1      53.484 243.733 326.670  0.00  0.00    +0.000 C 
ATOM      3  C   UNL     1      52.579 242.676 327.160  0.00  0.00    +0.000 C 
ENDROOT
BRANCH   3   4
ATOM      4  O   UNL     1      52.597 242.450 328.473  0.00  0.00    +0.000 OA
ATOM      5  H   UNL     1      52.559 243.351 328.844  0.00  0.00    +0.000 HD
ENDBRANCH   3   4
TORSDOF 1
ENDMDL
MODEL 7
REMARK VINA RESULT:      -2.3      8.619      8.863
REMARK  Name = CadmiumAcetate.pdbqt.pdb
REMARK  1 active torsions:
REMARK  status: ('A' for Active; 'I' for Inactive)
REMARK    1  A    between atoms: C_3  and  O_4
REMARK                            x       y       z     vdW  Elec       q    Type
REMARK                         _______ _______ _______ _____ _____    ______ ____
ROOT
ATOM      1  O   UNL     1      65.841 239.436 337.505  0.00  0.00    +0.000 OA
ATOM      2  C   UNL     1      64.377 240.805 338.632  0.00  0.00    +0.000 C 
ATOM      3  C   UNL     1      64.721 239.902 337.516  0.00  0.00    +0.000 C 
ENDROOT
BRANCH   3   4
ATOM      4  O   UNL     1      63.759 239.683 336.621  0.00  0.00    +0.000 OA
ATOM      5  H   UNL     1      63.137 239.115 337.112  0.00  0.00    +0.000 HD
ENDBRANCH   3   4
TORSDOF 1
ENDMDL
MODEL 8
REMARK VINA RESULT:      -2.2     21.267     21.626
REMARK  Name = CadmiumAcetate.pdbqt.pdb
REMARK  1 active torsions:
REMARK  status: ('A' for Active; 'I' for Inactive)
REMARK    1  A    between atoms: C_3  and  O_4
REMARK                            x       y       z     vdW  Elec       q    Type
REMARK                         _______ _______ _______ _____ _____    ______ ____
ROOT
ATOM      1  O   UNL     1      48.662 239.383 324.888  0.00  0.00    +0.000 OA
ATOM      2  C   UNL     1      49.062 237.136 325.166  0.00  0.00    +0.000 C 
ATOM      3  C   UNL     1      49.357 238.555 325.438  0.00  0.00    +0.000 C 
ENDROOT
BRANCH   3   4
ATOM      4  O   UNL     1      50.369 238.794 326.272  0.00  0.00    +0.000 OA
ATOM      5  H   UNL     1      50.802 239.567 325.865  0.00  0.00    +0.000 HD
ENDBRANCH   3   4
TORSDOF 1
ENDMDL
MODEL 9
REMARK VINA RESULT:      -2.2      5.532      5.875
REMARK  Name = CadmiumAcetate.pdbqt.pdb
REMARK  1 active torsions:
REMARK  status: ('A' for Active; 'I' for Inactive)
REMARK    1  A    between atoms: C_3  and  O_4
REMARK                            x       y       z     vdW  Elec       q    Type
REMARK                         _______ _______ _______ _____ _____    ______ ____
ROOT
ATOM      1  O   UNL     1      65.600 232.647 343.331  0.00  0.00    +0.000 OA
ATOM      2  C   UNL     1      66.250 233.413 345.399  0.00  0.00    +0.000 C 
ATOM      3  C   UNL     1      66.217 232.385 344.342  0.00  0.00    +0.000 C 
ENDROOT
BRANCH   3   4
ATOM      4  O   UNL     1      66.875 231.256 344.602  0.00  0.00    +0.000 OA
ATOM      5  H   UNL     1      66.184 230.577 344.495  0.00  0.00    +0.000 HD
ENDBRANCH   3   4
TORSDOF 1
ENDMDL
