MODEL 1
REMARK VINA RESULT:      -6.1      0.000      0.000
REMARK  Name = Calcitriol.pdbqt.pdb
REMARK  9 active torsions:
REMARK  status: ('A' for Active; 'I' for Inactive)
REMARK    1  A    between atoms: C_2  and  C_24
REMARK    2  A    between atoms: C_7  and  C_11
REMARK    3  A    between atoms: C_12  and  C_13
REMARK    4  A    between atoms: C_16  and  O_20
REMARK    5  A    between atoms: C_18  and  O_22
REMARK    6  A    between atoms: C_24  and  C_26
REMARK    7  A    between atoms: C_27  and  C_28
REMARK    8  A    between atoms: C_28  and  C_29
REMARK    9  A    between atoms: C_29  and  O_32
REMARK                            x       y       z     vdW  Elec       q    Type
REMARK                         _______ _______ _______ _____ _____    ______ ____
ROOT
ATOM      1  C   UNL     1      55.096 217.353 331.175  0.00  0.00    +0.000 C 
ATOM      2  C   UNL     1      54.345 218.607 330.738  0.00  0.00    +0.000 C 
ATOM      3  C   UNL     1      55.403 217.642 332.744  0.00  0.00    +0.000 C 
ATOM      4  C   UNL     1      54.091 219.435 331.872  0.00  0.00    +0.000 C 
ATOM      5  C   UNL     1      54.710 218.839 333.106  0.00  0.00    +0.000 C 
ATOM      6  C   UNL     1      56.401 217.165 330.520  0.00  0.00    +0.000 C 
ATOM      7  C   UNL     1      56.712 217.321 333.326  0.00  0.00    +0.000 C 
ATOM      8  C   UNL     1      54.171 216.104 331.124  0.00  0.00    +0.000 C 
ATOM      9  C   UNL     1      57.859 216.946 330.880  0.00  0.00    +0.000 C 
ATOM     10  C   UNL     1      57.741 217.046 332.387  0.00  0.00    +0.000 C 
ENDROOT
BRANCH   7  11
ATOM     11  C   UNL     1      56.994 217.410 334.588  0.00  0.00    +0.000 C 
ATOM     12  C   UNL     1      57.336 217.504 336.080  0.00  0.00    +0.000 C 
BRANCH  12  13
ATOM     13  C   UNL     1      57.634 217.579 337.341  0.00  0.00    +0.000 A 
ATOM     14  C   UNL     1      57.625 216.392 338.143  0.00  0.00    +0.000 A 
ATOM     15  C   UNL     1      57.948 218.822 338.115  0.00  0.00    +0.000 A 
ATOM     16  C   UNL     1      57.853 216.151 339.529  0.00  0.00    +0.000 A 
ATOM     17  C   UNL     1      58.129 217.408 340.137  0.00  0.00    +0.000 A 
ATOM     18  C   UNL     1      58.204 218.720 339.586  0.00  0.00    +0.000 A 
ATOM     19  C   UNL     1      58.015 220.032 337.530  0.00  0.00    +0.000 C 
BRANCH  16  20
ATOM     20  O   UNL     1      58.436 214.994 339.959  0.00  0.00    +0.000 OA
ATOM     21  H   UNL     1      57.809 214.450 340.464  0.00  0.00    +0.000 HD
ENDBRANCH  16  20
BRANCH  18  22
ATOM     22  O   UNL     1      58.505 219.824 340.348  0.00  0.00    +0.000 OA
ATOM     23  H   UNL     1      58.722 220.582 339.772  0.00  0.00    +0.000 HD
ENDBRANCH  18  22
ENDBRANCH  12  13
ENDBRANCH   7  11
BRANCH   2  24
ATOM     24  C   UNL     1      53.826 218.842 329.428  0.00  0.00    +0.000 C 
ATOM     25  C   UNL     1      52.443 218.417 329.004  0.00  0.00    +0.000 C 
BRANCH  24  26
ATOM     26  C   UNL     1      54.660 219.327 328.383  0.00  0.00    +0.000 C 
ATOM     27  C   UNL     1      55.545 219.855 327.248  0.00  0.00    +0.000 C 
BRANCH  27  28
ATOM     28  C   UNL     1      56.420 220.385 326.105  0.00  0.00    +0.000 C 
BRANCH  28  29
ATOM     29  C   UNL     1      57.257 220.889 325.016  0.00  0.00    +0.000 C 
ATOM     30  C   UNL     1      57.799 222.298 325.286  0.00  0.00    +0.000 C 
ATOM     31  C   UNL     1      58.396 219.935 324.640  0.00  0.00    +0.000 C 
BRANCH  29  32
ATOM     32  O   UNL     1      56.473 221.007 323.851  0.00  0.00    +0.000 OA
ATOM     33  H   UNL     1      57.063 221.579 323.338  0.00  0.00    +0.000 HD
ENDBRANCH  29  32
ENDBRANCH  28  29
ENDBRANCH  27  28
ENDBRANCH  24  26
ENDBRANCH   2  24
TORSDOF 9
ENDMDL
MODEL 2
REMARK VINA RESULT:      -5.7      2.276      3.517
REMARK  Name = Calcitriol.pdbqt.pdb
REMARK  9 active torsions:
REMARK  status: ('A' for Active; 'I' for Inactive)
REMARK    1  A    between atoms: C_2  and  C_24
REMARK    2  A    between atoms: C_7  and  C_11
REMARK    3  A    between atoms: C_12  and  C_13
REMARK    4  A    between atoms: C_16  and  O_20
REMARK    5  A    between atoms: C_18  and  O_22
REMARK    6  A    between atoms: C_24  and  C_26
REMARK    7  A    between atoms: C_27  and  C_28
REMARK    8  A    between atoms: C_28  and  C_29
REMARK    9  A    between atoms: C_29  and  O_32
REMARK                            x       y       z     vdW  Elec       q    Type
REMARK                         _______ _______ _______ _____ _____    ______ ____
ROOT
ATOM      1  C   UNL     1      53.856 218.674 329.612  0.00  0.00    +0.000 C 
ATOM      2  C   UNL     1      54.164 217.530 328.651  0.00  0.00    +0.000 C 
ATOM      3  C   UNL     1      54.926 218.440 330.811  0.00  0.00    +0.000 C 
ATOM      4  C   UNL     1      55.322 216.826 329.098  0.00  0.00    +0.000 C 
ATOM      5  C   UNL     1      55.811 217.392 330.402  0.00  0.00    +0.000 C 
ATOM      6  C   UNL     1      52.519 218.612 330.224  0.00  0.00    +0.000 C 
ATOM      7  C   UNL     1      54.526 218.586 332.216  0.00  0.00    +0.000 C 
ATOM      8  C   UNL     1      54.199 220.048 328.970  0.00  0.00    +0.000 C 
ATOM      9  C   UNL     1      51.870 218.619 331.597  0.00  0.00    +0.000 C 
ATOM     10  C   UNL     1      53.125 218.634 332.444  0.00  0.00    +0.000 C 
ENDROOT
BRANCH   7  11
ATOM     11  C   UNL     1      55.344 218.532 333.220  0.00  0.00    +0.000 C 
ATOM     12  C   UNL     1      56.304 218.458 334.413  0.00  0.00    +0.000 C 
BRANCH  12  13
ATOM     13  C   UNL     1      57.114 218.387 335.426  0.00  0.00    +0.000 A 
ATOM     14  C   UNL     1      56.632 218.686 336.741  0.00  0.00    +0.000 A 
ATOM     15  C   UNL     1      58.576 218.069 335.382  0.00  0.00    +0.000 A 
ATOM     16  C   UNL     1      57.260 218.743 338.019  0.00  0.00    +0.000 A 
ATOM     17  C   UNL     1      58.635 218.430 337.828  0.00  0.00    +0.000 A 
ATOM     18  C   UNL     1      59.367 218.097 336.652  0.00  0.00    +0.000 A 
ATOM     19  C   UNL     1      59.205 217.749 334.236  0.00  0.00    +0.000 C 
BRANCH  16  20
ATOM     20  O   UNL     1      56.588 218.393 339.154  0.00  0.00    +0.000 OA
ATOM     21  H   UNL     1      56.430 219.166 339.722  0.00  0.00    +0.000 HD
ENDBRANCH  16  20
BRANCH  18  22
ATOM     22  O   UNL     1      60.711 217.806 336.676  0.00  0.00    +0.000 OA
ATOM     23  H   UNL     1      61.178 218.419 337.276  0.00  0.00    +0.000 HD
ENDBRANCH  18  22
ENDBRANCH  12  13
ENDBRANCH   7  11
BRANCH   2  24
ATOM     24  C   UNL     1      53.502 217.299 327.406  0.00  0.00    +0.000 C 
ATOM     25  C   UNL     1      52.279 216.428 327.275  0.00  0.00    +0.000 C 
BRANCH  24  26
ATOM     26  C   UNL     1      54.075 217.731 326.178  0.00  0.00    +0.000 C 
ATOM     27  C   UNL     1      54.700 218.182 324.852  0.00  0.00    +0.000 C 
BRANCH  27  28
ATOM     28  C   UNL     1      55.334 218.622 323.527  0.00  0.00    +0.000 C 
BRANCH  28  29
ATOM     29  C   UNL     1      55.940 219.038 322.262  0.00  0.00    +0.000 C 
ATOM     30  C   UNL     1      57.402 218.597 322.129  0.00  0.00    +0.000 C 
ATOM     31  C   UNL     1      55.132 218.605 321.034  0.00  0.00    +0.000 C 
BRANCH  29  32
ATOM     32  O   UNL     1      55.967 220.447 322.208  0.00  0.00    +0.000 OA
ATOM     33  H   UNL     1      55.242 220.580 321.580  0.00  0.00    +0.000 HD
ENDBRANCH  29  32
ENDBRANCH  28  29
ENDBRANCH  27  28
ENDBRANCH  24  26
ENDBRANCH   2  24
TORSDOF 9
ENDMDL
MODEL 3
REMARK VINA RESULT:      -5.7     20.269     22.567
REMARK  Name = Calcitriol.pdbqt.pdb
REMARK  9 active torsions:
REMARK  status: ('A' for Active; 'I' for Inactive)
REMARK    1  A    between atoms: C_2  and  C_24
REMARK    2  A    between atoms: C_7  and  C_11
REMARK    3  A    between atoms: C_12  and  C_13
REMARK    4  A    between atoms: C_16  and  O_20
REMARK    5  A    between atoms: C_18  and  O_22
REMARK    6  A    between atoms: C_24  and  C_26
REMARK    7  A    between atoms: C_27  and  C_28
REMARK    8  A    between atoms: C_28  and  C_29
REMARK    9  A    between atoms: C_29  and  O_32
REMARK                            x       y       z     vdW  Elec       q    Type
REMARK                         _______ _______ _______ _____ _____    ______ ____
ROOT
ATOM      1  C   UNL     1      62.296 230.831 351.348  0.00  0.00    +0.000 C 
ATOM      2  C   UNL     1      63.701 230.239 351.389  0.00  0.00    +0.000 C 
ATOM      3  C   UNL     1      61.410 229.718 352.131  0.00  0.00    +0.000 C 
ATOM      4  C   UNL     1      63.704 229.064 352.197  0.00  0.00    +0.000 C 
ATOM      5  C   UNL     1      62.313 228.753 352.677  0.00  0.00    +0.000 C 
ATOM      6  C   UNL     1      61.723 230.948 349.997  0.00  0.00    +0.000 C 
ATOM      7  C   UNL     1      60.089 229.318 351.630  0.00  0.00    +0.000 C 
ATOM      8  C   UNL     1      62.216 232.137 352.188  0.00  0.00    +0.000 C 
ATOM      9  C   UNL     1      60.486 230.534 349.221  0.00  0.00    +0.000 C 
ATOM     10  C   UNL     1      59.797 229.726 350.301  0.00  0.00    +0.000 C 
ENDROOT
BRANCH   7  11
ATOM     11  C   UNL     1      59.275 228.529 352.258  0.00  0.00    +0.000 C 
ATOM     12  C   UNL     1      58.319 227.584 352.997  0.00  0.00    +0.000 C 
BRANCH  12  13
ATOM     13  C   UNL     1      57.516 226.777 353.622  0.00  0.00    +0.000 A 
ATOM     14  C   UNL     1      56.776 225.800 352.881  0.00  0.00    +0.000 A 
ATOM     15  C   UNL     1      57.209 226.777 355.087  0.00  0.00    +0.000 A 
ATOM     16  C   UNL     1      55.806 224.825 353.253  0.00  0.00    +0.000 A 
ATOM     17  C   UNL     1      55.608 224.942 354.658  0.00  0.00    +0.000 A 
ATOM     18  C   UNL     1      56.201 225.808 355.621  0.00  0.00    +0.000 A 
ATOM     19  C   UNL     1      57.817 227.616 355.946  0.00  0.00    +0.000 C 
BRANCH  16  20
ATOM     20  O   UNL     1      55.723 223.626 352.607  0.00  0.00    +0.000 OA
ATOM     21  H   UNL     1      54.869 223.529 352.153  0.00  0.00    +0.000 HD
ENDBRANCH  16  20
BRANCH  18  22
ATOM     22  O   UNL     1      55.884 225.755 356.957  0.00  0.00    +0.000 OA
ATOM     23  H   UNL     1      55.377 224.943 357.152  0.00  0.00    +0.000 HD
ENDBRANCH  18  22
ENDBRANCH  12  13
ENDBRANCH   7  11
BRANCH   2  24
ATOM     24  C   UNL     1      64.871 230.855 350.846  0.00  0.00    +0.000 C 
ATOM     25  C   UNL     1      65.762 231.772 351.643  0.00  0.00    +0.000 C 
BRANCH  24  26
ATOM     26  C   UNL     1      65.159 230.784 349.456  0.00  0.00    +0.000 C 
ATOM     27  C   UNL     1      65.460 230.719 347.953  0.00  0.00    +0.000 C 
BRANCH  27  28
ATOM     28  C   UNL     1      65.749 230.663 346.448  0.00  0.00    +0.000 C 
BRANCH  28  29
ATOM     29  C   UNL     1      66.029 230.608 345.013  0.00  0.00    +0.000 C 
ATOM     30  C   UNL     1      66.212 231.996 344.388  0.00  0.00    +0.000 C 
ATOM     31  C   UNL     1      67.213 229.699 344.664  0.00  0.00    +0.000 C 
BRANCH  29  32
ATOM     32  O   UNL     1      64.921 230.041 344.351  0.00  0.00    +0.000 OA
ATOM     33  H   UNL     1      64.257 230.174 345.044  0.00  0.00    +0.000 HD
ENDBRANCH  29  32
ENDBRANCH  28  29
ENDBRANCH  27  28
ENDBRANCH  24  26
ENDBRANCH   2  24
TORSDOF 9
ENDMDL
MODEL 4
REMARK VINA RESULT:      -5.6     23.622     29.013
REMARK  Name = Calcitriol.pdbqt.pdb
REMARK  9 active torsions:
REMARK  status: ('A' for Active; 'I' for Inactive)
REMARK    1  A    between atoms: C_2  and  C_24
REMARK    2  A    between atoms: C_7  and  C_11
REMARK    3  A    between atoms: C_12  and  C_13
REMARK    4  A    between atoms: C_16  and  O_20
REMARK    5  A    between atoms: C_18  and  O_22
REMARK    6  A    between atoms: C_24  and  C_26
REMARK    7  A    between atoms: C_27  and  C_28
REMARK    8  A    between atoms: C_28  and  C_29
REMARK    9  A    between atoms: C_29  and  O_32
REMARK                            x       y       z     vdW  Elec       q    Type
REMARK                         _______ _______ _______ _____ _____    ______ ____
ROOT
ATOM      1  C   UNL     1      52.338 243.675 325.876  0.00  0.00    +0.000 C 
ATOM      2  C   UNL     1      51.056 244.298 326.422  0.00  0.00    +0.000 C 
ATOM      3  C   UNL     1      53.190 244.968 325.386  0.00  0.00    +0.000 C 
ATOM      4  C   UNL     1      51.175 245.719 326.422  0.00  0.00    +0.000 C 
ATOM      5  C   UNL     1      52.487 246.137 325.817  0.00  0.00    +0.000 C 
ATOM      6  C   UNL     1      52.144 242.827 324.689  0.00  0.00    +0.000 C 
ATOM      7  C   UNL     1      53.918 244.951 324.112  0.00  0.00    +0.000 C 
ATOM      8  C   UNL     1      53.159 243.003 327.012  0.00  0.00    +0.000 C 
ATOM      9  C   UNL     1      52.660 242.683 323.268  0.00  0.00    +0.000 C 
ATOM     10  C   UNL     1      53.578 243.887 323.235  0.00  0.00    +0.000 C 
ENDROOT
BRANCH   7  11
ATOM     11  C   UNL     1      54.712 245.893 323.709  0.00  0.00    +0.000 C 
ATOM     12  C   UNL     1      55.657 247.009 323.247  0.00  0.00    +0.000 C 
BRANCH  12  13
ATOM     13  C   UNL     1      56.461 247.953 322.862  0.00  0.00    +0.000 A 
ATOM     14  C   UNL     1      57.276 247.761 321.700  0.00  0.00    +0.000 A 
ATOM     15  C   UNL     1      56.698 249.263 323.549  0.00  0.00    +0.000 A 
ATOM     16  C   UNL     1      58.266 248.561 321.061  0.00  0.00    +0.000 A 
ATOM     17  C   UNL     1      58.393 249.760 321.817  0.00  0.00    +0.000 A 
ATOM     18  C   UNL     1      57.718 250.205 322.991  0.00  0.00    +0.000 A 
ATOM     19  C   UNL     1      56.016 249.627 324.650  0.00  0.00    +0.000 C 
BRANCH  16  20
ATOM     20  O   UNL     1      58.430 248.538 319.706  0.00  0.00    +0.000 OA
ATOM     21  H   UNL     1      57.593 248.340 319.254  0.00  0.00    +0.000 HD
ENDBRANCH  16  20
BRANCH  18  22
ATOM     22  O   UNL     1      57.974 251.424 323.572  0.00  0.00    +0.000 OA
ATOM     23  H   UNL     1      58.634 251.916 323.047  0.00  0.00    +0.000 HD
ENDBRANCH  18  22
ENDBRANCH  12  13
ENDBRANCH   7  11
BRANCH   2  24
ATOM     24  C   UNL     1      49.970 243.573 327.002  0.00  0.00    +0.000 C 
ATOM     25  C   UNL     1      49.243 244.033 328.240  0.00  0.00    +0.000 C 
BRANCH  24  26
ATOM     26  C   UNL     1      49.632 242.269 326.548  0.00  0.00    +0.000 C 
ATOM     27  C   UNL     1      49.256 240.861 326.071  0.00  0.00    +0.000 C 
BRANCH  27  28
ATOM     28  C   UNL     1      48.873 239.450 325.605  0.00  0.00    +0.000 C 
BRANCH  28  29
ATOM     29  C   UNL     1      48.503 238.107 325.159  0.00  0.00    +0.000 C 
ATOM     30  C   UNL     1      47.123 237.671 325.663  0.00  0.00    +0.000 C 
ATOM     31  C   UNL     1      48.605 237.927 323.640  0.00  0.00    +0.000 C 
BRANCH  29  32
ATOM     32  O   UNL     1      49.412 237.177 325.703  0.00  0.00    +0.000 OA
ATOM     33  H   UNL     1      48.778 236.616 326.173  0.00  0.00    +0.000 HD
ENDBRANCH  29  32
ENDBRANCH  28  29
ENDBRANCH  27  28
ENDBRANCH  24  26
ENDBRANCH   2  24
TORSDOF 9
ENDMDL
MODEL 5
REMARK VINA RESULT:      -5.6      6.784     11.880
REMARK  Name = Calcitriol.pdbqt.pdb
REMARK  9 active torsions:
REMARK  status: ('A' for Active; 'I' for Inactive)
REMARK    1  A    between atoms: C_2  and  C_24
REMARK    2  A    between atoms: C_7  and  C_11
REMARK    3  A    between atoms: C_12  and  C_13
REMARK    4  A    between atoms: C_16  and  O_20
REMARK    5  A    between atoms: C_18  and  O_22
REMARK    6  A    between atoms: C_24  and  C_26
REMARK    7  A    between atoms: C_27  and  C_28
REMARK    8  A    between atoms: C_28  and  C_29
REMARK    9  A    between atoms: C_29  and  O_32
REMARK                            x       y       z     vdW  Elec       q    Type
REMARK                         _______ _______ _______ _____ _____    ______ ____
ROOT
ATOM      1  C   UNL     1      59.475 214.260 341.977  0.00  0.00    +0.000 C 
ATOM      2  C   UNL     1      58.355 215.296 342.012  0.00  0.00    +0.000 C 
ATOM      3  C   UNL     1      60.367 214.644 343.278  0.00  0.00    +0.000 C 
ATOM      4  C   UNL     1      58.451 216.065 343.210  0.00  0.00    +0.000 C 
ATOM      5  C   UNL     1      59.662 215.655 344.003  0.00  0.00    +0.000 C 
ATOM      6  C   UNL     1      60.366 214.366 340.810  0.00  0.00    +0.000 C 
ATOM      7  C   UNL     1      61.834 214.648 343.211  0.00  0.00    +0.000 C 
ATOM      8  C   UNL     1      58.917 212.829 342.225  0.00  0.00    +0.000 C 
ATOM      9  C   UNL     1      61.844 214.499 340.487  0.00  0.00    +0.000 C 
ATOM     10  C   UNL     1      62.379 214.600 341.900  0.00  0.00    +0.000 C 
ENDROOT
BRANCH   7  11
ATOM     11  C   UNL     1      62.614 214.826 344.230  0.00  0.00    +0.000 C 
ATOM     12  C   UNL     1      63.539 215.051 345.432  0.00  0.00    +0.000 C 
BRANCH  12  13
ATOM     13  C   UNL     1      64.321 215.251 346.449  0.00  0.00    +0.000 A 
ATOM     14  C   UNL     1      63.761 215.360 347.763  0.00  0.00    +0.000 A 
ATOM     15  C   UNL     1      65.805 215.447 346.413  0.00  0.00    +0.000 A 
ATOM     16  C   UNL     1      64.326 215.617 349.045  0.00  0.00    +0.000 A 
ATOM     17  C   UNL     1      65.727 215.790 348.862  0.00  0.00    +0.000 A 
ATOM     18  C   UNL     1      66.534 215.733 347.689  0.00  0.00    +0.000 A 
ATOM     19  C   UNL     1      66.510 215.368 345.270  0.00  0.00    +0.000 C 
BRANCH  16  20
ATOM     20  O   UNL     1      63.807 215.052 350.174  0.00  0.00    +0.000 OA
ATOM     21  H   UNL     1      63.159 214.362 349.957  0.00  0.00    +0.000 HD
ENDBRANCH  16  20
BRANCH  18  22
ATOM     22  O   UNL     1      67.896 215.914 347.720  0.00  0.00    +0.000 OA
ATOM     23  H   UNL     1      68.353 215.088 347.468  0.00  0.00    +0.000 HD
ENDBRANCH  18  22
ENDBRANCH  12  13
ENDBRANCH   7  11
BRANCH   2  24
ATOM     24  C   UNL     1      57.277 215.377 341.078  0.00  0.00    +0.000 C 
ATOM     25  C   UNL     1      56.061 214.489 341.149  0.00  0.00    +0.000 C 
BRANCH  24  26
ATOM     26  C   UNL     1      57.377 216.179 339.909  0.00  0.00    +0.000 C 
ATOM     27  C   UNL     1      57.490 217.058 338.657  0.00  0.00    +0.000 C 
BRANCH  27  28
ATOM     28  C   UNL     1      57.608 217.947 337.413  0.00  0.00    +0.000 C 
BRANCH  28  29
ATOM     29  C   UNL     1      57.716 218.793 336.225  0.00  0.00    +0.000 C 
ATOM     30  C   UNL     1      56.898 218.265 335.040  0.00  0.00    +0.000 C 
ATOM     31  C   UNL     1      57.381 220.264 336.499  0.00  0.00    +0.000 C 
BRANCH  29  32
ATOM     32  O   UNL     1      59.056 218.795 335.784  0.00  0.00    +0.000 OA
ATOM     33  H   UNL     1      59.064 217.930 335.349  0.00  0.00    +0.000 HD
ENDBRANCH  29  32
ENDBRANCH  28  29
ENDBRANCH  27  28
ENDBRANCH  24  26
ENDBRANCH   2  24
TORSDOF 9
ENDMDL
MODEL 6
REMARK VINA RESULT:      -5.6     15.220     21.285
REMARK  Name = Calcitriol.pdbqt.pdb
REMARK  9 active torsions:
REMARK  status: ('A' for Active; 'I' for Inactive)
REMARK    1  A    between atoms: C_2  and  C_24
REMARK    2  A    between atoms: C_7  and  C_11
REMARK    3  A    between atoms: C_12  and  C_13
REMARK    4  A    between atoms: C_16  and  O_20
REMARK    5  A    between atoms: C_18  and  O_22
REMARK    6  A    between atoms: C_24  and  C_26
REMARK    7  A    between atoms: C_27  and  C_28
REMARK    8  A    between atoms: C_28  and  C_29
REMARK    9  A    between atoms: C_29  and  O_32
REMARK                            x       y       z     vdW  Elec       q    Type
REMARK                         _______ _______ _______ _____ _____    ______ ____
ROOT
ATOM      1  C   UNL     1      73.475 220.261 343.677  0.00  0.00    +0.000 C 
ATOM      2  C   UNL     1      74.531 221.362 343.654  0.00  0.00    +0.000 C 
ATOM      3  C   UNL     1      72.745 220.427 342.236  0.00  0.00    +0.000 C 
ATOM      4  C   UNL     1      74.555 221.977 342.367  0.00  0.00    +0.000 C 
ATOM      5  C   UNL     1      73.486 221.393 341.485  0.00  0.00    +0.000 C 
ATOM      6  C   UNL     1      72.430 220.441 344.699  0.00  0.00    +0.000 C 
ATOM      7  C   UNL     1      71.285 220.335 342.116  0.00  0.00    +0.000 C 
ATOM      8  C   UNL     1      74.136 218.854 343.683  0.00  0.00    +0.000 C 
ATOM      9  C   UNL     1      70.918 220.507 344.814  0.00  0.00    +0.000 C 
ATOM     10  C   UNL     1      70.572 220.404 343.342  0.00  0.00    +0.000 C 
ENDROOT
BRANCH   7  11
ATOM     11  C   UNL     1      70.640 220.338 340.992  0.00  0.00    +0.000 C 
ATOM     12  C   UNL     1      69.889 220.347 339.655  0.00  0.00    +0.000 C 
BRANCH  12  13
ATOM     13  C   UNL     1      69.261 220.355 338.518  0.00  0.00    +0.000 A 
ATOM     14  C   UNL     1      69.950 220.764 337.331  0.00  0.00    +0.000 A 
ATOM     15  C   UNL     1      67.818 220.026 338.290  0.00  0.00    +0.000 A 
ATOM     16  C   UNL     1      69.543 220.922 335.975  0.00  0.00    +0.000 A 
ATOM     17  C   UNL     1      68.161 220.587 335.906  0.00  0.00    +0.000 A 
ATOM     18  C   UNL     1      67.250 220.155 336.912  0.00  0.00    +0.000 A 
ATOM     19  C   UNL     1      67.013 219.610 339.285  0.00  0.00    +0.000 C 
BRANCH  16  20
ATOM     20  O   UNL     1      70.402 220.671 334.944  0.00  0.00    +0.000 OA
ATOM     21  H   UNL     1      69.946 220.712 334.087  0.00  0.00    +0.000 HD
ENDBRANCH  16  20
BRANCH  18  22
ATOM     22  O   UNL     1      65.935 219.860 336.639  0.00  0.00    +0.000 OA
ATOM     23  H   UNL     1      65.363 220.165 337.369  0.00  0.00    +0.000 HD
ENDBRANCH  18  22
ENDBRANCH  12  13
ENDBRANCH   7  11
BRANCH   2  24
ATOM     24  C   UNL     1      75.468 221.626 344.699  0.00  0.00    +0.000 C 
ATOM     25  C   UNL     1      76.808 220.942 344.794  0.00  0.00    +0.000 C 
BRANCH  24  26
ATOM     26  C   UNL     1      75.110 222.421 345.823  0.00  0.00    +0.000 C 
ATOM     27  C   UNL     1      74.738 223.272 347.043  0.00  0.00    +0.000 C 
BRANCH  27  28
ATOM     28  C   UNL     1      74.377 224.119 348.270  0.00  0.00    +0.000 C 
BRANCH  28  29
ATOM     29  C   UNL     1      74.028 224.924 349.440  0.00  0.00    +0.000 C 
ATOM     30  C   UNL     1      72.608 224.650 349.950  0.00  0.00    +0.000 C 
ATOM     31  C   UNL     1      75.044 224.801 350.582  0.00  0.00    +0.000 C 
BRANCH  29  32
ATOM     32  O   UNL     1      74.041 226.287 349.080  0.00  0.00    +0.000 OA
ATOM     33  H   UNL     1      73.853 226.186 348.135  0.00  0.00    +0.000 HD
ENDBRANCH  29  32
ENDBRANCH  28  29
ENDBRANCH  27  28
ENDBRANCH  24  26
ENDBRANCH   2  24
TORSDOF 9
ENDMDL
MODEL 7
REMARK VINA RESULT:      -5.5      6.924     12.036
REMARK  Name = Calcitriol.pdbqt.pdb
REMARK  9 active torsions:
REMARK  status: ('A' for Active; 'I' for Inactive)
REMARK    1  A    between atoms: C_2  and  C_24
REMARK    2  A    between atoms: C_7  and  C_11
REMARK    3  A    between atoms: C_12  and  C_13
REMARK    4  A    between atoms: C_16  and  O_20
REMARK    5  A    between atoms: C_18  and  O_22
REMARK    6  A    between atoms: C_24  and  C_26
REMARK    7  A    between atoms: C_27  and  C_28
REMARK    8  A    between atoms: C_28  and  C_29
REMARK    9  A    between atoms: C_29  and  O_32
REMARK                            x       y       z     vdW  Elec       q    Type
REMARK                         _______ _______ _______ _____ _____    ______ ____
ROOT
ATOM      1  C   UNL     1      59.971 214.169 341.757  0.00  0.00    +0.000 C 
ATOM      2  C   UNL     1      58.787 215.035 342.178  0.00  0.00    +0.000 C 
ATOM      3  C   UNL     1      61.074 214.477 342.908  0.00  0.00    +0.000 C 
ATOM      4  C   UNL     1      59.055 215.632 343.445  0.00  0.00    +0.000 C 
ATOM      5  C   UNL     1      60.440 215.274 343.913  0.00  0.00    +0.000 C 
ATOM      6  C   UNL     1      60.584 214.556 340.476  0.00  0.00    +0.000 C 
ATOM      7  C   UNL     1      62.486 214.681 342.563  0.00  0.00    +0.000 C 
ATOM      8  C   UNL     1      59.622 212.658 341.866  0.00  0.00    +0.000 C 
ATOM      9  C   UNL     1      61.940 214.925 339.902  0.00  0.00    +0.000 C 
ATOM     10  C   UNL     1      62.747 214.893 341.183  0.00  0.00    +0.000 C 
ENDROOT
BRANCH   7  11
ATOM     11  C   UNL     1      63.441 214.813 343.430  0.00  0.00    +0.000 C 
ATOM     12  C   UNL     1      64.579 214.974 344.445  0.00  0.00    +0.000 C 
BRANCH  12  13
ATOM     13  C   UNL     1      65.547 215.116 345.298  0.00  0.00    +0.000 A 
ATOM     14  C   UNL     1      66.832 214.551 345.014  0.00  0.00    +0.000 A 
ATOM     15  C   UNL     1      65.470 215.784 346.636  0.00  0.00    +0.000 A 
ATOM     16  C   UNL     1      68.054 214.493 345.743  0.00  0.00    +0.000 A 
ATOM     17  C   UNL     1      67.836 215.152 346.986  0.00  0.00    +0.000 A 
ATOM     18  C   UNL     1      66.680 215.794 347.517  0.00  0.00    +0.000 A 
ATOM     19  C   UNL     1      64.348 216.385 347.073  0.00  0.00    +0.000 C 
BRANCH  16  20
ATOM     20  O   UNL     1      69.261 214.527 345.107  0.00  0.00    +0.000 OA
ATOM     21  H   UNL     1      69.206 214.122 344.226  0.00  0.00    +0.000 HD
ENDBRANCH  16  20
BRANCH  18  22
ATOM     22  O   UNL     1      66.673 216.398 348.752  0.00  0.00    +0.000 OA
ATOM     23  H   UNL     1      66.550 217.362 348.656  0.00  0.00    +0.000 HD
ENDBRANCH  18  22
ENDBRANCH  12  13
ENDBRANCH   7  11
BRANCH   2  24
ATOM     24  C   UNL     1      57.535 215.106 341.494  0.00  0.00    +0.000 C 
ATOM     25  C   UNL     1      56.386 214.174 341.784  0.00  0.00    +0.000 C 
BRANCH  24  26
ATOM     26  C   UNL     1      57.363 215.948 340.361  0.00  0.00    +0.000 C 
ATOM     27  C   UNL     1      57.181 216.844 339.130  0.00  0.00    +0.000 C 
BRANCH  27  28
ATOM     28  C   UNL     1      57.003 217.729 337.890  0.00  0.00    +0.000 C 
BRANCH  28  29
ATOM     29  C   UNL     1      56.833 218.577 336.710  0.00  0.00    +0.000 C 
ATOM     30  C   UNL     1      58.117 219.317 336.319  0.00  0.00    +0.000 C 
ATOM     31  C   UNL     1      56.254 217.826 335.505  0.00  0.00    +0.000 C 
BRANCH  29  32
ATOM     32  O   UNL     1      55.893 219.587 337.002  0.00  0.00    +0.000 OA
ATOM     33  H   UNL     1      56.466 220.169 337.521  0.00  0.00    +0.000 HD
ENDBRANCH  29  32
ENDBRANCH  28  29
ENDBRANCH  27  28
ENDBRANCH  24  26
ENDBRANCH   2  24
TORSDOF 9
ENDMDL
MODEL 8
REMARK VINA RESULT:      -5.5     12.534     16.723
REMARK  Name = Calcitriol.pdbqt.pdb
REMARK  9 active torsions:
REMARK  status: ('A' for Active; 'I' for Inactive)
REMARK    1  A    between atoms: C_2  and  C_24
REMARK    2  A    between atoms: C_7  and  C_11
REMARK    3  A    between atoms: C_12  and  C_13
REMARK    4  A    between atoms: C_16  and  O_20
REMARK    5  A    between atoms: C_18  and  O_22
REMARK    6  A    between atoms: C_24  and  C_26
REMARK    7  A    between atoms: C_27  and  C_28
REMARK    8  A    between atoms: C_28  and  C_29
REMARK    9  A    between atoms: C_29  and  O_32
REMARK                            x       y       z     vdW  Elec       q    Type
REMARK                         _______ _______ _______ _____ _____    ______ ____
ROOT
ATOM      1  C   UNL     1      70.041 221.941 338.409  0.00  0.00    +0.000 C 
ATOM      2  C   UNL     1      70.225 221.089 339.662  0.00  0.00    +0.000 C 
ATOM      3  C   UNL     1      68.810 221.206 337.648  0.00  0.00    +0.000 C 
ATOM      4  C   UNL     1      69.186 220.114 339.736  0.00  0.00    +0.000 C 
ATOM      5  C   UNL     1      68.300 220.196 338.523  0.00  0.00    +0.000 C 
ATOM      6  C   UNL     1      71.184 221.915 337.482  0.00  0.00    +0.000 C 
ATOM      7  C   UNL     1      68.838 221.001 336.194  0.00  0.00    +0.000 C 
ATOM      8  C   UNL     1      69.551 223.371 338.775  0.00  0.00    +0.000 C 
ATOM      9  C   UNL     1      71.488 221.627 336.022  0.00  0.00    +0.000 C 
ATOM     10  C   UNL     1      70.103 221.200 335.580  0.00  0.00    +0.000 C 
ENDROOT
BRANCH   7  11
ATOM     11  C   UNL     1      67.848 220.533 335.501  0.00  0.00    +0.000 C 
ATOM     12  C   UNL     1      66.682 219.966 334.682  0.00  0.00    +0.000 C 
BRANCH  12  13
ATOM     13  C   UNL     1      65.696 219.477 333.993  0.00  0.00    +0.000 A 
ATOM     14  C   UNL     1      64.806 218.534 334.601  0.00  0.00    +0.000 A 
ATOM     15  C   UNL     1      65.390 219.747 332.552  0.00  0.00    +0.000 A 
ATOM     16  C   UNL     1      63.686 217.799 334.115  0.00  0.00    +0.000 A 
ATOM     17  C   UNL     1      63.517 218.143 332.744  0.00  0.00    +0.000 A 
ATOM     18  C   UNL     1      64.242 219.037 331.905  0.00  0.00    +0.000 A 
ATOM     19  C   UNL     1      66.110 220.615 331.818  0.00  0.00    +0.000 C 
BRANCH  16  20
ATOM     20  O   UNL     1      62.628 217.504 334.925  0.00  0.00    +0.000 OA
ATOM     21  H   UNL     1      61.970 216.960 334.460  0.00  0.00    +0.000 HD
ENDBRANCH  16  20
BRANCH  18  22
ATOM     22  O   UNL     1      63.908 219.250 330.589  0.00  0.00    +0.000 OA
ATOM     23  H   UNL     1      62.952 219.435 330.509  0.00  0.00    +0.000 HD
ENDBRANCH  18  22
ENDBRANCH  12  13
ENDBRANCH   7  11
BRANCH   2  24
ATOM     24  C   UNL     1      71.186 221.334 340.691  0.00  0.00    +0.000 C 
ATOM     25  C   UNL     1      70.989 220.896 342.120  0.00  0.00    +0.000 C 
BRANCH  24  26
ATOM     26  C   UNL     1      72.309 222.175 340.462  0.00  0.00    +0.000 C 
ATOM     27  C   UNL     1      73.529 223.069 340.209  0.00  0.00    +0.000 C 
BRANCH  27  28
ATOM     28  C   UNL     1      74.756 223.953 339.950  0.00  0.00    +0.000 C 
BRANCH  28  29
ATOM     29  C   UNL     1      75.923 224.798 339.702  0.00  0.00    +0.000 C 
ATOM     30  C   UNL     1      76.757 225.048 340.965  0.00  0.00    +0.000 C 
ATOM     31  C   UNL     1      76.810 224.283 338.563  0.00  0.00    +0.000 C 
BRANCH  29  32
ATOM     32  O   UNL     1      75.486 226.072 339.283  0.00  0.00    +0.000 OA
ATOM     33  H   UNL     1      76.083 226.612 339.823  0.00  0.00    +0.000 HD
ENDBRANCH  29  32
ENDBRANCH  28  29
ENDBRANCH  27  28
ENDBRANCH  24  26
ENDBRANCH   2  24
TORSDOF 9
ENDMDL
MODEL 9
REMARK VINA RESULT:      -5.5     20.392     23.356
REMARK  Name = Calcitriol.pdbqt.pdb
REMARK  9 active torsions:
REMARK  status: ('A' for Active; 'I' for Inactive)
REMARK    1  A    between atoms: C_2  and  C_24
REMARK    2  A    between atoms: C_7  and  C_11
REMARK    3  A    between atoms: C_12  and  C_13
REMARK    4  A    between atoms: C_16  and  O_20
REMARK    5  A    between atoms: C_18  and  O_22
REMARK    6  A    between atoms: C_24  and  C_26
REMARK    7  A    between atoms: C_27  and  C_28
REMARK    8  A    between atoms: C_28  and  C_29
REMARK    9  A    between atoms: C_29  and  O_32
REMARK                            x       y       z     vdW  Elec       q    Type
REMARK                         _______ _______ _______ _____ _____    ______ ____
ROOT
ATOM      1  C   UNL     1      56.932 227.196 354.137  0.00  0.00    +0.000 C 
ATOM      2  C   UNL     1      58.121 226.958 353.211  0.00  0.00    +0.000 C 
ATOM      3  C   UNL     1      55.817 226.160 353.571  0.00  0.00    +0.000 C 
ATOM      4  C   UNL     1      57.843 225.859 352.346  0.00  0.00    +0.000 C 
ATOM      5  C   UNL     1      56.448 225.347 352.577  0.00  0.00    +0.000 C 
ATOM      6  C   UNL     1      56.343 228.541 354.038  0.00  0.00    +0.000 C 
ATOM      7  C   UNL     1      54.413 226.566 353.434  0.00  0.00    +0.000 C 
ATOM      8  C   UNL     1      57.259 226.749 355.590  0.00  0.00    +0.000 C 
ATOM      9  C   UNL     1      55.000 229.206 353.792  0.00  0.00    +0.000 C 
ATOM     10  C   UNL     1      54.174 227.962 353.532  0.00  0.00    +0.000 C 
ENDROOT
BRANCH   7  11
ATOM     11  C   UNL     1      53.448 225.766 353.104  0.00  0.00    +0.000 C 
ATOM     12  C   UNL     1      52.307 224.824 352.700  0.00  0.00    +0.000 C 
BRANCH  12  13
ATOM     13  C   UNL     1      51.345 224.026 352.349  0.00  0.00    +0.000 A 
ATOM     14  C   UNL     1      50.760 224.151 351.048  0.00  0.00    +0.000 A 
ATOM     15  C   UNL     1      50.699 222.974 353.197  0.00  0.00    +0.000 A 
ATOM     16  C   UNL     1      49.688 223.479 350.393  0.00  0.00    +0.000 A 
ATOM     17  C   UNL     1      49.167 222.522 351.309  0.00  0.00    +0.000 A 
ATOM     18  C   UNL     1      49.552 222.191 352.640  0.00  0.00    +0.000 A 
ATOM     19  C   UNL     1      51.122 222.702 354.445  0.00  0.00    +0.000 C 
BRANCH  16  20
ATOM     20  O   UNL     1      49.708 223.257 349.047  0.00  0.00    +0.000 OA
ATOM     21  H   UNL     1      50.370 223.817 348.607  0.00  0.00    +0.000 HD
ENDBRANCH  16  20
BRANCH  18  22
ATOM     22  O   UNL     1      48.925 221.208 353.367  0.00  0.00    +0.000 OA
ATOM     23  H   UNL     1      49.249 221.210 354.289  0.00  0.00    +0.000 HD
ENDBRANCH  18  22
ENDBRANCH  12  13
ENDBRANCH   7  11
BRANCH   2  24
ATOM     24  C   UNL     1      59.384 227.620 353.306  0.00  0.00    +0.000 C 
ATOM     25  C   UNL     1      59.548 229.107 353.123  0.00  0.00    +0.000 C 
BRANCH  24  26
ATOM     26  C   UNL     1      60.595 226.881 353.395  0.00  0.00    +0.000 C 
ATOM     27  C   UNL     1      61.911 226.098 353.489  0.00  0.00    +0.000 C 
BRANCH  27  28
ATOM     28  C   UNL     1      63.234 225.327 353.581  0.00  0.00    +0.000 C 
BRANCH  28  29
ATOM     29  C   UNL     1      64.497 224.595 353.666  0.00  0.00    +0.000 C 
ATOM     30  C   UNL     1      65.639 225.288 352.915  0.00  0.00    +0.000 C 
ATOM     31  C   UNL     1      64.914 224.276 355.106  0.00  0.00    +0.000 C 
BRANCH  29  32
ATOM     32  O   UNL     1      64.343 223.341 353.040  0.00  0.00    +0.000 OA
ATOM     33  H   UNL     1      64.614 223.594 352.145  0.00  0.00    +0.000 HD
ENDBRANCH  29  32
ENDBRANCH  28  29
ENDBRANCH  27  28
ENDBRANCH  24  26
ENDBRANCH   2  24
TORSDOF 9
ENDMDL
