MODEL 1
REMARK VINA RESULT:      -8.7      0.000      0.000
REMARK  Name = 
REMARK  17 active torsions:
REMARK  status: ('A' for Active; 'I' for Inactive)
REMARK    1  A    between atoms: O_1  and  C_14
REMARK    2  A    between atoms: O_2  and  C_32
REMARK    3  A    between atoms: O_2  and  C_36
REMARK    4  A    between atoms: O_6  and  C_39
REMARK    5  A    between atoms: O_7  and  C_41
REMARK    6  A    between atoms: O_7  and  C_43
REMARK    7  A    between atoms: O_9  and  C_47
REMARK    8  A    between atoms: O_9  and  C_49
REMARK    9  A    between atoms: O_10  and  C_45
REMARK   10  A    between atoms: O_12  and  C_51
REMARK   11  A    between atoms: O_13  and  C_53
REMARK   12  A    between atoms: C_17  and  C_29
REMARK   13  A    between atoms: C_18  and  C_30
REMARK   14  A    between atoms: C_22  and  C_33
REMARK   15  A    between atoms: C_40  and  C_42
REMARK   16  A    between atoms: C_46  and  C_48
REMARK   17  A    between atoms: C_52  and  C_54
REMARK                            x       y       z     vdW  Elec       q    Type
REMARK                         _______ _______ _______ _____ _____    ______ ____
ROOT
ATOM      1  O   UNL     1      54.325 217.925 326.653  0.00  0.00    +0.000 OA
ATOM      2  C   UNL     1      54.485 218.749 327.805  0.00  0.00    +0.000 C 
ATOM      3  C   UNL     1      55.935 219.197 328.003  0.00  0.00    +0.000 C 
ATOM      4  C   UNL     1      56.793 218.855 326.795  0.00  0.00    +0.000 C 
ATOM      5  C   UNL     1      54.651 218.612 325.438  0.00  0.00    +0.000 C 
ATOM      6  C   UNL     1      56.107 219.135 325.443  0.00  0.00    +0.000 C 
ATOM      7  C   UNL     1      54.424 217.620 324.298  0.00  0.00    +0.000 C 
ENDROOT
BRANCH   4   8
ATOM      8  O   UNL     1      58.093 219.425 326.897  0.00  0.00    +0.000 OA
ATOM      9  H   UNL     1      58.534 218.972 327.647  0.00  0.00    +0.000 HD
ENDBRANCH   4   8
BRANCH   2  10
ATOM     10  O   UNL     1      53.972 218.128 328.984  0.00  0.00    +0.000 OA
BRANCH  10  29
ATOM     11  C   UNL     1      58.789 217.557 335.069  0.00  0.00    +0.000 C 
ATOM     12  C   UNL     1      57.830 217.608 333.848  0.00  0.00    +0.000 C 
ATOM     13  C   UNL     1      56.401 217.096 334.163  0.00  0.00    +0.000 C 
ATOM     14  C   UNL     1      58.204 218.183 336.367  0.00  0.00    +0.000 C 
ATOM     15  C   UNL     1      55.424 217.155 332.918  0.00  0.00    +0.000 C 
ATOM     16  C   UNL     1      56.102 216.489 331.675  0.00  0.00    +0.000 C 
ATOM     17  C   UNL     1      55.852 217.814 335.414  0.00  0.00    +0.000 C 
ATOM     18  C   UNL     1      56.774 217.649 336.623  0.00  0.00    +0.000 C 
ATOM     19  C   UNL     1      59.222 217.671 337.437  0.00  0.00    +0.000 C 
ATOM     20  C   UNL     1      58.416 216.857 332.644  0.00  0.00    +0.000 C 
ATOM     21  C   UNL     1      59.209 216.141 335.501  0.00  0.00    +0.000 C 
ATOM     22  C   UNL     1      57.528 217.009 331.419  0.00  0.00    +0.000 C 
ATOM     23  C   UNL     1      59.528 216.224 336.999  0.00  0.00    +0.000 C 
ATOM     24  C   UNL     1      55.007 218.611 332.570  0.00  0.00    +0.000 C 
ATOM     25  C   UNL     1      55.266 216.642 330.387  0.00  0.00    +0.000 C 
ATOM     26  C   UNL     1      58.179 219.724 336.316  0.00  0.00    +0.000 C 
ATOM     27  C   UNL     1      54.146 216.346 333.277  0.00  0.00    +0.000 C 
ATOM     28  C   UNL     1      54.183 218.725 331.288  0.00  0.00    +0.000 C 
ATOM     29  C   UNL     1      54.885 218.094 330.087  0.00  0.00    +0.000 C 
BRANCH  19  32
ATOM     30  O   UNL     1      58.054 217.251 340.967  0.00  0.00    +0.000 OA
ATOM     31  O   UNL     1      58.151 219.361 341.867  0.00  0.00    +0.000 OA
ATOM     32  C   UNL     1      58.842 217.843 338.883  0.00  0.00    +0.000 C 
ATOM     33  C   UNL     1      58.367 216.693 339.692  0.00  0.00    +0.000 C 
ATOM     34  C   UNL     1      58.789 218.957 339.614  0.00  0.00    +0.000 C 
ATOM     35  C   UNL     1      58.304 218.586 340.941  0.00  0.00    +0.000 C 
ENDBRANCH  19  32
BRANCH  11  36
ATOM     36  O   UNL     1      60.008 218.236 334.722  0.00  0.00    +0.000 OA
ATOM     37  H   UNL     1      60.748 217.795 335.173  0.00  0.00    +0.000 HD
ENDBRANCH  11  36
ENDBRANCH  10  29
ENDBRANCH   2  10
BRANCH   6  38
ATOM     38  O   UNL     1      56.222 220.421 324.826  0.00  0.00    +0.000 OA
BRANCH  38  40
ATOM     39  O   UNL     1      57.239 222.056 326.213  0.00  0.00    +0.000 OA
ATOM     40  C   UNL     1      57.307 221.321 324.999  0.00  0.00    +0.000 C 
ATOM     41  C   UNL     1      57.612 222.228 323.810  0.00  0.00    +0.000 C 
ATOM     42  C   UNL     1      58.180 223.578 324.238  0.00  0.00    +0.000 C 
ATOM     43  C   UNL     1      58.530 222.585 326.572  0.00  0.00    +0.000 C 
ATOM     44  C   UNL     1      59.089 223.536 325.483  0.00  0.00    +0.000 C 
ATOM     45  C   UNL     1      58.351 223.316 327.901  0.00  0.00    +0.000 C 
BRANCH  42  46
ATOM     46  O   UNL     1      58.808 224.236 323.139  0.00  0.00    +0.000 OA
ATOM     47  H   UNL     1      58.852 223.611 322.394  0.00  0.00    +0.000 HD
ENDBRANCH  42  46
BRANCH  44  48
ATOM     48  O   UNL     1      60.495 223.343 325.281  0.00  0.00    +0.000 OA
BRANCH  48  50
ATOM     49  O   UNL     1      61.508 225.460 325.355  0.00  0.00    +0.000 OA
ATOM     50  C   UNL     1      61.410 224.183 325.974  0.00  0.00    +0.000 C 
ATOM     51  C   UNL     1      62.775 223.489 325.911  0.00  0.00    +0.000 C 
ATOM     52  C   UNL     1      63.932 224.485 325.956  0.00  0.00    +0.000 C 
ATOM     53  C   UNL     1      62.296 226.393 326.117  0.00  0.00    +0.000 C 
ATOM     54  C   UNL     1      63.548 225.744 326.736  0.00  0.00    +0.000 C 
ATOM     55  C   UNL     1      62.671 227.515 325.155  0.00  0.00    +0.000 C 
BRANCH  52  56
ATOM     56  O   UNL     1      65.053 223.861 326.595  0.00  0.00    +0.000 OA
ATOM     57  H   UNL     1      64.710 223.334 327.339  0.00  0.00    +0.000 HD
ENDBRANCH  52  56
BRANCH  54  58
ATOM     58  O   UNL     1      63.259 225.361 328.092  0.00  0.00    +0.000 OA
ATOM     59  H   UNL     1      64.089 225.506 328.592  0.00  0.00    +0.000 HD
ENDBRANCH  54  58
ENDBRANCH  48  50
ENDBRANCH  44  48
ENDBRANCH  38  40
ENDBRANCH   6  38
TORSDOF 12
ENDMDL
MODEL 2
REMARK VINA RESULT:      -7.9     19.266     24.656
REMARK  Name = 
REMARK  17 active torsions:
REMARK  status: ('A' for Active; 'I' for Inactive)
REMARK    1  A    between atoms: O_1  and  C_14
REMARK    2  A    between atoms: O_2  and  C_32
REMARK    3  A    between atoms: O_2  and  C_36
REMARK    4  A    between atoms: O_6  and  C_39
REMARK    5  A    between atoms: O_7  and  C_41
REMARK    6  A    between atoms: O_7  and  C_43
REMARK    7  A    between atoms: O_9  and  C_47
REMARK    8  A    between atoms: O_9  and  C_49
REMARK    9  A    between atoms: O_10  and  C_45
REMARK   10  A    between atoms: O_12  and  C_51
REMARK   11  A    between atoms: O_13  and  C_53
REMARK   12  A    between atoms: C_17  and  C_29
REMARK   13  A    between atoms: C_18  and  C_30
REMARK   14  A    between atoms: C_22  and  C_33
REMARK   15  A    between atoms: C_40  and  C_42
REMARK   16  A    between atoms: C_46  and  C_48
REMARK   17  A    between atoms: C_52  and  C_54
REMARK                            x       y       z     vdW  Elec       q    Type
REMARK                         _______ _______ _______ _____ _____    ______ ____
ROOT
ATOM      1  O   UNL     1      50.214 242.310 327.318  0.00  0.00    +0.000 OA
ATOM      2  C   UNL     1      48.901 242.857 327.401  0.00  0.00    +0.000 C 
ATOM      3  C   UNL     1      48.756 243.850 328.557  0.00  0.00    +0.000 C 
ATOM      4  C   UNL     1      50.106 244.187 329.173  0.00  0.00    +0.000 C 
ATOM      5  C   UNL     1      51.207 243.308 327.051  0.00  0.00    +0.000 C 
ATOM      6  C   UNL     1      51.226 244.410 328.137  0.00  0.00    +0.000 C 
ATOM      7  C   UNL     1      52.551 242.583 326.978  0.00  0.00    +0.000 C 
ENDROOT
BRANCH   4   8
ATOM      8  O   UNL     1      49.999 245.240 330.125  0.00  0.00    +0.000 OA
ATOM      9  H   UNL     1      49.324 245.859 329.776  0.00  0.00    +0.000 HD
ENDBRANCH   4   8
BRANCH   2  10
ATOM     10  O   UNL     1      47.900 241.841 327.468  0.00  0.00    +0.000 OA
BRANCH  10  29
ATOM     11  C   UNL     1      48.550 236.090 322.267  0.00  0.00    +0.000 C 
ATOM     12  C   UNL     1      48.390 237.273 323.260  0.00  0.00    +0.000 C 
ATOM     13  C   UNL     1      46.937 237.467 323.763  0.00  0.00    +0.000 C 
ATOM     14  C   UNL     1      47.902 234.760 322.747  0.00  0.00    +0.000 C 
ATOM     15  C   UNL     1      46.780 238.670 324.780  0.00  0.00    +0.000 C 
ATOM     16  C   UNL     1      47.451 239.957 324.196  0.00  0.00    +0.000 C 
ATOM     17  C   UNL     1      46.384 236.129 324.296  0.00  0.00    +0.000 C 
ATOM     18  C   UNL     1      46.460 235.017 323.250  0.00  0.00    +0.000 C 
ATOM     19  C   UNL     1      47.923 233.918 321.431  0.00  0.00    +0.000 C 
ATOM     20  C   UNL     1      48.933 238.581 322.666  0.00  0.00    +0.000 C 
ATOM     21  C   UNL     1      47.923 236.323 320.880  0.00  0.00    +0.000 C 
ATOM     22  C   UNL     1      48.882 239.708 323.685  0.00  0.00    +0.000 C 
ATOM     23  C   UNL     1      47.566 234.937 320.330  0.00  0.00    +0.000 C 
ATOM     24  C   UNL     1      47.394 238.344 326.170  0.00  0.00    +0.000 C 
ATOM     25  C   UNL     1      47.466 241.130 325.197  0.00  0.00    +0.000 C 
ATOM     26  C   UNL     1      48.723 234.075 323.858  0.00  0.00    +0.000 C 
ATOM     27  C   UNL     1      45.260 238.945 324.962  0.00  0.00    +0.000 C 
ATOM     28  C   UNL     1      47.394 239.529 327.136  0.00  0.00    +0.000 C 
ATOM     29  C   UNL     1      48.084 240.759 326.548  0.00  0.00    +0.000 C 
BRANCH  19  32
ATOM     30  O   UNL     1      46.706 230.383 321.594  0.00  0.00    +0.000 OA
ATOM     31  O   UNL     1      44.511 230.492 320.930  0.00  0.00    +0.000 OA
ATOM     32  C   UNL     1      47.122 232.644 321.419  0.00  0.00    +0.000 C 
ATOM     33  C   UNL     1      47.744 231.345 321.776  0.00  0.00    +0.000 C 
ATOM     34  C   UNL     1      45.856 232.448 321.050  0.00  0.00    +0.000 C 
ATOM     35  C   UNL     1      45.582 231.018 321.172  0.00  0.00    +0.000 C 
ENDBRANCH  19  32
BRANCH  11  36
ATOM     36  O   UNL     1      49.952 235.877 322.029  0.00  0.00    +0.000 OA
ATOM     37  H   UNL     1      50.235 236.458 321.302  0.00  0.00    +0.000 HD
ENDBRANCH  11  36
ENDBRANCH  10  29
ENDBRANCH   2  10
BRANCH   6  38
ATOM     38  O   UNL     1      51.453 245.711 327.585  0.00  0.00    +0.000 OA
BRANCH  38  40
ATOM     39  O   UNL     1      52.864 246.642 325.920  0.00  0.00    +0.000 OA
ATOM     40  C   UNL     1      51.629 246.000 326.206  0.00  0.00    +0.000 C 
ATOM     41  C   UNL     1      50.460 246.701 325.521  0.00  0.00    +0.000 C 
ATOM     42  C   UNL     1      50.914 247.620 324.390  0.00  0.00    +0.000 C 
ATOM     43  C   UNL     1      53.213 246.500 324.530  0.00  0.00    +0.000 C 
ATOM     44  C   UNL     1      52.140 247.120 323.599  0.00  0.00    +0.000 C 
ATOM     45  C   UNL     1      54.564 247.186 324.344  0.00  0.00    +0.000 C 
BRANCH  42  46
ATOM     46  O   UNL     1      49.821 247.948 323.533  0.00  0.00    +0.000 OA
ATOM     47  H   UNL     1      49.182 248.476 324.043  0.00  0.00    +0.000 HD
ENDBRANCH  42  46
BRANCH  44  48
ATOM     48  O   UNL     1      51.905 246.304 322.444  0.00  0.00    +0.000 OA
BRANCH  48  50
ATOM     49  O   UNL     1      52.669 244.204 321.723  0.00  0.00    +0.000 OA
ATOM     50  C   UNL     1      51.795 244.896 322.608  0.00  0.00    +0.000 C 
ATOM     51  C   UNL     1      50.346 244.526 322.272  0.00  0.00    +0.000 C 
ATOM     52  C   UNL     1      50.223 243.105 321.727  0.00  0.00    +0.000 C 
ATOM     53  C   UNL     1      52.710 242.787 321.971  0.00  0.00    +0.000 C 
ATOM     54  C   UNL     1      51.323 242.201 322.290  0.00  0.00    +0.000 C 
ATOM     55  C   UNL     1      53.303 242.155 320.717  0.00  0.00    +0.000 C 
BRANCH  52  56
ATOM     56  O   UNL     1      48.944 242.577 322.101  0.00  0.00    +0.000 OA
ATOM     57  H   UNL     1      48.372 243.331 322.330  0.00  0.00    +0.000 HD
ENDBRANCH  52  56
BRANCH  54  58
ATOM     58  O   UNL     1      51.158 242.129 323.717  0.00  0.00    +0.000 OA
ATOM     59  H   UNL     1      50.198 242.240 323.880  0.00  0.00    +0.000 HD
ENDBRANCH  54  58
ENDBRANCH  48  50
ENDBRANCH  44  48
ENDBRANCH  38  40
ENDBRANCH   6  38
TORSDOF 12
ENDMDL
MODEL 3
REMARK VINA RESULT:      -7.9     10.032     15.366
REMARK  Name = 
REMARK  17 active torsions:
REMARK  status: ('A' for Active; 'I' for Inactive)
REMARK    1  A    between atoms: O_1  and  C_14
REMARK    2  A    between atoms: O_2  and  C_32
REMARK    3  A    between atoms: O_2  and  C_36
REMARK    4  A    between atoms: O_6  and  C_39
REMARK    5  A    between atoms: O_7  and  C_41
REMARK    6  A    between atoms: O_7  and  C_43
REMARK    7  A    between atoms: O_9  and  C_47
REMARK    8  A    between atoms: O_9  and  C_49
REMARK    9  A    between atoms: O_10  and  C_45
REMARK   10  A    between atoms: O_12  and  C_51
REMARK   11  A    between atoms: O_13  and  C_53
REMARK   12  A    between atoms: C_17  and  C_29
REMARK   13  A    between atoms: C_18  and  C_30
REMARK   14  A    between atoms: C_22  and  C_33
REMARK   15  A    between atoms: C_40  and  C_42
REMARK   16  A    between atoms: C_46  and  C_48
REMARK   17  A    between atoms: C_52  and  C_54
REMARK                            x       y       z     vdW  Elec       q    Type
REMARK                         _______ _______ _______ _____ _____    ______ ____
ROOT
ATOM      1  O   UNL     1      69.531 217.263 337.476  0.00  0.00    +0.000 OA
ATOM      2  C   UNL     1      68.595 218.001 336.694  0.00  0.00    +0.000 C 
ATOM      3  C   UNL     1      67.400 218.484 337.520  0.00  0.00    +0.000 C 
ATOM      4  C   UNL     1      67.627 218.265 339.008  0.00  0.00    +0.000 C 
ATOM      5  C   UNL     1      70.118 218.052 338.519  0.00  0.00    +0.000 C 
ATOM      6  C   UNL     1      69.050 218.624 339.481  0.00  0.00    +0.000 C 
ATOM      7  C   UNL     1      71.098 217.143 339.259  0.00  0.00    +0.000 C 
ENDROOT
BRANCH   4   8
ATOM      8  O   UNL     1      66.602 218.871 339.789  0.00  0.00    +0.000 OA
ATOM      9  H   UNL     1      66.671 218.479 340.685  0.00  0.00    +0.000 HD
ENDBRANCH   4   8
BRANCH   2  10
ATOM     10  O   UNL     1      68.166 217.274 335.543  0.00  0.00    +0.000 OA
BRANCH  10  29
ATOM     11  C   UNL     1      63.580 220.969 330.457  0.00  0.00    +0.000 C 
ATOM     12  C   UNL     1      64.488 220.178 331.438  0.00  0.00    +0.000 C 
ATOM     13  C   UNL     1      65.880 219.832 330.851  0.00  0.00    +0.000 C 
ATOM     14  C   UNL     1      64.271 222.196 329.796  0.00  0.00    +0.000 C 
ATOM     15  C   UNL     1      66.804 219.031 331.857  0.00  0.00    +0.000 C 
ATOM     16  C   UNL     1      66.020 217.814 332.451  0.00  0.00    +0.000 C 
ATOM     17  C   UNL     1      66.541 221.106 330.285  0.00  0.00    +0.000 C 
ATOM     18  C   UNL     1      65.660 221.796 329.243  0.00  0.00    +0.000 C 
ATOM     19  C   UNL     1      63.259 222.537 328.655  0.00  0.00    +0.000 C 
ATOM     20  C   UNL     1      63.789 218.909 331.948  0.00  0.00    +0.000 C 
ATOM     21  C   UNL     1      63.060 220.153 329.260  0.00  0.00    +0.000 C 
ATOM     22  C   UNL     1      64.634 218.202 332.996  0.00  0.00    +0.000 C 
ATOM     23  C   UNL     1      62.813 221.158 328.128  0.00  0.00    +0.000 C 
ATOM     24  C   UNL     1      67.329 219.930 333.011  0.00  0.00    +0.000 C 
ATOM     25  C   UNL     1      66.810 217.074 333.550  0.00  0.00    +0.000 C 
ATOM     26  C   UNL     1      64.425 223.379 330.774  0.00  0.00    +0.000 C 
ATOM     27  C   UNL     1      68.023 218.490 331.056  0.00  0.00    +0.000 C 
ATOM     28  C   UNL     1      68.105 219.164 334.082  0.00  0.00    +0.000 C 
ATOM     29  C   UNL     1      67.301 218.003 334.665  0.00  0.00    +0.000 C 
BRANCH  19  32
ATOM     30  O   UNL     1      63.884 225.529 326.496  0.00  0.00    +0.000 OA
ATOM     31  O   UNL     1      65.135 224.731 324.744  0.00  0.00    +0.000 OA
ATOM     32  C   UNL     1      63.714 223.515 327.606  0.00  0.00    +0.000 C 
ATOM     33  C   UNL     1      63.323 224.945 327.671  0.00  0.00    +0.000 C 
ATOM     34  C   UNL     1      64.416 223.293 326.494  0.00  0.00    +0.000 C 
ATOM     35  C   UNL     1      64.538 224.569 325.793  0.00  0.00    +0.000 C 
ENDBRANCH  19  32
BRANCH  11  36
ATOM     36  O   UNL     1      62.410 221.408 331.168  0.00  0.00    +0.000 OA
ATOM     37  H   UNL     1      61.793 221.809 330.532  0.00  0.00    +0.000 HD
ENDBRANCH  11  36
ENDBRANCH  10  29
ENDBRANCH   2  10
BRANCH   6  38
ATOM     38  O   UNL     1      69.357 219.957 339.902  0.00  0.00    +0.000 OA
BRANCH  38  40
ATOM     39  O   UNL     1      71.207 221.430 340.101  0.00  0.00    +0.000 OA
ATOM     40  C   UNL     1      70.243 220.845 339.236  0.00  0.00    +0.000 C 
ATOM     41  C   UNL     1      69.585 221.891 338.342  0.00  0.00    +0.000 C 
ATOM     42  C   UNL     1      70.385 223.188 338.275  0.00  0.00    +0.000 C 
ATOM     43  C   UNL     1      72.335 221.931 339.358  0.00  0.00    +0.000 C 
ATOM     44  C   UNL     1      71.916 223.012 338.329  0.00  0.00    +0.000 C 
ATOM     45  C   UNL     1      73.318 222.496 340.380  0.00  0.00    +0.000 C 
BRANCH  42  46
ATOM     46  O   UNL     1      69.976 223.981 337.161  0.00  0.00    +0.000 OA
ATOM     47  H   UNL     1      69.252 224.563 337.451  0.00  0.00    +0.000 HD
ENDBRANCH  42  46
BRANCH  44  48
ATOM     48  O   UNL     1      72.617 222.864 337.088  0.00  0.00    +0.000 OA
BRANCH  48  50
ATOM     49  O   UNL     1      74.940 223.186 336.977  0.00  0.00    +0.000 OA
ATOM     50  C   UNL     1      73.662 223.777 336.777  0.00  0.00    +0.000 C 
ATOM     51  C   UNL     1      73.505 224.966 337.732  0.00  0.00    +0.000 C 
ATOM     52  C   UNL     1      74.837 225.651 338.027  0.00  0.00    +0.000 C 
ATOM     53  C   UNL     1      76.021 224.019 336.517  0.00  0.00    +0.000 C 
ATOM     54  C   UNL     1      75.805 225.507 336.850  0.00  0.00    +0.000 C 
ATOM     55  C   UNL     1      77.283 223.480 337.181  0.00  0.00    +0.000 C 
BRANCH  52  56
ATOM     56  O   UNL     1      74.596 227.043 338.269  0.00  0.00    +0.000 OA
ATOM     57  H   UNL     1      73.653 227.212 338.092  0.00  0.00    +0.000 HD
ENDBRANCH  52  56
BRANCH  54  58
ATOM     58  O   UNL     1      75.227 226.166 335.710  0.00  0.00    +0.000 OA
ATOM     59  H   UNL     1      75.890 226.087 334.993  0.00  0.00    +0.000 HD
ENDBRANCH  54  58
ENDBRANCH  48  50
ENDBRANCH  44  48
ENDBRANCH  38  40
ENDBRANCH   6  38
TORSDOF 12
ENDMDL
MODEL 4
REMARK VINA RESULT:      -7.8     20.431     25.607
REMARK  Name = 
REMARK  17 active torsions:
REMARK  status: ('A' for Active; 'I' for Inactive)
REMARK    1  A    between atoms: O_1  and  C_14
REMARK    2  A    between atoms: O_2  and  C_32
REMARK    3  A    between atoms: O_2  and  C_36
REMARK    4  A    between atoms: O_6  and  C_39
REMARK    5  A    between atoms: O_7  and  C_41
REMARK    6  A    between atoms: O_7  and  C_43
REMARK    7  A    between atoms: O_9  and  C_47
REMARK    8  A    between atoms: O_9  and  C_49
REMARK    9  A    between atoms: O_10  and  C_45
REMARK   10  A    between atoms: O_12  and  C_51
REMARK   11  A    between atoms: O_13  and  C_53
REMARK   12  A    between atoms: C_17  and  C_29
REMARK   13  A    between atoms: C_18  and  C_30
REMARK   14  A    between atoms: C_22  and  C_33
REMARK   15  A    between atoms: C_40  and  C_42
REMARK   16  A    between atoms: C_46  and  C_48
REMARK   17  A    between atoms: C_52  and  C_54
REMARK                            x       y       z     vdW  Elec       q    Type
REMARK                         _______ _______ _______ _____ _____    ______ ____
ROOT
ATOM      1  O   UNL     1      50.141 242.380 327.296  0.00  0.00    +0.000 OA
ATOM      2  C   UNL     1      48.856 242.953 327.524  0.00  0.00    +0.000 C 
ATOM      3  C   UNL     1      48.816 243.806 328.795  0.00  0.00    +0.000 C 
ATOM      4  C   UNL     1      50.210 244.025 329.362  0.00  0.00    +0.000 C 
ATOM      5  C   UNL     1      51.155 243.371 327.089  0.00  0.00    +0.000 C 
ATOM      6  C   UNL     1      51.277 244.334 328.293  0.00  0.00    +0.000 C 
ATOM      7  C   UNL     1      52.463 242.618 326.849  0.00  0.00    +0.000 C 
ENDROOT
BRANCH   4   8
ATOM      8  O   UNL     1      50.198 244.959 330.436  0.00  0.00    +0.000 OA
ATOM      9  H   UNL     1      50.663 245.759 330.110  0.00  0.00    +0.000 HD
ENDBRANCH   4   8
BRANCH   2  10
ATOM     10  O   UNL     1      47.822 241.969 327.532  0.00  0.00    +0.000 OA
BRANCH  10  29
ATOM     11  C   UNL     1      48.563 236.210 322.351  0.00  0.00    +0.000 C 
ATOM     12  C   UNL     1      48.387 237.395 323.340  0.00  0.00    +0.000 C 
ATOM     13  C   UNL     1      46.922 237.600 323.804  0.00  0.00    +0.000 C 
ATOM     14  C   UNL     1      47.893 234.886 322.815  0.00  0.00    +0.000 C 
ATOM     15  C   UNL     1      46.748 238.805 324.817  0.00  0.00    +0.000 C 
ATOM     16  C   UNL     1      47.444 240.087 324.249  0.00  0.00    +0.000 C 
ATOM     17  C   UNL     1      46.346 236.267 324.324  0.00  0.00    +0.000 C 
ATOM     18  C   UNL     1      46.441 235.153 323.281  0.00  0.00    +0.000 C 
ATOM     19  C   UNL     1      47.942 234.043 321.500  0.00  0.00    +0.000 C 
ATOM     20  C   UNL     1      48.955 238.698 322.759  0.00  0.00    +0.000 C 
ATOM     21  C   UNL     1      47.974 236.447 320.949  0.00  0.00    +0.000 C 
ATOM     22  C   UNL     1      48.886 239.826 323.776  0.00  0.00    +0.000 C 
ATOM     23  C   UNL     1      47.621 235.064 320.390  0.00  0.00    +0.000 C 
ATOM     24  C   UNL     1      47.324 238.475 326.222  0.00  0.00    +0.000 C 
ATOM     25  C   UNL     1      47.441 241.260 325.250  0.00  0.00    +0.000 C 
ATOM     26  C   UNL     1      48.680 234.195 323.947  0.00  0.00    +0.000 C 
ATOM     27  C   UNL     1      45.227 239.091 324.960  0.00  0.00    +0.000 C 
ATOM     28  C   UNL     1      47.308 239.661 327.187  0.00  0.00    +0.000 C 
ATOM     29  C   UNL     1      48.022 240.885 326.617  0.00  0.00    +0.000 C 
BRANCH  19  32
ATOM     30  O   UNL     1      46.692 230.518 321.646  0.00  0.00    +0.000 OA
ATOM     31  O   UNL     1      44.524 230.639 320.897  0.00  0.00    +0.000 OA
ATOM     32  C   UNL     1      47.132 232.775 321.468  0.00  0.00    +0.000 C 
ATOM     33  C   UNL     1      47.730 231.474 321.860  0.00  0.00    +0.000 C 
ATOM     34  C   UNL     1      45.879 232.585 321.053  0.00  0.00    +0.000 C 
ATOM     35  C   UNL     1      45.589 231.158 321.176  0.00  0.00    +0.000 C 
ENDBRANCH  19  32
BRANCH  11  36
ATOM     36  O   UNL     1      49.969 235.986 322.150  0.00  0.00    +0.000 OA
ATOM     37  H   UNL     1      50.084 235.421 321.367  0.00  0.00    +0.000 HD
ENDBRANCH  11  36
ENDBRANCH  10  29
ENDBRANCH   2  10
BRANCH   6  38
ATOM     38  O   UNL     1      51.522 245.684 327.885  0.00  0.00    +0.000 OA
BRANCH  38  40
ATOM     39  O   UNL     1      52.170 247.321 329.476  0.00  0.00    +0.000 OA
ATOM     40  C   UNL     1      52.565 246.514 328.375  0.00  0.00    +0.000 C 
ATOM     41  C   UNL     1      53.314 247.327 327.324  0.00  0.00    +0.000 C 
ATOM     42  C   UNL     1      53.825 248.657 327.871  0.00  0.00    +0.000 C 
ATOM     43  C   UNL     1      53.315 247.779 330.221  0.00  0.00    +0.000 C 
ATOM     44  C   UNL     1      54.275 248.623 329.345  0.00  0.00    +0.000 C 
ATOM     45  C   UNL     1      52.777 248.596 331.394  0.00  0.00    +0.000 C 
BRANCH  42  46
ATOM     46  O   UNL     1      54.829 249.205 327.017  0.00  0.00    +0.000 OA
ATOM     47  H   UNL     1      55.328 248.469 326.622  0.00  0.00    +0.000 HD
ENDBRANCH  42  46
BRANCH  44  48
ATOM     48  O   UNL     1      55.648 248.321 329.621  0.00  0.00    +0.000 OA
BRANCH  48  50
ATOM     49  O   UNL     1      57.463 249.074 330.907  0.00  0.00    +0.000 OA
ATOM     50  C   UNL     1      56.552 249.393 329.861  0.00  0.00    +0.000 C 
ATOM     51  C   UNL     1      55.703 250.597 330.285  0.00  0.00    +0.000 C 
ATOM     52  C   UNL     1      56.465 251.544 331.209  0.00  0.00    +0.000 C 
ATOM     53  C   UNL     1      58.497 250.063 331.070  0.00  0.00    +0.000 C 
ATOM     54  C   UNL     1      57.968 251.502 330.927  0.00  0.00    +0.000 C 
ATOM     55  C   UNL     1      59.094 249.826 332.452  0.00  0.00    +0.000 C 
BRANCH  52  56
ATOM     56  O   UNL     1      55.985 252.878 330.999  0.00  0.00    +0.000 OA
ATOM     57  H   UNL     1      56.582 253.306 330.358  0.00  0.00    +0.000 HD
ENDBRANCH  52  56
BRANCH  54  58
ATOM     58  O   UNL     1      58.185 251.952 329.578  0.00  0.00    +0.000 OA
ATOM     59  H   UNL     1      58.304 252.923 329.638  0.00  0.00    +0.000 HD
ENDBRANCH  54  58
ENDBRANCH  48  50
ENDBRANCH  44  48
ENDBRANCH  38  40
ENDBRANCH   6  38
TORSDOF 12
ENDMDL
MODEL 5
REMARK VINA RESULT:      -7.7      8.270     10.404
REMARK  Name = 
REMARK  17 active torsions:
REMARK  status: ('A' for Active; 'I' for Inactive)
REMARK    1  A    between atoms: O_1  and  C_14
REMARK    2  A    between atoms: O_2  and  C_32
REMARK    3  A    between atoms: O_2  and  C_36
REMARK    4  A    between atoms: O_6  and  C_39
REMARK    5  A    between atoms: O_7  and  C_41
REMARK    6  A    between atoms: O_7  and  C_43
REMARK    7  A    between atoms: O_9  and  C_47
REMARK    8  A    between atoms: O_9  and  C_49
REMARK    9  A    between atoms: O_10  and  C_45
REMARK   10  A    between atoms: O_12  and  C_51
REMARK   11  A    between atoms: O_13  and  C_53
REMARK   12  A    between atoms: C_17  and  C_29
REMARK   13  A    between atoms: C_18  and  C_30
REMARK   14  A    between atoms: C_22  and  C_33
REMARK   15  A    between atoms: C_40  and  C_42
REMARK   16  A    between atoms: C_46  and  C_48
REMARK   17  A    between atoms: C_52  and  C_54
REMARK                            x       y       z     vdW  Elec       q    Type
REMARK                         _______ _______ _______ _____ _____    ______ ____
ROOT
ATOM      1  O   UNL     1      63.677 219.953 330.460  0.00  0.00    +0.000 OA
ATOM      2  C   UNL     1      64.513 220.425 331.513  0.00  0.00    +0.000 C 
ATOM      3  C   UNL     1      65.713 221.221 330.991  0.00  0.00    +0.000 C 
ATOM      4  C   UNL     1      65.582 221.513 329.504  0.00  0.00    +0.000 C 
ATOM      5  C   UNL     1      63.091 221.020 329.704  0.00  0.00    +0.000 C 
ATOM      6  C   UNL     1      64.163 221.940 329.074  0.00  0.00    +0.000 C 
ATOM      7  C   UNL     1      62.220 220.370 328.629  0.00  0.00    +0.000 C 
ENDROOT
BRANCH   4   8
ATOM      8  O   UNL     1      66.599 222.400 329.052  0.00  0.00    +0.000 OA
ATOM      9  H   UNL     1      67.054 222.729 329.856  0.00  0.00    +0.000 HD
ENDBRANCH   4   8
BRANCH   2  10
ATOM     10  O   UNL     1      64.933 219.371 332.379  0.00  0.00    +0.000 OA
BRANCH  10  29
ATOM     11  C   UNL     1      70.908 220.787 337.158  0.00  0.00    +0.000 C 
ATOM     12  C   UNL     1      69.743 220.448 336.189  0.00  0.00    +0.000 C 
ATOM     13  C   UNL     1      68.795 219.345 336.723  0.00  0.00    +0.000 C 
ATOM     14  C   UNL     1      70.465 221.041 338.627  0.00  0.00    +0.000 C 
ATOM     15  C   UNL     1      67.605 219.007 335.735  0.00  0.00    +0.000 C 
ATOM     16  C   UNL     1      68.160 218.756 334.293  0.00  0.00    +0.000 C 
ATOM     17  C   UNL     1      68.331 219.699 338.151  0.00  0.00    +0.000 C 
ATOM     18  C   UNL     1      69.509 219.919 339.101  0.00  0.00    +0.000 C 
ATOM     19  C   UNL     1      71.838 220.998 339.371  0.00  0.00    +0.000 C 
ATOM     20  C   UNL     1      70.265 220.079 334.792  0.00  0.00    +0.000 C 
ATOM     21  C   UNL     1      71.981 219.690 337.284  0.00  0.00    +0.000 C 
ATOM     22  C   UNL     1      69.117 219.864 333.819  0.00  0.00    +0.000 C 
ATOM     23  C   UNL     1      72.604 219.854 338.676  0.00  0.00    +0.000 C 
ATOM     24  C   UNL     1      66.539 220.137 335.696  0.00  0.00    +0.000 C 
ATOM     25  C   UNL     1      67.042 218.566 333.248  0.00  0.00    +0.000 C 
ATOM     26  C   UNL     1      69.780 222.411 338.804  0.00  0.00    +0.000 C 
ATOM     27  C   UNL     1      66.924 217.702 336.237  0.00  0.00    +0.000 C 
ATOM     28  C   UNL     1      65.448 219.918 334.647  0.00  0.00    +0.000 C 
ATOM     29  C   UNL     1      66.021 219.708 333.247  0.00  0.00    +0.000 C 
BRANCH  19  32
ATOM     30  O   UNL     1      72.620 220.812 343.026  0.00  0.00    +0.000 OA
ATOM     31  O   UNL     1      70.575 220.608 344.049  0.00  0.00    +0.000 OA
ATOM     32  C   UNL     1      71.800 220.932 340.874  0.00  0.00    +0.000 C 
ATOM     33  C   UNL     1      73.052 220.946 341.673  0.00  0.00    +0.000 C 
ATOM     34  C   UNL     1      70.753 220.786 341.686  0.00  0.00    +0.000 C 
ATOM     35  C   UNL     1      71.265 220.723 343.054  0.00  0.00    +0.000 C 
ENDBRANCH  19  32
BRANCH  11  36
ATOM     36  O   UNL     1      71.595 221.948 336.661  0.00  0.00    +0.000 OA
ATOM     37  H   UNL     1      71.764 221.826 335.711  0.00  0.00    +0.000 HD
ENDBRANCH  11  36
ENDBRANCH  10  29
ENDBRANCH   2  10
BRANCH   6  38
ATOM     38  O   UNL     1      63.782 223.318 329.107  0.00  0.00    +0.000 OA
BRANCH  38  40
ATOM     39  O   UNL     1      61.919 223.950 327.779  0.00  0.00    +0.000 OA
ATOM     40  C   UNL     1      63.319 224.070 327.994  0.00  0.00    +0.000 C 
ATOM     41  C   UNL     1      64.103 223.887 326.699  0.00  0.00    +0.000 C 
ATOM     42  C   UNL     1      63.227 224.048 325.459  0.00  0.00    +0.000 C 
ATOM     43  C   UNL     1      61.422 225.041 326.980  0.00  0.00    +0.000 C 
ATOM     44  C   UNL     1      62.104 225.097 325.589  0.00  0.00    +0.000 C 
ATOM     45  C   UNL     1      59.915 224.836 326.847  0.00  0.00    +0.000 C 
BRANCH  42  46
ATOM     46  O   UNL     1      64.026 224.261 324.297  0.00  0.00    +0.000 OA
ATOM     47  H   UNL     1      63.532 224.838 323.689  0.00  0.00    +0.000 HD
ENDBRANCH  42  46
BRANCH  44  48
ATOM     48  O   UNL     1      62.395 226.443 325.194  0.00  0.00    +0.000 OA
BRANCH  48  50
ATOM     49  O   UNL     1      62.296 226.159 322.866  0.00  0.00    +0.000 OA
ATOM     50  C   UNL     1      61.853 226.933 323.974  0.00  0.00    +0.000 C 
ATOM     51  C   UNL     1      62.358 228.371 323.815  0.00  0.00    +0.000 C 
ATOM     52  C   UNL     1      62.477 228.784 322.350  0.00  0.00    +0.000 C 
ATOM     53  C   UNL     1      61.642 226.518 321.634  0.00  0.00    +0.000 C 
ATOM     54  C   UNL     1      61.460 228.040 321.482  0.00  0.00    +0.000 C 
ATOM     55  C   UNL     1      62.506 225.948 320.515  0.00  0.00    +0.000 C 
BRANCH  52  56
ATOM     56  O   UNL     1      62.240 230.194 322.247  0.00  0.00    +0.000 OA
ATOM     57  H   UNL     1      61.314 230.315 321.969  0.00  0.00    +0.000 HD
ENDBRANCH  52  56
BRANCH  54  58
ATOM     58  O   UNL     1      60.141 228.404 321.924  0.00  0.00    +0.000 OA
ATOM     59  H   UNL     1      59.777 228.986 321.225  0.00  0.00    +0.000 HD
ENDBRANCH  54  58
ENDBRANCH  48  50
ENDBRANCH  44  48
ENDBRANCH  38  40
ENDBRANCH   6  38
TORSDOF 12
ENDMDL
MODEL 6
REMARK VINA RESULT:      -7.6     21.913     24.672
REMARK  Name = 
REMARK  17 active torsions:
REMARK  status: ('A' for Active; 'I' for Inactive)
REMARK    1  A    between atoms: O_1  and  C_14
REMARK    2  A    between atoms: O_2  and  C_32
REMARK    3  A    between atoms: O_2  and  C_36
REMARK    4  A    between atoms: O_6  and  C_39
REMARK    5  A    between atoms: O_7  and  C_41
REMARK    6  A    between atoms: O_7  and  C_43
REMARK    7  A    between atoms: O_9  and  C_47
REMARK    8  A    between atoms: O_9  and  C_49
REMARK    9  A    between atoms: O_10  and  C_45
REMARK   10  A    between atoms: O_12  and  C_51
REMARK   11  A    between atoms: O_13  and  C_53
REMARK   12  A    between atoms: C_17  and  C_29
REMARK   13  A    between atoms: C_18  and  C_30
REMARK   14  A    between atoms: C_22  and  C_33
REMARK   15  A    between atoms: C_40  and  C_42
REMARK   16  A    between atoms: C_46  and  C_48
REMARK   17  A    between atoms: C_52  and  C_54
REMARK                            x       y       z     vdW  Elec       q    Type
REMARK                         _______ _______ _______ _____ _____    ______ ____
ROOT
ATOM      1  O   UNL     1      72.251 237.298 332.085  0.00  0.00    +0.000 OA
ATOM      2  C   UNL     1      72.070 238.323 333.058  0.00  0.00    +0.000 C 
ATOM      3  C   UNL     1      73.001 239.516 332.828  0.00  0.00    +0.000 C 
ATOM      4  C   UNL     1      73.712 239.416 331.486  0.00  0.00    +0.000 C 
ATOM      5  C   UNL     1      71.937 237.739 330.759  0.00  0.00    +0.000 C 
ATOM      6  C   UNL     1      72.802 238.950 330.332  0.00  0.00    +0.000 C 
ATOM      7  C   UNL     1      72.165 236.545 329.833  0.00  0.00    +0.000 C 
ENDROOT
BRANCH   4   8
ATOM      8  O   UNL     1      74.438 240.603 331.188  0.00  0.00    +0.000 OA
ATOM      9  H   UNL     1      74.005 241.002 330.404  0.00  0.00    +0.000 HD
ENDBRANCH   4   8
BRANCH   2  10
ATOM     10  O   UNL     1      72.191 237.826 334.391  0.00  0.00    +0.000 OA
BRANCH  10  29
ATOM     11  C   UNL     1      66.057 239.809 338.748  0.00  0.00    +0.000 C 
ATOM     12  C   UNL     1      67.245 239.421 337.827  0.00  0.00    +0.000 C 
ATOM     13  C   UNL     1      67.859 240.626 337.069  0.00  0.00    +0.000 C 
ATOM     14  C   UNL     1      66.341 241.018 339.683  0.00  0.00    +0.000 C 
ATOM     15  C   UNL     1      69.074 240.228 336.135  0.00  0.00    +0.000 C 
ATOM     16  C   UNL     1      68.678 239.015 335.230  0.00  0.00    +0.000 C 
ATOM     17  C   UNL     1      68.189 241.757 338.065  0.00  0.00    +0.000 C 
ATOM     18  C   UNL     1      66.966 242.184 338.878  0.00  0.00    +0.000 C 
ATOM     19  C   UNL     1      64.902 241.358 340.188  0.00  0.00    +0.000 C 
ATOM     20  C   UNL     1      66.851 238.311 336.841  0.00  0.00    +0.000 C 
ATOM     21  C   UNL     1      64.770 240.213 338.006  0.00  0.00    +0.000 C 
ATOM     22  C   UNL     1      68.048 237.856 336.023  0.00  0.00    +0.000 C 
ATOM     23  C   UNL     1      64.014 241.164 338.942  0.00  0.00    +0.000 C 
ATOM     24  C   UNL     1      70.349 239.878 336.952  0.00  0.00    +0.000 C 
ATOM     25  C   UNL     1      69.862 238.479 334.399  0.00  0.00    +0.000 C 
ATOM     26  C   UNL     1      67.268 240.647 340.858  0.00  0.00    +0.000 C 
ATOM     27  C   UNL     1      69.390 241.445 335.221  0.00  0.00    +0.000 C 
ATOM     28  C   UNL     1      71.501 239.349 336.098  0.00  0.00    +0.000 C 
ATOM     29  C   UNL     1      71.091 238.145 335.250  0.00  0.00    +0.000 C 
BRANCH  19  32
ATOM     30  O   UNL     1      64.721 244.135 342.690  0.00  0.00    +0.000 OA
ATOM     31  O   UNL     1      63.792 245.893 341.542  0.00  0.00    +0.000 OA
ATOM     32  C   UNL     1      64.721 242.663 340.915  0.00  0.00    +0.000 C 
ATOM     33  C   UNL     1      65.083 242.798 342.349  0.00  0.00    +0.000 C 
ATOM     34  C   UNL     1      64.186 243.804 340.479  0.00  0.00    +0.000 C 
ATOM     35  C   UNL     1      64.195 244.746 341.597  0.00  0.00    +0.000 C 
ENDBRANCH  19  32
BRANCH  11  36
ATOM     36  O   UNL     1      65.703 238.665 339.545  0.00  0.00    +0.000 OA
ATOM     37  H   UNL     1      64.933 238.231 339.140  0.00  0.00    +0.000 HD
ENDBRANCH  11  36
ENDBRANCH  10  29
ENDBRANCH   2  10
BRANCH   6  38
ATOM     38  O   UNL     1      72.059 239.903 329.566  0.00  0.00    +0.000 OA
BRANCH  38  40
ATOM     39  O   UNL     1      71.470 241.657 331.052  0.00  0.00    +0.000 OA
ATOM     40  C   UNL     1      71.023 240.733 330.069  0.00  0.00    +0.000 C 
ATOM     41  C   UNL     1      69.753 240.013 330.513  0.00  0.00    +0.000 C 
ATOM     42  C   UNL     1      69.046 240.731 331.659  0.00  0.00    +0.000 C 
ATOM     43  C   UNL     1      70.546 242.753 331.192  0.00  0.00    +0.000 C 
ATOM     44  C   UNL     1      69.136 242.270 331.616  0.00  0.00    +0.000 C 
ATOM     45  C   UNL     1      71.141 243.697 332.235  0.00  0.00    +0.000 C 
BRANCH  42  46
ATOM     46  O   UNL     1      67.700 240.277 331.790  0.00  0.00    +0.000 OA
ATOM     47  H   UNL     1      67.597 239.470 331.255  0.00  0.00    +0.000 HD
ENDBRANCH  42  46
BRANCH  44  48
ATOM     48  O   UNL     1      68.101 242.982 330.925  0.00  0.00    +0.000 OA
BRANCH  48  50
ATOM     49  O   UNL     1      67.450 243.666 333.075  0.00  0.00    +0.000 OA
ATOM     50  C   UNL     1      67.169 243.744 331.683  0.00  0.00    +0.000 C 
ATOM     51  C   UNL     1      65.787 243.137 331.417  0.00  0.00    +0.000 C 
ATOM     52  C   UNL     1      64.834 243.327 332.595  0.00  0.00    +0.000 C 
ATOM     53  C   UNL     1      66.633 244.553 333.862  0.00  0.00    +0.000 C 
ATOM     54  C   UNL     1      65.172 244.598 333.378  0.00  0.00    +0.000 C 
ATOM     55  C   UNL     1      66.726 244.051 335.299  0.00  0.00    +0.000 C 
BRANCH  52  56
ATOM     56  O   UNL     1      63.495 243.427 332.094  0.00  0.00    +0.000 OA
ATOM     57  H   UNL     1      63.312 244.370 331.934  0.00  0.00    +0.000 HD
ENDBRANCH  52  56
BRANCH  54  58
ATOM     58  O   UNL     1      65.001 245.725 332.501  0.00  0.00    +0.000 OA
ATOM     59  H   UNL     1      64.143 245.582 332.050  0.00  0.00    +0.000 HD
ENDBRANCH  54  58
ENDBRANCH  48  50
ENDBRANCH  44  48
ENDBRANCH  38  40
ENDBRANCH   6  38
TORSDOF 12
ENDMDL
MODEL 7
REMARK VINA RESULT:      -7.4     24.616     29.538
REMARK  Name = 
REMARK  17 active torsions:
REMARK  status: ('A' for Active; 'I' for Inactive)
REMARK    1  A    between atoms: O_1  and  C_14
REMARK    2  A    between atoms: O_2  and  C_32
REMARK    3  A    between atoms: O_2  and  C_36
REMARK    4  A    between atoms: O_6  and  C_39
REMARK    5  A    between atoms: O_7  and  C_41
REMARK    6  A    between atoms: O_7  and  C_43
REMARK    7  A    between atoms: O_9  and  C_47
REMARK    8  A    between atoms: O_9  and  C_49
REMARK    9  A    between atoms: O_10  and  C_45
REMARK   10  A    between atoms: O_12  and  C_51
REMARK   11  A    between atoms: O_13  and  C_53
REMARK   12  A    between atoms: C_17  and  C_29
REMARK   13  A    between atoms: C_18  and  C_30
REMARK   14  A    between atoms: C_22  and  C_33
REMARK   15  A    between atoms: C_40  and  C_42
REMARK   16  A    between atoms: C_46  and  C_48
REMARK   17  A    between atoms: C_52  and  C_54
REMARK                            x       y       z     vdW  Elec       q    Type
REMARK                         _______ _______ _______ _____ _____    ______ ____
ROOT
ATOM      1  O   UNL     1      49.262 246.540 329.904  0.00  0.00    +0.000 OA
ATOM      2  C   UNL     1      50.571 246.476 330.465  0.00  0.00    +0.000 C 
ATOM      3  C   UNL     1      50.779 245.218 331.313  0.00  0.00    +0.000 C 
ATOM      4  C   UNL     1      49.627 244.239 331.148  0.00  0.00    +0.000 C 
ATOM      5  C   UNL     1      48.998 245.459 329.002  0.00  0.00    +0.000 C 
ATOM      6  C   UNL     1      49.145 244.082 329.691  0.00  0.00    +0.000 C 
ATOM      7  C   UNL     1      47.578 245.663 328.475  0.00  0.00    +0.000 C 
ENDROOT
BRANCH   4   8
ATOM      8  O   UNL     1      49.897 242.998 331.790  0.00  0.00    +0.000 OA
ATOM      9  H   UNL     1      49.068 242.736 332.244  0.00  0.00    +0.000 HD
ENDBRANCH   4   8
BRANCH   2  10
ATOM     10  O   UNL     1      50.898 247.654 331.202  0.00  0.00    +0.000 OA
BRANCH  10  29
ATOM     11  C   UNL     1      56.696 251.803 328.086  0.00  0.00    +0.000 C 
ATOM     12  C   UNL     1      55.497 251.017 328.684  0.00  0.00    +0.000 C 
ATOM     13  C   UNL     1      54.665 250.257 327.621  0.00  0.00    +0.000 C 
ATOM     14  C   UNL     1      57.583 250.974 327.115  0.00  0.00    +0.000 C 
ATOM     15  C   UNL     1      53.447 249.452 328.236  0.00  0.00    +0.000 C 
ATOM     16  C   UNL     1      52.615 250.380 329.183  0.00  0.00    +0.000 C 
ATOM     17  C   UNL     1      55.597 249.394 326.745  0.00  0.00    +0.000 C 
ATOM     18  C   UNL     1      56.700 250.225 326.088  0.00  0.00    +0.000 C 
ATOM     19  C   UNL     1      58.437 252.098 326.447  0.00  0.00    +0.000 C 
ATOM     20  C   UNL     1      54.592 251.931 329.524  0.00  0.00    +0.000 C 
ATOM     21  C   UNL     1      56.307 253.042 327.260  0.00  0.00    +0.000 C 
ATOM     22  C   UNL     1      53.488 251.134 330.201  0.00  0.00    +0.000 C 
ATOM     23  C   UNL     1      57.438 253.256 326.246  0.00  0.00    +0.000 C 
ATOM     24  C   UNL     1      53.914 248.191 329.016  0.00  0.00    +0.000 C 
ATOM     25  C   UNL     1      51.500 249.622 329.931  0.00  0.00    +0.000 C 
ATOM     26  C   UNL     1      58.480 249.963 327.859  0.00  0.00    +0.000 C 
ATOM     27  C   UNL     1      52.534 248.998 327.062  0.00  0.00    +0.000 C 
ATOM     28  C   UNL     1      52.783 247.467 329.747  0.00  0.00    +0.000 C 
ATOM     29  C   UNL     1      52.011 248.391 330.686  0.00  0.00    +0.000 C 
BRANCH  19  32
ATOM     30  O   UNL     1      59.755 251.509 322.994  0.00  0.00    +0.000 OA
ATOM     31  O   UNL     1      61.672 250.283 323.305  0.00  0.00    +0.000 OA
ATOM     32  C   UNL     1      59.240 251.719 325.232  0.00  0.00    +0.000 C 
ATOM     33  C   UNL     1      58.782 252.080 323.867  0.00  0.00    +0.000 C 
ATOM     34  C   UNL     1      60.358 250.995 325.152  0.00  0.00    +0.000 C 
ATOM     35  C   UNL     1      60.697 250.870 323.736  0.00  0.00    +0.000 C 
ENDBRANCH  19  32
BRANCH  11  36
ATOM     36  O   UNL     1      57.507 252.295 329.167  0.00  0.00    +0.000 OA
ATOM     37  H   UNL     1      57.119 253.126 329.492  0.00  0.00    +0.000 HD
ENDBRANCH  11  36
ENDBRANCH  10  29
ENDBRANCH   2  10
BRANCH   6  38
ATOM     38  O   UNL     1      49.745 243.107 328.833  0.00  0.00    +0.000 OA
BRANCH  38  40
ATOM     39  O   UNL     1      50.221 242.637 326.556  0.00  0.00    +0.000 OA
ATOM     40  C   UNL     1      50.564 243.395 327.708  0.00  0.00    +0.000 C 
ATOM     41  C   UNL     1      52.068 243.380 327.962  0.00  0.00    +0.000 C 
ATOM     42  C   UNL     1      52.862 242.944 326.734  0.00  0.00    +0.000 C 
ATOM     43  C   UNL     1      50.726 243.258 325.358  0.00  0.00    +0.000 C 
ATOM     44  C   UNL     1      52.269 243.394 325.383  0.00  0.00    +0.000 C 
ATOM     45  C   UNL     1      50.269 242.390 324.188  0.00  0.00    +0.000 C 
BRANCH  42  46
ATOM     46  O   UNL     1      54.236 243.306 326.863  0.00  0.00    +0.000 OA
ATOM     47  H   UNL     1      54.492 243.205 327.796  0.00  0.00    +0.000 HD
ENDBRANCH  42  46
BRANCH  44  48
ATOM     48  O   UNL     1      52.700 244.652 324.848  0.00  0.00    +0.000 OA
BRANCH  48  50
ATOM     49  O   UNL     1      52.638 245.497 322.658  0.00  0.00    +0.000 OA
ATOM     50  C   UNL     1      53.344 244.674 323.580  0.00  0.00    +0.000 C 
ATOM     51  C   UNL     1      53.346 243.231 323.063  0.00  0.00    +0.000 C 
ATOM     52  C   UNL     1      53.334 243.163 321.538  0.00  0.00    +0.000 C 
ATOM     53  C   UNL     1      53.342 245.679 321.416  0.00  0.00    +0.000 C 
ATOM     54  C   UNL     1      54.020 244.386 320.925  0.00  0.00    +0.000 C 
ATOM     55  C   UNL     1      52.309 246.179 320.413  0.00  0.00    +0.000 C 
BRANCH  52  56
ATOM     56  O   UNL     1      54.028 241.980 321.123  0.00  0.00    +0.000 OA
ATOM     57  H   UNL     1      54.035 241.365 321.879  0.00  0.00    +0.000 HD
ENDBRANCH  52  56
BRANCH  54  58
ATOM     58  O   UNL     1      55.396 244.386 321.344  0.00  0.00    +0.000 OA
ATOM     59  H   UNL     1      55.479 243.649 321.983  0.00  0.00    +0.000 HD
ENDBRANCH  54  58
ENDBRANCH  48  50
ENDBRANCH  44  48
ENDBRANCH  38  40
ENDBRANCH   6  38
TORSDOF 12
ENDMDL
MODEL 8
REMARK VINA RESULT:      -7.4      7.140     15.026
REMARK  Name = 
REMARK  17 active torsions:
REMARK  status: ('A' for Active; 'I' for Inactive)
REMARK    1  A    between atoms: O_1  and  C_14
REMARK    2  A    between atoms: O_2  and  C_32
REMARK    3  A    between atoms: O_2  and  C_36
REMARK    4  A    between atoms: O_6  and  C_39
REMARK    5  A    between atoms: O_7  and  C_41
REMARK    6  A    between atoms: O_7  and  C_43
REMARK    7  A    between atoms: O_9  and  C_47
REMARK    8  A    between atoms: O_9  and  C_49
REMARK    9  A    between atoms: O_10  and  C_45
REMARK   10  A    between atoms: O_12  and  C_51
REMARK   11  A    between atoms: O_13  and  C_53
REMARK   12  A    between atoms: C_17  and  C_29
REMARK   13  A    between atoms: C_18  and  C_30
REMARK   14  A    between atoms: C_22  and  C_33
REMARK   15  A    between atoms: C_40  and  C_42
REMARK   16  A    between atoms: C_46  and  C_48
REMARK   17  A    between atoms: C_52  and  C_54
REMARK                            x       y       z     vdW  Elec       q    Type
REMARK                         _______ _______ _______ _____ _____    ______ ____
ROOT
ATOM      1  O   UNL     1      57.633 222.118 324.637  0.00  0.00    +0.000 OA
ATOM      2  C   UNL     1      58.568 222.928 323.931  0.00  0.00    +0.000 C 
ATOM      3  C   UNL     1      58.880 224.234 324.667  0.00  0.00    +0.000 C 
ATOM      4  C   UNL     1      58.303 224.231 326.074  0.00  0.00    +0.000 C 
ATOM      5  C   UNL     1      58.128 221.695 325.914  0.00  0.00    +0.000 C 
ATOM      6  C   UNL     1      58.489 222.895 326.821  0.00  0.00    +0.000 C 
ATOM      7  C   UNL     1      57.035 220.834 326.546  0.00  0.00    +0.000 C 
ENDROOT
BRANCH   4   8
ATOM      8  O   UNL     1      58.739 225.361 326.822  0.00  0.00    +0.000 OA
ATOM      9  H   UNL     1      58.455 225.205 327.747  0.00  0.00    +0.000 HD
ENDBRANCH   4   8
BRANCH   2  10
ATOM     10  O   UNL     1      58.154 223.180 322.588  0.00  0.00    +0.000 OA
BRANCH  10  29
ATOM     11  C   UNL     1      60.298 229.930 319.364  0.00  0.00    +0.000 C 
ATOM     12  C   UNL     1      59.835 228.571 319.956  0.00  0.00    +0.000 C 
ATOM     13  C   UNL     1      60.479 227.343 319.263  0.00  0.00    +0.000 C 
ATOM     14  C   UNL     1      61.840 230.070 319.216  0.00  0.00    +0.000 C 
ATOM     15  C   UNL     1      60.009 225.960 319.874  0.00  0.00    +0.000 C 
ATOM     16  C   UNL     1      58.447 225.918 319.966  0.00  0.00    +0.000 C 
ATOM     17  C   UNL     1      62.012 227.511 319.221  0.00  0.00    +0.000 C 
ATOM     18  C   UNL     1      62.430 228.811 318.534  0.00  0.00    +0.000 C 
ATOM     19  C   UNL     1      61.945 231.335 318.305  0.00  0.00    +0.000 C 
ATOM     20  C   UNL     1      58.303 228.450 319.949  0.00  0.00    +0.000 C 
ATOM     21  C   UNL     1      59.765 230.234 317.952  0.00  0.00    +0.000 C 
ATOM     22  C   UNL     1      57.853 227.170 320.635  0.00  0.00    +0.000 C 
ATOM     23  C   UNL     1      60.791 231.165 317.296  0.00  0.00    +0.000 C 
ATOM     24  C   UNL     1      60.623 225.701 321.278  0.00  0.00    +0.000 C 
ATOM     25  C   UNL     1      57.925 224.659 320.687  0.00  0.00    +0.000 C 
ATOM     26  C   UNL     1      62.541 230.300 320.570  0.00  0.00    +0.000 C 
ATOM     27  C   UNL     1      60.477 224.831 318.912  0.00  0.00    +0.000 C 
ATOM     28  C   UNL     1      60.081 224.447 321.964  0.00  0.00    +0.000 C 
ATOM     29  C   UNL     1      58.557 224.452 322.067  0.00  0.00    +0.000 C 
BRANCH  19  32
ATOM     30  O   UNL     1      64.942 231.718 316.098  0.00  0.00    +0.000 OA
ATOM     31  O   UNL     1      66.579 232.548 317.477  0.00  0.00    +0.000 OA
ATOM     32  C   UNL     1      63.291 231.638 317.705  0.00  0.00    +0.000 C 
ATOM     33  C   UNL     1      63.572 231.361 316.274  0.00  0.00    +0.000 C 
ATOM     34  C   UNL     1      64.396 232.093 318.298  0.00  0.00    +0.000 C 
ATOM     35  C   UNL     1      65.443 232.158 317.281  0.00  0.00    +0.000 C 
ENDBRANCH  19  32
BRANCH  11  36
ATOM     36  O   UNL     1      59.803 230.988 320.203  0.00  0.00    +0.000 OA
ATOM     37  H   UNL     1      59.970 230.751 321.131  0.00  0.00    +0.000 HD
ENDBRANCH  11  36
ENDBRANCH  10  29
ENDBRANCH   2  10
BRANCH   6  38
ATOM     38  O   UNL     1      59.671 222.655 327.592  0.00  0.00    +0.000 OA
BRANCH  38  40
ATOM     39  O   UNL     1      61.520 222.261 326.158  0.00  0.00    +0.000 OA
ATOM     40  C   UNL     1      60.986 223.040 327.221  0.00  0.00    +0.000 C 
ATOM     41  C   UNL     1      61.983 223.184 328.367  0.00  0.00    +0.000 C 
ATOM     42  C   UNL     1      63.410 222.848 327.943  0.00  0.00    +0.000 C 
ATOM     43  C   UNL     1      62.612 222.944 325.512  0.00  0.00    +0.000 C 
ATOM     44  C   UNL     1      63.770 223.244 326.497  0.00  0.00    +0.000 C 
ATOM     45  C   UNL     1      63.079 222.043 324.372  0.00  0.00    +0.000 C 
BRANCH  42  46
ATOM     46  O   UNL     1      64.352 223.353 328.888  0.00  0.00    +0.000 OA
ATOM     47  H   UNL     1      64.130 224.282 329.074  0.00  0.00    +0.000 HD
ENDBRANCH  42  46
BRANCH  44  48
ATOM     48  O   UNL     1      64.328 224.546 326.279  0.00  0.00    +0.000 OA
BRANCH  48  50
ATOM     49  O   UNL     1      64.361 226.044 324.471  0.00  0.00    +0.000 OA
ATOM     50  C   UNL     1      63.583 225.496 325.528  0.00  0.00    +0.000 C 
ATOM     51  C   UNL     1      63.197 226.618 326.499  0.00  0.00    +0.000 C 
ATOM     52  C   UNL     1      63.038 227.964 325.794  0.00  0.00    +0.000 C 
ATOM     53  C   UNL     1      63.595 226.884 323.588  0.00  0.00    +0.000 C 
ATOM     54  C   UNL     1      62.594 227.777 324.342  0.00  0.00    +0.000 C 
ATOM     55  C   UNL     1      64.609 227.719 322.814  0.00  0.00    +0.000 C 
BRANCH  52  56
ATOM     56  O   UNL     1      62.053 228.736 326.492  0.00  0.00    +0.000 OA
ATOM     57  H   UNL     1      61.878 228.289 327.340  0.00  0.00    +0.000 HD
ENDBRANCH  52  56
BRANCH  54  58
ATOM     58  O   UNL     1      61.303 227.140 324.346  0.00  0.00    +0.000 OA
ATOM     59  H   UNL     1      61.315 226.522 325.105  0.00  0.00    +0.000 HD
ENDBRANCH  54  58
ENDBRANCH  48  50
ENDBRANCH  44  48
ENDBRANCH  38  40
ENDBRANCH   6  38
TORSDOF 12
ENDMDL
MODEL 9
REMARK VINA RESULT:      -7.3     22.718     28.088
REMARK  Name = 
REMARK  17 active torsions:
REMARK  status: ('A' for Active; 'I' for Inactive)
REMARK    1  A    between atoms: O_1  and  C_14
REMARK    2  A    between atoms: O_2  and  C_32
REMARK    3  A    between atoms: O_2  and  C_36
REMARK    4  A    between atoms: O_6  and  C_39
REMARK    5  A    between atoms: O_7  and  C_41
REMARK    6  A    between atoms: O_7  and  C_43
REMARK    7  A    between atoms: O_9  and  C_47
REMARK    8  A    between atoms: O_9  and  C_49
REMARK    9  A    between atoms: O_10  and  C_45
REMARK   10  A    between atoms: O_12  and  C_51
REMARK   11  A    between atoms: O_13  and  C_53
REMARK   12  A    between atoms: C_17  and  C_29
REMARK   13  A    between atoms: C_18  and  C_30
REMARK   14  A    between atoms: C_22  and  C_33
REMARK   15  A    between atoms: C_40  and  C_42
REMARK   16  A    between atoms: C_46  and  C_48
REMARK   17  A    between atoms: C_52  and  C_54
REMARK                            x       y       z     vdW  Elec       q    Type
REMARK                         _______ _______ _______ _____ _____    ______ ____
ROOT
ATOM      1  O   UNL     1      44.434 244.309 332.472  0.00  0.00    +0.000 OA
ATOM      2  C   UNL     1      44.497 243.917 331.103  0.00  0.00    +0.000 C 
ATOM      3  C   UNL     1      45.226 242.584 330.914  0.00  0.00    +0.000 C 
ATOM      4  C   UNL     1      45.486 241.897 332.246  0.00  0.00    +0.000 C 
ATOM      5  C   UNL     1      43.691 243.383 333.274  0.00  0.00    +0.000 C 
ATOM      6  C   UNL     1      44.294 241.959 333.222  0.00  0.00    +0.000 C 
ATOM      7  C   UNL     1      43.697 243.934 334.700  0.00  0.00    +0.000 C 
ENDROOT
BRANCH   4   8
ATOM      8  O   UNL     1      46.000 240.582 332.066  0.00  0.00    +0.000 OA
ATOM      9  H   UNL     1      46.645 240.636 331.329  0.00  0.00    +0.000 HD
ENDBRANCH   4   8
BRANCH   2  10
ATOM     10  O   UNL     1      45.064 244.935 330.278  0.00  0.00    +0.000 OA
BRANCH  10  29
ATOM     11  C   UNL     1      51.832 243.352 326.781  0.00  0.00    +0.000 C 
ATOM     12  C   UNL     1      50.509 243.718 327.508  0.00  0.00    +0.000 C 
ATOM     13  C   UNL     1      49.828 244.993 326.949  0.00  0.00    +0.000 C 
ATOM     14  C   UNL     1      51.726 243.341 325.230  0.00  0.00    +0.000 C 
ATOM     15  C   UNL     1      48.477 245.358 327.689  0.00  0.00    +0.000 C 
ATOM     16  C   UNL     1      48.697 245.355 329.239  0.00  0.00    +0.000 C 
ATOM     17  C   UNL     1      49.684 244.880 325.417  0.00  0.00    +0.000 C 
ATOM     18  C   UNL     1      51.026 244.628 324.730  0.00  0.00    +0.000 C 
ATOM     19  C   UNL     1      53.234 243.296 324.822  0.00  0.00    +0.000 C 
ATOM     20  C   UNL     1      50.719 243.841 329.025  0.00  0.00    +0.000 C 
ATOM     21  C   UNL     1      53.007 244.307 327.061  0.00  0.00    +0.000 C 
ATOM     22  C   UNL     1      49.401 244.082 329.742  0.00  0.00    +0.000 C 
ATOM     23  C   UNL     1      53.922 244.236 325.833  0.00  0.00    +0.000 C 
ATOM     24  C   UNL     1      47.326 244.380 327.322  0.00  0.00    +0.000 C 
ATOM     25  C   UNL     1      47.387 245.559 330.028  0.00  0.00    +0.000 C 
ATOM     26  C   UNL     1      50.971 242.104 324.702  0.00  0.00    +0.000 C 
ATOM     27  C   UNL     1      48.066 246.792 327.251  0.00  0.00    +0.000 C 
ATOM     28  C   UNL     1      46.045 244.609 328.125  0.00  0.00    +0.000 C 
ATOM     29  C   UNL     1      46.288 244.568 329.632  0.00  0.00    +0.000 C 
BRANCH  19  32
ATOM     30  O   UNL     1      53.835 243.080 321.134  0.00  0.00    +0.000 OA
ATOM     31  O   UNL     1      54.712 245.125 320.567  0.00  0.00    +0.000 OA
ATOM     32  C   UNL     1      53.560 243.551 323.375  0.00  0.00    +0.000 C 
ATOM     33  C   UNL     1      53.371 242.494 322.349  0.00  0.00    +0.000 C 
ATOM     34  C   UNL     1      54.098 244.632 322.809  0.00  0.00    +0.000 C 
ATOM     35  C   UNL     1      54.262 244.345 321.386  0.00  0.00    +0.000 C 
ENDBRANCH  19  32
BRANCH  11  36
ATOM     36  O   UNL     1      52.264 242.059 327.238  0.00  0.00    +0.000 OA
ATOM     37  H   UNL     1      51.532 241.429 327.122  0.00  0.00    +0.000 HD
ENDBRANCH  11  36
ENDBRANCH  10  29
ENDBRANCH   2  10
BRANCH   6  38
ATOM     38  O   UNL     1      43.285 240.944 333.199  0.00  0.00    +0.000 OA
BRANCH  38  40
ATOM     39  O   UNL     1      42.632 238.711 333.664  0.00  0.00    +0.000 OA
ATOM     40  C   UNL     1      43.103 239.944 334.190  0.00  0.00    +0.000 C 
ATOM     41  C   UNL     1      42.308 240.369 335.421  0.00  0.00    +0.000 C 
ATOM     42  C   UNL     1      41.520 239.214 336.033  0.00  0.00    +0.000 C 
ATOM     43  C   UNL     1      42.896 237.624 334.572  0.00  0.00    +0.000 C 
ATOM     44  C   UNL     1      42.209 237.837 335.945  0.00  0.00    +0.000 C 
ATOM     45  C   UNL     1      42.390 236.353 333.894  0.00  0.00    +0.000 C 
BRANCH  42  46
ATOM     46  O   UNL     1      41.114 239.525 337.365  0.00  0.00    +0.000 OA
ATOM     47  H   UNL     1      40.386 240.170 337.320  0.00  0.00    +0.000 HD
ENDBRANCH  42  46
BRANCH  44  48
ATOM     48  O   UNL     1      43.058 237.442 337.030  0.00  0.00    +0.000 OA
BRANCH  48  50
ATOM     49  O   UNL     1      41.155 236.305 337.806  0.00  0.00    +0.000 OA
ATOM     50  C   UNL     1      42.529 236.593 338.041  0.00  0.00    +0.000 C 
ATOM     51  C   UNL     1      42.662 237.351 339.366  0.00  0.00    +0.000 C 
ATOM     52  C   UNL     1      41.585 236.951 340.372  0.00  0.00    +0.000 C 
ATOM     53  C   UNL     1      40.627 235.318 338.711  0.00  0.00    +0.000 C 
ATOM     54  C   UNL     1      41.134 235.506 340.153  0.00  0.00    +0.000 C 
ATOM     55  C   UNL     1      39.109 235.445 338.637  0.00  0.00    +0.000 C 
BRANCH  52  56
ATOM     56  O   UNL     1      42.120 237.081 341.695  0.00  0.00    +0.000 OA
ATOM     57  H   UNL     1      42.890 236.488 341.759  0.00  0.00    +0.000 HD
ENDBRANCH  52  56
BRANCH  54  58
ATOM     58  O   UNL     1      42.265 234.644 340.371  0.00  0.00    +0.000 OA
ATOM     59  H   UNL     1      42.129 234.244 341.254  0.00  0.00    +0.000 HD
ENDBRANCH  54  58
ENDBRANCH  48  50
ENDBRANCH  44  48
ENDBRANCH  38  40
ENDBRANCH   6  38
TORSDOF 12
ENDMDL
