MODEL 1
REMARK VINA RESULT:      -6.0      0.000      0.000
REMARK  Name = CHEMBL35349.pdbqt.pdb
REMARK  2 active torsions:
REMARK  status: ('A' for Active; 'I' for Inactive)
REMARK    1  A    between atoms: C_2  and  C_11
REMARK    2  A    between atoms: C_5  and  O_21
REMARK                            x       y       z     vdW  Elec       q    Type
REMARK                         _______ _______ _______ _____ _____    ______ ____
ROOT
ATOM      1  N   UNL     1      48.286 239.288 326.780  0.00  0.00    +0.000 N 
ATOM      2  C   UNL     1      49.519 241.041 326.154  0.00  0.00    +0.000 A 
ATOM      3  C   UNL     1      48.191 241.487 326.480  0.00  0.00    +0.000 A 
ATOM      4  C   UNL     1      47.450 240.371 326.865  0.00  0.00    +0.000 A 
ATOM      5  C   UNL     1      49.531 239.669 326.355  0.00  0.00    +0.000 A 
ATOM      6  C   UNL     1      47.550 242.742 326.480  0.00  0.00    +0.000 A 
ATOM      7  C   UNL     1      46.107 240.438 327.251  0.00  0.00    +0.000 A 
ATOM      8  C   UNL     1      46.211 242.833 326.863  0.00  0.00    +0.000 A 
ATOM      9  C   UNL     1      45.505 241.697 327.241  0.00  0.00    +0.000 A 
ATOM     10  H   UNL     1      48.033 238.335 326.998  0.00  0.00    +0.000 HD
ENDROOT
BRANCH   2  11
ATOM     11  C   UNL     1      50.622 241.861 325.705  0.00  0.00    +0.000 C 
ATOM     12  N   UNL     1      50.785 242.193 324.451  0.00  0.00    +0.000 NA
ATOM     13  C   UNL     1      51.950 242.984 324.396  0.00  0.00    +0.000 A 
ATOM     14  C   UNL     1      52.563 243.175 325.632  0.00  0.00    +0.000 A 
ATOM     15  C   UNL     1      52.505 243.557 323.267  0.00  0.00    +0.000 A 
ATOM     16  C   UNL     1      51.732 242.450 326.571  0.00  0.00    +0.000 C 
ATOM     17  C   UNL     1      53.712 243.911 325.822  0.00  0.00    +0.000 A 
ATOM     18  O   UNL     1      51.858 242.322 327.767  0.00  0.00    +0.000 OA
ATOM     19  C   UNL     1      54.267 244.487 324.681  0.00  0.00    +0.000 A 
ATOM     20  C   UNL     1      53.673 244.313 323.419  0.00  0.00    +0.000 A 
ENDBRANCH   2  11
BRANCH   5  21
ATOM     21  O   UNL     1      50.451 238.720 326.226  0.00  0.00    +0.000 OA
ATOM     22  H   UNL     1      50.422 238.111 326.999  0.00  0.00    +0.000 HD
ENDBRANCH   5  21
TORSDOF 2
ENDMDL
MODEL 2
REMARK VINA RESULT:      -5.6      2.161      3.265
REMARK  Name = CHEMBL35349.pdbqt.pdb
REMARK  2 active torsions:
REMARK  status: ('A' for Active; 'I' for Inactive)
REMARK    1  A    between atoms: C_2  and  C_11
REMARK    2  A    between atoms: C_5  and  O_21
REMARK                            x       y       z     vdW  Elec       q    Type
REMARK                         _______ _______ _______ _____ _____    ______ ____
ROOT
ATOM      1  N   UNL     1      46.754 240.110 326.912  0.00  0.00    +0.000 N 
ATOM      2  C   UNL     1      48.793 240.700 326.218  0.00  0.00    +0.000 A 
ATOM      3  C   UNL     1      48.502 239.368 325.760  0.00  0.00    +0.000 A 
ATOM      4  C   UNL     1      47.226 239.032 326.210  0.00  0.00    +0.000 A 
ATOM      5  C   UNL     1      47.678 241.120 326.930  0.00  0.00    +0.000 A 
ATOM      6  C   UNL     1      49.211 238.415 325.002  0.00  0.00    +0.000 A 
ATOM      7  C   UNL     1      46.619 237.800 325.946  0.00  0.00    +0.000 A 
ATOM      8  C   UNL     1      48.624 237.178 324.725  0.00  0.00    +0.000 A 
ATOM      9  C   UNL     1      47.349 236.880 325.191  0.00  0.00    +0.000 A 
ATOM     10  H   UNL     1      45.851 240.166 327.361  0.00  0.00    +0.000 HD
ENDROOT
BRANCH   2  11
ATOM     11  C   UNL     1      50.005 241.451 325.983  0.00  0.00    +0.000 C 
ATOM     12  N   UNL     1      50.856 241.726 326.938  0.00  0.00    +0.000 NA
ATOM     13  C   UNL     1      51.900 242.461 326.342  0.00  0.00    +0.000 A 
ATOM     14  C   UNL     1      51.734 242.673 324.976  0.00  0.00    +0.000 A 
ATOM     15  C   UNL     1      53.021 242.964 326.976  0.00  0.00    +0.000 A 
ATOM     16  C   UNL     1      50.480 242.024 324.651  0.00  0.00    +0.000 C 
ATOM     17  C   UNL     1      52.625 243.364 324.185  0.00  0.00    +0.000 A 
ATOM     18  O   UNL     1      49.914 241.938 323.587  0.00  0.00    +0.000 OA
ATOM     19  C   UNL     1      53.753 243.869 324.829  0.00  0.00    +0.000 A 
ATOM     20  C   UNL     1      53.949 243.673 326.207  0.00  0.00    +0.000 A 
ENDBRANCH   2  11
BRANCH   5  21
ATOM     21  O   UNL     1      47.357 242.234 327.577  0.00  0.00    +0.000 OA
ATOM     22  H   UNL     1      47.568 243.021 327.024  0.00  0.00    +0.000 HD
ENDBRANCH   5  21
TORSDOF 2
ENDMDL
MODEL 3
REMARK VINA RESULT:      -5.6     22.133     23.921
REMARK  Name = CHEMBL35349.pdbqt.pdb
REMARK  2 active torsions:
REMARK  status: ('A' for Active; 'I' for Inactive)
REMARK    1  A    between atoms: C_2  and  C_11
REMARK    2  A    between atoms: C_5  and  O_21
REMARK                            x       y       z     vdW  Elec       q    Type
REMARK                         _______ _______ _______ _____ _____    ______ ____
ROOT
ATOM      1  N   UNL     1      62.347 224.749 326.426  0.00  0.00    +0.000 N 
ATOM      2  C   UNL     1      62.765 223.192 327.971  0.00  0.00    +0.000 A 
ATOM      3  C   UNL     1      61.344 223.378 327.857  0.00  0.00    +0.000 A 
ATOM      4  C   UNL     1      61.119 224.354 326.888  0.00  0.00    +0.000 A 
ATOM      5  C   UNL     1      63.348 224.065 327.063  0.00  0.00    +0.000 A 
ATOM      6  C   UNL     1      60.226 222.803 328.493  0.00  0.00    +0.000 A 
ATOM      7  C   UNL     1      59.841 224.788 326.518  0.00  0.00    +0.000 A 
ATOM      8  C   UNL     1      58.941 223.220 328.139  0.00  0.00    +0.000 A 
ATOM      9  C   UNL     1      58.757 224.196 327.167  0.00  0.00    +0.000 A 
ATOM     10  H   UNL     1      62.508 225.448 325.715  0.00  0.00    +0.000 HD
ENDROOT
BRANCH   2  11
ATOM     11  C   UNL     1      63.451 222.277 328.855  0.00  0.00    +0.000 C 
ATOM     12  N   UNL     1      63.412 220.980 328.691  0.00  0.00    +0.000 NA
ATOM     13  C   UNL     1      64.186 220.423 329.729  0.00  0.00    +0.000 A 
ATOM     14  C   UNL     1      64.743 221.367 330.588  0.00  0.00    +0.000 A 
ATOM     15  C   UNL     1      64.425 219.080 329.949  0.00  0.00    +0.000 A 
ATOM     16  C   UNL     1      64.297 222.645 330.071  0.00  0.00    +0.000 C 
ATOM     17  C   UNL     1      65.535 221.057 331.672  0.00  0.00    +0.000 A 
ATOM     18  O   UNL     1      64.522 223.760 330.482  0.00  0.00    +0.000 OA
ATOM     19  C   UNL     1      65.772 219.701 331.890  0.00  0.00    +0.000 A 
ATOM     20  C   UNL     1      65.224 218.724 331.041  0.00  0.00    +0.000 A 
ENDBRANCH   2  11
BRANCH   5  21
ATOM     21  O   UNL     1      64.599 224.345 326.717  0.00  0.00    +0.000 OA
ATOM     22  H   UNL     1      64.628 225.180 326.197  0.00  0.00    +0.000 HD
ENDBRANCH   5  21
TORSDOF 2
ENDMDL
MODEL 4
REMARK VINA RESULT:      -5.6      4.668      5.603
REMARK  Name = CHEMBL35349.pdbqt.pdb
REMARK  2 active torsions:
REMARK  status: ('A' for Active; 'I' for Inactive)
REMARK    1  A    between atoms: C_2  and  C_11
REMARK    2  A    between atoms: C_5  and  O_21
REMARK                            x       y       z     vdW  Elec       q    Type
REMARK                         _______ _______ _______ _____ _____    ______ ____
ROOT
ATOM      1  N   UNL     1      49.187 244.516 331.098  0.00  0.00    +0.000 N 
ATOM      2  C   UNL     1      50.772 244.974 329.594  0.00  0.00    +0.000 A 
ATOM      3  C   UNL     1      50.945 245.825 330.740  0.00  0.00    +0.000 A 
ATOM      4  C   UNL     1      49.942 245.514 331.656  0.00  0.00    +0.000 A 
ATOM      5  C   UNL     1      49.668 244.178 329.861  0.00  0.00    +0.000 A 
ATOM      6  C   UNL     1      51.866 246.836 331.082  0.00  0.00    +0.000 A 
ATOM      7  C   UNL     1      49.807 246.154 332.893  0.00  0.00    +0.000 A 
ATOM      8  C   UNL     1      51.751 247.488 332.311  0.00  0.00    +0.000 A 
ATOM      9  C   UNL     1      50.736 247.149 333.199  0.00  0.00    +0.000 A 
ATOM     10  H   UNL     1      48.384 244.080 331.527  0.00  0.00    +0.000 HD
ENDROOT
BRANCH   2  11
ATOM     11  C   UNL     1      51.588 244.952 328.401  0.00  0.00    +0.000 C 
ATOM     12  N   UNL     1      51.691 245.984 327.602  0.00  0.00    +0.000 NA
ATOM     13  C   UNL     1      52.558 245.596 326.561  0.00  0.00    +0.000 A 
ATOM     14  C   UNL     1      53.032 244.292 326.675  0.00  0.00    +0.000 A 
ATOM     15  C   UNL     1      52.956 246.372 325.488  0.00  0.00    +0.000 A 
ATOM     16  C   UNL     1      52.427 243.784 327.890  0.00  0.00    +0.000 C 
ATOM     17  C   UNL     1      53.891 243.697 325.777  0.00  0.00    +0.000 A 
ATOM     18  O   UNL     1      52.537 242.697 328.406  0.00  0.00    +0.000 OA
ATOM     19  C   UNL     1      54.288 244.483 324.697  0.00  0.00    +0.000 A 
ATOM     20  C   UNL     1      53.827 245.803 324.552  0.00  0.00    +0.000 A 
ENDBRANCH   2  11
BRANCH   5  21
ATOM     21  O   UNL     1      49.033 243.219 329.197  0.00  0.00    +0.000 OA
ATOM     22  H   UNL     1      49.317 242.335 329.524  0.00  0.00    +0.000 HD
ENDBRANCH   5  21
TORSDOF 2
ENDMDL
MODEL 5
REMARK VINA RESULT:      -5.2     22.247     24.285
REMARK  Name = CHEMBL35349.pdbqt.pdb
REMARK  2 active torsions:
REMARK  status: ('A' for Active; 'I' for Inactive)
REMARK    1  A    between atoms: C_2  and  C_11
REMARK    2  A    between atoms: C_5  and  O_21
REMARK                            x       y       z     vdW  Elec       q    Type
REMARK                         _______ _______ _______ _____ _____    ______ ____
ROOT
ATOM      1  N   UNL     1      66.222 221.762 328.653  0.00  0.00    +0.000 N 
ATOM      2  C   UNL     1      64.025 222.154 328.690  0.00  0.00    +0.000 A 
ATOM      3  C   UNL     1      64.406 221.474 329.899  0.00  0.00    +0.000 A 
ATOM      4  C   UNL     1      65.780 221.245 329.843  0.00  0.00    +0.000 A 
ATOM      5  C   UNL     1      65.186 222.311 327.947  0.00  0.00    +0.000 A 
ATOM      6  C   UNL     1      63.705 221.031 331.038  0.00  0.00    +0.000 A 
ATOM      7  C   UNL     1      66.492 220.599 330.859  0.00  0.00    +0.000 A 
ATOM      8  C   UNL     1      64.396 220.385 332.065  0.00  0.00    +0.000 A 
ATOM      9  C   UNL     1      65.767 220.175 331.972  0.00  0.00    +0.000 A 
ATOM     10  H   UNL     1      67.178 221.746 328.328  0.00  0.00    +0.000 HD
ENDROOT
BRANCH   2  11
ATOM     11  C   UNL     1      62.696 222.587 328.323  0.00  0.00    +0.000 C 
ATOM     12  N   UNL     1      62.433 223.818 327.965  0.00  0.00    +0.000 NA
ATOM     13  C   UNL     1      61.053 223.865 327.684  0.00  0.00    +0.000 A 
ATOM     14  C   UNL     1      60.398 222.649 327.860  0.00  0.00    +0.000 A 
ATOM     15  C   UNL     1      60.333 224.970 327.268  0.00  0.00    +0.000 A 
ATOM     16  C   UNL     1      61.433 221.731 328.290  0.00  0.00    +0.000 C 
ATOM     17  C   UNL     1      59.051 222.456 327.645  0.00  0.00    +0.000 A 
ATOM     18  O   UNL     1      61.351 220.557 328.567  0.00  0.00    +0.000 OA
ATOM     19  C   UNL     1      58.330 223.573 327.226  0.00  0.00    +0.000 A 
ATOM     20  C   UNL     1      58.962 224.815 327.040  0.00  0.00    +0.000 A 
ENDBRANCH   2  11
BRANCH   5  21
ATOM     21  O   UNL     1      65.466 222.853 326.767  0.00  0.00    +0.000 OA
ATOM     22  H   UNL     1      65.625 222.148 326.099  0.00  0.00    +0.000 HD
ENDBRANCH   5  21
TORSDOF 2
ENDMDL
MODEL 6
REMARK VINA RESULT:      -5.1     25.214     26.667
REMARK  Name = CHEMBL35349.pdbqt.pdb
REMARK  2 active torsions:
REMARK  status: ('A' for Active; 'I' for Inactive)
REMARK    1  A    between atoms: C_2  and  C_11
REMARK    2  A    between atoms: C_5  and  O_21
REMARK                            x       y       z     vdW  Elec       q    Type
REMARK                         _______ _______ _______ _____ _____    ______ ____
ROOT
ATOM      1  N   UNL     1      64.594 240.292 347.719  0.00  0.00    +0.000 N 
ATOM      2  C   UNL     1      64.944 238.175 347.101  0.00  0.00    +0.000 A 
ATOM      3  C   UNL     1      64.683 238.220 348.514  0.00  0.00    +0.000 A 
ATOM      4  C   UNL     1      64.470 239.552 348.865  0.00  0.00    +0.000 A 
ATOM      5  C   UNL     1      64.878 239.486 346.649  0.00  0.00    +0.000 A 
ATOM      6  C   UNL     1      64.610 237.246 349.530  0.00  0.00    +0.000 A 
ATOM      7  C   UNL     1      64.189 239.965 350.172  0.00  0.00    +0.000 A 
ATOM      8  C   UNL     1      64.329 237.635 350.841  0.00  0.00    +0.000 A 
ATOM      9  C   UNL     1      64.123 238.974 351.152  0.00  0.00    +0.000 A 
ATOM     10  H   UNL     1      64.492 241.295 347.655  0.00  0.00    +0.000 HD
ENDROOT
BRANCH   2  11
ATOM     11  C   UNL     1      65.219 236.999 346.308  0.00  0.00    +0.000 C 
ATOM     12  N   UNL     1      64.561 236.722 345.211  0.00  0.00    +0.000 NA
ATOM     13  C   UNL     1      65.098 235.515 344.718  0.00  0.00    +0.000 A 
ATOM     14  C   UNL     1      66.123 234.991 345.501  0.00  0.00    +0.000 A 
ATOM     15  C   UNL     1      64.706 234.845 343.575  0.00  0.00    +0.000 A 
ATOM     16  C   UNL     1      66.269 235.930 346.595  0.00  0.00    +0.000 C 
ATOM     17  C   UNL     1      66.796 233.823 345.217  0.00  0.00    +0.000 A 
ATOM     18  O   UNL     1      67.033 235.903 347.532  0.00  0.00    +0.000 OA
ATOM     19  C   UNL     1      66.397 233.151 344.063  0.00  0.00    +0.000 A 
ATOM     20  C   UNL     1      65.365 233.654 343.252  0.00  0.00    +0.000 A 
ENDBRANCH   2  11
BRANCH   5  21
ATOM     21  O   UNL     1      65.026 240.067 345.464  0.00  0.00    +0.000 OA
ATOM     22  H   UNL     1      65.867 239.775 345.046  0.00  0.00    +0.000 HD
ENDBRANCH   5  21
TORSDOF 2
ENDMDL
MODEL 7
REMARK VINA RESULT:      -5.0     18.112     20.493
REMARK  Name = CHEMBL35349.pdbqt.pdb
REMARK  2 active torsions:
REMARK  status: ('A' for Active; 'I' for Inactive)
REMARK    1  A    between atoms: C_2  and  C_11
REMARK    2  A    between atoms: C_5  and  O_21
REMARK                            x       y       z     vdW  Elec       q    Type
REMARK                         _______ _______ _______ _____ _____    ______ ____
ROOT
ATOM      1  N   UNL     1      45.797 241.709 345.213  0.00  0.00    +0.000 N 
ATOM      2  C   UNL     1      45.869 239.491 344.959  0.00  0.00    +0.000 A 
ATOM      3  C   UNL     1      46.373 240.122 343.769  0.00  0.00    +0.000 A 
ATOM      4  C   UNL     1      46.313 241.501 343.960  0.00  0.00    +0.000 A 
ATOM      5  C   UNL     1      45.524 240.516 345.829  0.00  0.00    +0.000 A 
ATOM      6  C   UNL     1      46.874 239.643 342.542  0.00  0.00    +0.000 A 
ATOM      7  C   UNL     1      46.725 242.428 342.997  0.00  0.00    +0.000 A 
ATOM      8  C   UNL     1      47.292 240.550 341.566  0.00  0.00    +0.000 A 
ATOM      9  C   UNL     1      47.217 241.919 341.795  0.00  0.00    +0.000 A 
ATOM     10  H   UNL     1      45.634 242.610 345.637  0.00  0.00    +0.000 HD
ENDROOT
BRANCH   2  11
ATOM     11  C   UNL     1      45.748 238.072 345.202  0.00  0.00    +0.000 C 
ATOM     12  N   UNL     1      44.763 237.359 344.720  0.00  0.00    +0.000 NA
ATOM     13  C   UNL     1      44.976 236.036 345.159  0.00  0.00    +0.000 A 
ATOM     14  C   UNL     1      46.117 235.877 345.942  0.00  0.00    +0.000 A 
ATOM     15  C   UNL     1      44.180 234.940 344.887  0.00  0.00    +0.000 A 
ATOM     16  C   UNL     1      46.698 237.202 346.021  0.00  0.00    +0.000 C 
ATOM     17  C   UNL     1      46.525 234.677 346.481  0.00  0.00    +0.000 A 
ATOM     18  O   UNL     1      47.698 237.568 346.593  0.00  0.00    +0.000 OA
ATOM     19  C   UNL     1      45.719 233.574 346.204  0.00  0.00    +0.000 A 
ATOM     20  C   UNL     1      44.561 233.703 345.417  0.00  0.00    +0.000 A 
ENDBRANCH   2  11
BRANCH   5  21
ATOM     21  O   UNL     1      45.016 240.561 347.055  0.00  0.00    +0.000 OA
ATOM     22  H   UNL     1      45.328 241.370 347.521  0.00  0.00    +0.000 HD
ENDBRANCH   5  21
TORSDOF 2
ENDMDL
MODEL 8
REMARK VINA RESULT:      -4.9     18.907     21.582
REMARK  Name = CHEMBL35349.pdbqt.pdb
REMARK  2 active torsions:
REMARK  status: ('A' for Active; 'I' for Inactive)
REMARK    1  A    between atoms: C_2  and  C_11
REMARK    2  A    between atoms: C_5  and  O_21
REMARK                            x       y       z     vdW  Elec       q    Type
REMARK                         _______ _______ _______ _____ _____    ______ ____
ROOT
ATOM      1  N   UNL     1      46.563 220.484 334.539  0.00  0.00    +0.000 N 
ATOM      2  C   UNL     1      47.033 221.417 332.566  0.00  0.00    +0.000 A 
ATOM      3  C   UNL     1      47.975 220.363 332.829  0.00  0.00    +0.000 A 
ATOM      4  C   UNL     1      47.654 219.804 334.065  0.00  0.00    +0.000 A 
ATOM      5  C   UNL     1      46.175 221.456 333.655  0.00  0.00    +0.000 A 
ATOM      6  C   UNL     1      49.076 219.833 332.127  0.00  0.00    +0.000 A 
ATOM      7  C   UNL     1      48.369 218.747 334.638  0.00  0.00    +0.000 A 
ATOM      8  C   UNL     1      49.804 218.777 332.679  0.00  0.00    +0.000 A 
ATOM      9  C   UNL     1      49.452 218.246 333.915  0.00  0.00    +0.000 A 
ATOM     10  H   UNL     1      46.098 220.306 335.417  0.00  0.00    +0.000 HD
ENDROOT
BRANCH   2  11
ATOM     11  C   UNL     1      46.989 222.267 331.398  0.00  0.00    +0.000 C 
ATOM     12  N   UNL     1      47.368 223.519 331.426  0.00  0.00    +0.000 NA
ATOM     13  C   UNL     1      47.185 224.020 330.121  0.00  0.00    +0.000 A 
ATOM     14  C   UNL     1      46.680 223.085 329.222  0.00  0.00    +0.000 A 
ATOM     15  C   UNL     1      47.456 225.304 329.686  0.00  0.00    +0.000 A 
ATOM     16  C   UNL     1      46.518 221.874 330.000  0.00  0.00    +0.000 C 
ATOM     17  C   UNL     1      46.421 223.348 327.894  0.00  0.00    +0.000 A 
ATOM     18  O   UNL     1      46.108 220.790 329.656  0.00  0.00    +0.000 OA
ATOM     19  C   UNL     1      46.695 224.643 327.461  0.00  0.00    +0.000 A 
ATOM     20  C   UNL     1      47.206 225.610 328.344  0.00  0.00    +0.000 A 
ENDBRANCH   2  11
BRANCH   5  21
ATOM     21  O   UNL     1      45.125 222.199 333.983  0.00  0.00    +0.000 OA
ATOM     22  H   UNL     1      44.725 221.871 334.821  0.00  0.00    +0.000 HD
ENDBRANCH   5  21
TORSDOF 2
ENDMDL
MODEL 9
REMARK VINA RESULT:      -4.8     30.402     31.341
REMARK  Name = CHEMBL35349.pdbqt.pdb
REMARK  2 active torsions:
REMARK  status: ('A' for Active; 'I' for Inactive)
REMARK    1  A    between atoms: C_2  and  C_11
REMARK    2  A    between atoms: C_5  and  O_21
REMARK                            x       y       z     vdW  Elec       q    Type
REMARK                         _______ _______ _______ _____ _____    ______ ____
ROOT
ATOM      1  N   UNL     1      49.182 225.931 351.664  0.00  0.00    +0.000 N 
ATOM      2  C   UNL     1      51.097 226.543 352.635  0.00  0.00    +0.000 A 
ATOM      3  C   UNL     1      49.992 227.008 353.429  0.00  0.00    +0.000 A 
ATOM      4  C   UNL     1      48.816 226.611 352.796  0.00  0.00    +0.000 A 
ATOM      5  C   UNL     1      50.546 225.879 351.549  0.00  0.00    +0.000 A 
ATOM      6  C   UNL     1      49.885 227.735 354.631  0.00  0.00    +0.000 A 
ATOM      7  C   UNL     1      47.541 226.898 353.295  0.00  0.00    +0.000 A 
ATOM      8  C   UNL     1      48.623 228.032 355.149  0.00  0.00    +0.000 A 
ATOM      9  C   UNL     1      47.473 227.618 354.488  0.00  0.00    +0.000 A 
ATOM     10  H   UNL     1      48.546 225.519 350.996  0.00  0.00    +0.000 HD
ENDROOT
BRANCH   2  11
ATOM     11  C   UNL     1      52.503 226.729 352.914  0.00  0.00    +0.000 C 
ATOM     12  N   UNL     1      53.039 227.914 353.059  0.00  0.00    +0.000 NA
ATOM     13  C   UNL     1      54.408 227.703 353.317  0.00  0.00    +0.000 A 
ATOM     14  C   UNL     1      54.779 226.361 353.343  0.00  0.00    +0.000 A 
ATOM     15  C   UNL     1      55.365 228.677 353.537  0.00  0.00    +0.000 A 
ATOM     16  C   UNL     1      53.553 225.635 353.080  0.00  0.00    +0.000 C 
ATOM     17  C   UNL     1      56.062 225.915 353.576  0.00  0.00    +0.000 A 
ATOM     18  O   UNL     1      53.370 224.442 353.003  0.00  0.00    +0.000 OA
ATOM     19  C   UNL     1      57.022 226.901 353.796  0.00  0.00    +0.000 A 
ATOM     20  C   UNL     1      56.680 228.264 353.777  0.00  0.00    +0.000 A 
ENDBRANCH   2  11
BRANCH   5  21
ATOM     21  O   UNL     1      51.049 225.247 350.495  0.00  0.00    +0.000 OA
ATOM     22  H   UNL     1      51.893 225.671 350.217  0.00  0.00    +0.000 HD
ENDBRANCH   5  21
TORSDOF 2
ENDMDL
