REMARK  Name = Chlortetracycline.pdbqt.pdb
REMARK  7 active torsions:
REMARK  status: ('A' for Active; 'I' for Inactive)
REMARK    1  A    between atoms: C_7  and  O_30
REMARK    2  A    between atoms: C_8  and  N_32
REMARK    3  A    between atoms: C_9  and  O_37
REMARK    4  A    between atoms: C_12  and  O_28
REMARK    5  A    between atoms: C_15  and  O_35
REMARK    6  A    between atoms: C_16  and  C_23
REMARK    7  A    between atoms: C_20  and  O_39
REMARK                            x       y       z     vdW  Elec       q    Type
REMARK                         _______ _______ _______ _____ _____    ______ ____
ROOT
ATOM      1 CL   UNL     1      -4.805  -2.824  -1.660  0.00  0.00    +0.000 Cl
ATOM      2  O   UNL     1       0.198   1.363   2.669  0.00  0.00    +0.000 OA
ATOM      3  O   UNL     1       2.917   0.167  -2.731  0.00  0.00    +0.000 OA
ATOM      4  C   UNL     1       1.750  -1.042   0.275  0.00  0.00    +0.000 C 
ATOM      5  C   UNL     1      -0.885  -1.036   0.131  0.00  0.00    +0.000 C 
ATOM      6  C   UNL     1       0.446  -1.453  -0.071  0.00  0.00    +0.000 C 
ATOM      7  C   UNL     1       1.762   0.160   1.189  0.00  0.00    +0.000 C 
ATOM      8  C   UNL     1       2.803  -1.095  -0.724  0.00  0.00    +0.000 C 
ATOM      9  C   UNL     1      -2.140  -1.772  -0.247  0.00  0.00    +0.000 C 
ATOM     10  C   UNL     1      -0.954   0.135   0.979  0.00  0.00    +0.000 C 
ATOM     11  C   UNL     1       0.309   0.609   1.692  0.00  0.00    +0.000 C 
ATOM     12  C   UNL     1       2.424   1.389   0.558  0.00  0.00    +0.000 C 
ATOM     13  C   UNL     1      -3.384  -0.897  -0.244  0.00  0.00    +0.000 A 
ATOM     14  C   UNL     1       2.942   0.163  -1.509  0.00  0.00    +0.000 C 
ATOM     15  C   UNL     1      -2.122   0.778   1.163  0.00  0.00    +0.000 C 
ATOM     16  C   UNL     1       2.950   1.416  -0.689  0.00  0.00    +0.000 C 
ATOM     17  C   UNL     1      -3.355   0.366   0.423  0.00  0.00    +0.000 A 
ATOM     18  C   UNL     1      -2.295  -2.981   0.698  0.00  0.00    +0.000 C 
ATOM     19  C   UNL     1      -4.584  -1.298  -0.878  0.00  0.00    +0.000 A 
ATOM     20  C   UNL     1      -4.503   1.186   0.354  0.00  0.00    +0.000 A 
ATOM     21  C   UNL     1      -5.706  -0.474  -0.894  0.00  0.00    +0.000 A 
ATOM     22  C   UNL     1      -5.663   0.770  -0.294  0.00  0.00    +0.000 A 
ENDROOT
BRANCH  16  23
ATOM     23  C   UNL     1       3.633   2.615  -1.252  0.00  0.00    +0.000 C 
ATOM     24  O   UNL     1       4.587   2.522  -2.013  0.00  0.00    +0.000 OA
ATOM     25  N   UNL     1       3.161   3.832  -0.869  0.00  0.00    +0.000 N 
ATOM     26  H   UNL     1       2.578   3.915  -0.043  0.00  0.00    +0.000 HD
ATOM     27  H   UNL     1       3.697   4.640  -1.155  0.00  0.00    +0.000 HD
ENDBRANCH  16  23
BRANCH   8  28
ATOM     28  N   UNL     1       3.946  -1.955  -0.569  0.00  0.00    +0.000 NA
ATOM     29  C   UNL     1       3.681  -3.160   0.204  0.00  0.00    +0.000 C 
ATOM     30  C   UNL     1       4.555  -2.352  -1.822  0.00  0.00    +0.000 C 
ENDBRANCH   8  28
BRANCH  12  31
ATOM     31  O   UNL     1       2.528   2.503   1.396  0.00  0.00    +0.000 OA
ATOM     32  H   UNL     1       2.350   2.213   2.320  0.00  0.00    +0.000 HD
ENDBRANCH  12  31
BRANCH   7  33
ATOM     33  O   UNL     1       2.579  -0.150   2.319  0.00  0.00    +0.000 OA
ATOM     34  H   UNL     1       2.132  -0.847   2.834  0.00  0.00    +0.000 HD
ENDBRANCH   7  33
BRANCH  15  35
ATOM     35  O   UNL     1      -2.270   1.828   2.044  0.00  0.00    +0.000 OA
ATOM     36  H   UNL     1      -1.445   1.963   2.556  0.00  0.00    +0.000 HD
ENDBRANCH  15  35
BRANCH   9  37
ATOM     37  O   UNL     1      -1.908  -2.300  -1.538  0.00  0.00    +0.000 OA
ATOM     38  H   UNL     1      -1.999  -3.256  -1.371  0.00  0.00    +0.000 HD
ENDBRANCH   9  37
BRANCH  20  39
ATOM     39  O   UNL     1      -4.513   2.449   0.881  0.00  0.00    +0.000 OA
ATOM     40  H   UNL     1      -5.403   2.831   0.791  0.00  0.00    +0.000 HD
ENDBRANCH  20  39
TORSDOF 7
