MODEL 1
REMARK VINA RESULT:      -6.2      0.000      0.000
REMARK  Name = Chlortetracycline.pdbqt.pdb
REMARK  7 active torsions:
REMARK  status: ('A' for Active; 'I' for Inactive)
REMARK    1  A    between atoms: C_7  and  O_30
REMARK    2  A    between atoms: C_8  and  N_32
REMARK    3  A    between atoms: C_9  and  O_37
REMARK    4  A    between atoms: C_12  and  O_28
REMARK    5  A    between atoms: C_15  and  O_35
REMARK    6  A    between atoms: C_16  and  C_23
REMARK    7  A    between atoms: C_20  and  O_39
REMARK                            x       y       z     vdW  Elec       q    Type
REMARK                         _______ _______ _______ _____ _____    ______ ____
ROOT
ATOM      1 CL   UNL     1      43.423 232.524 320.187  0.00  0.00    +0.000 Cl
ATOM      2  O   UNL     1      49.874 234.973 323.886  0.00  0.00    +0.000 OA
ATOM      3  O   UNL     1      45.538 239.295 324.591  0.00  0.00    +0.000 OA
ATOM      4  C   UNL     1      47.703 237.657 322.471  0.00  0.00    +0.000 C 
ATOM      5  C   UNL     1      46.709 235.245 322.077  0.00  0.00    +0.000 C 
ATOM      6  C   UNL     1      46.877 236.639 321.953  0.00  0.00    +0.000 C 
ATOM      7  C   UNL     1      48.785 237.127 323.382  0.00  0.00    +0.000 C 
ATOM      8  C   UNL     1      47.113 238.928 322.853  0.00  0.00    +0.000 C 
ATOM      9  C   UNL     1      45.806 234.358 321.266  0.00  0.00    +0.000 C 
ATOM     10  C   UNL     1      47.697 234.665 322.962  0.00  0.00    +0.000 C 
ATOM     11  C   UNL     1      48.861 235.528 323.439  0.00  0.00    +0.000 C 
ATOM     12  C   UNL     1      48.655 237.627 324.824  0.00  0.00    +0.000 C 
ATOM     13  C   UNL     1      45.571 232.992 321.892  0.00  0.00    +0.000 A 
ATOM     14  C   UNL     1      46.676 238.978 324.276  0.00  0.00    +0.000 C 
ATOM     15  C   UNL     1      47.609 233.374 323.333  0.00  0.00    +0.000 C 
ATOM     16  C   UNL     1      47.679 238.458 325.259  0.00  0.00    +0.000 C 
ATOM     17  C   UNL     1      46.441 232.532 322.927  0.00  0.00    +0.000 A 
ATOM     18  C   UNL     1      46.395 234.237 319.846  0.00  0.00    +0.000 C 
ATOM     19  C   UNL     1      44.514 232.148 321.474  0.00  0.00    +0.000 A 
ATOM     20  C   UNL     1      46.160 231.288 323.534  0.00  0.00    +0.000 A 
ATOM     21  C   UNL     1      44.291 230.913 322.076  0.00  0.00    +0.000 A 
ATOM     22  C   UNL     1      45.101 230.489 323.113  0.00  0.00    +0.000 A 
ENDROOT
BRANCH  16  23
ATOM     23  C   UNL     1      47.614 238.966 326.658  0.00  0.00    +0.000 C 
ATOM     24  O   UNL     1      48.431 239.764 327.099  0.00  0.00    +0.000 OA
ATOM     25  N   UNL     1      46.610 238.489 327.443  0.00  0.00    +0.000 N 
ATOM     26  H   UNL     1      46.120 237.640 327.182  0.00  0.00    +0.000 HD
ATOM     27  H   UNL     1      46.637 238.741 328.421  0.00  0.00    +0.000 HD
ENDBRANCH  16  23
BRANCH   8  28
ATOM     28  N   UNL     1      47.464 240.153 322.184  0.00  0.00    +0.000 NA
ATOM     29  C   UNL     1      48.406 240.983 322.922  0.00  0.00    +0.000 C 
ATOM     30  C   UNL     1      47.989 239.961 320.848  0.00  0.00    +0.000 C 
ENDBRANCH   8  28
BRANCH  12  31
ATOM     31  O   UNL     1      49.680 237.225 325.686  0.00  0.00    +0.000 OA
ATOM     32  H   UNL     1      50.483 237.757 325.482  0.00  0.00    +0.000 HD
ENDBRANCH  12  31
BRANCH   7  33
ATOM     33  O   UNL     1      50.037 237.645 322.931  0.00  0.00    +0.000 OA
ATOM     34  H   UNL     1      49.942 237.896 321.994  0.00  0.00    +0.000 HD
ENDBRANCH   7  33
BRANCH  15  35
ATOM     35  O   UNL     1      48.579 232.741 324.080  0.00  0.00    +0.000 OA
ATOM     36  H   UNL     1      49.471 233.034 323.801  0.00  0.00    +0.000 HD
ENDBRANCH  15  35
BRANCH   9  37
ATOM     37  O   UNL     1      44.586 235.060 321.134  0.00  0.00    +0.000 OA
ATOM     38  H   UNL     1      44.616 235.642 321.916  0.00  0.00    +0.000 HD
ENDBRANCH   9  37
BRANCH  20  39
ATOM     39  O   UNL     1      46.889 230.831 324.599  0.00  0.00    +0.000 OA
ATOM     40  H   UNL     1      47.408 230.055 324.328  0.00  0.00    +0.000 HD
ENDBRANCH  20  39
TORSDOF 7
ENDMDL
MODEL 2
REMARK VINA RESULT:      -5.7      8.324     12.527
REMARK  Name = Chlortetracycline.pdbqt.pdb
REMARK  7 active torsions:
REMARK  status: ('A' for Active; 'I' for Inactive)
REMARK    1  A    between atoms: C_7  and  O_30
REMARK    2  A    between atoms: C_8  and  N_32
REMARK    3  A    between atoms: C_9  and  O_37
REMARK    4  A    between atoms: C_12  and  O_28
REMARK    5  A    between atoms: C_15  and  O_35
REMARK    6  A    between atoms: C_16  and  C_23
REMARK    7  A    between atoms: C_20  and  O_39
REMARK                            x       y       z     vdW  Elec       q    Type
REMARK                         _______ _______ _______ _____ _____    ______ ____
ROOT
ATOM      1 CL   UNL     1      53.669 250.036 323.690  0.00  0.00    +0.000 Cl
ATOM      2  O   UNL     1      53.596 242.930 326.976  0.00  0.00    +0.000 OA
ATOM      3  O   UNL     1      47.750 244.765 326.316  0.00  0.00    +0.000 OA
ATOM      4  C   UNL     1      50.771 245.177 327.918  0.00  0.00    +0.000 C 
ATOM      5  C   UNL     1      52.411 246.296 326.180  0.00  0.00    +0.000 C 
ATOM      6  C   UNL     1      51.376 246.177 327.129  0.00  0.00    +0.000 C 
ATOM      7  C   UNL     1      51.449 243.835 327.784  0.00  0.00    +0.000 C 
ATOM      8  C   UNL     1      49.324 245.152 328.050  0.00  0.00    +0.000 C 
ATOM      9  C   UNL     1      52.960 247.561 325.581  0.00  0.00    +0.000 C 
ATOM     10  C   UNL     1      53.094 245.037 325.975  0.00  0.00    +0.000 C 
ATOM     11  C   UNL     1      52.790 243.869 326.909  0.00  0.00    +0.000 C 
ATOM     12  C   UNL     1      50.540 242.759 327.180  0.00  0.00    +0.000 C 
ATOM     13  C   UNL     1      53.789 247.331 324.327  0.00  0.00    +0.000 A 
ATOM     14  C   UNL     1      48.647 244.320 327.016  0.00  0.00    +0.000 C 
ATOM     15  C   UNL     1      54.008 244.906 324.996  0.00  0.00    +0.000 C 
ATOM     16  C   UNL     1      49.258 242.970 326.799  0.00  0.00    +0.000 C 
ATOM     17  C   UNL     1      54.272 246.019 324.032  0.00  0.00    +0.000 A 
ATOM     18  C   UNL     1      53.767 248.301 326.667  0.00  0.00    +0.000 C 
ATOM     19  C   UNL     1      54.111 248.384 323.437  0.00  0.00    +0.000 A 
ATOM     20  C   UNL     1      54.984 245.822 322.828  0.00  0.00    +0.000 A 
ATOM     21  C   UNL     1      54.845 248.154 322.277  0.00  0.00    +0.000 A 
ATOM     22  C   UNL     1      55.268 246.876 321.964  0.00  0.00    +0.000 A 
ENDROOT
BRANCH  16  23
ATOM     23  C   UNL     1      48.386 241.887 326.263  0.00  0.00    +0.000 C 
ATOM     24  O   UNL     1      48.142 240.872 326.904  0.00  0.00    +0.000 OA
ATOM     25  N   UNL     1      47.881 242.062 325.013  0.00  0.00    +0.000 N 
ATOM     26  H   UNL     1      48.298 242.741 324.386  0.00  0.00    +0.000 HD
ATOM     27  H   UNL     1      47.390 241.278 324.605  0.00  0.00    +0.000 HD
ENDBRANCH  16  23
BRANCH   8  28
ATOM     28  N   UNL     1      48.680 245.353 329.320  0.00  0.00    +0.000 NA
ATOM     29  C   UNL     1      48.034 244.162 329.853  0.00  0.00    +0.000 C 
ATOM     30  C   UNL     1      49.557 245.883 330.345  0.00  0.00    +0.000 C 
ENDBRANCH   8  28
BRANCH  12  31
ATOM     31  O   UNL     1      51.100 241.481 327.109  0.00  0.00    +0.000 OA
ATOM     32  H   UNL     1      50.760 241.038 326.298  0.00  0.00    +0.000 HD
ENDBRANCH  12  31
BRANCH   7  33
ATOM     33  O   UNL     1      51.751 243.357 329.095  0.00  0.00    +0.000 OA
ATOM     34  H   UNL     1      50.930 243.375 329.621  0.00  0.00    +0.000 HD
ENDBRANCH   7  33
BRANCH  15  35
ATOM     35  O   UNL     1      54.768 243.768 324.825  0.00  0.00    +0.000 OA
ATOM     36  H   UNL     1      54.664 243.170 325.595  0.00  0.00    +0.000 HD
ENDBRANCH  15  35
BRANCH   9  37
ATOM     37  O   UNL     1      51.839 248.373 325.292  0.00  0.00    +0.000 OA
ATOM     38  H   UNL     1      51.137 247.908 325.783  0.00  0.00    +0.000 HD
ENDBRANCH   9  37
BRANCH  20  39
ATOM     39  O   UNL     1      55.387 244.576 322.431  0.00  0.00    +0.000 OA
ATOM     40  H   UNL     1      55.945 244.653 321.638  0.00  0.00    +0.000 HD
ENDBRANCH  20  39
TORSDOF 7
ENDMDL
MODEL 3
REMARK VINA RESULT:      -5.6      3.367      4.892
REMARK  Name = Chlortetracycline.pdbqt.pdb
REMARK  7 active torsions:
REMARK  status: ('A' for Active; 'I' for Inactive)
REMARK    1  A    between atoms: C_7  and  O_30
REMARK    2  A    between atoms: C_8  and  N_32
REMARK    3  A    between atoms: C_9  and  O_37
REMARK    4  A    between atoms: C_12  and  O_28
REMARK    5  A    between atoms: C_15  and  O_35
REMARK    6  A    between atoms: C_16  and  C_23
REMARK    7  A    between atoms: C_20  and  O_39
REMARK                            x       y       z     vdW  Elec       q    Type
REMARK                         _______ _______ _______ _____ _____    ______ ____
ROOT
ATOM      1 CL   UNL     1      48.905 238.903 318.135  0.00  0.00    +0.000 Cl
ATOM      2  O   UNL     1      49.491 237.202 325.755  0.00  0.00    +0.000 OA
ATOM      3  O   UNL     1      46.134 242.343 325.221  0.00  0.00    +0.000 OA
ATOM      4  C   UNL     1      49.213 240.829 324.923  0.00  0.00    +0.000 C 
ATOM      5  C   UNL     1      49.106 239.293 322.780  0.00  0.00    +0.000 C 
ATOM      6  C   UNL     1      49.218 240.461 323.562  0.00  0.00    +0.000 C 
ATOM      7  C   UNL     1      49.134 239.641 325.852  0.00  0.00    +0.000 C 
ATOM      8  C   UNL     1      48.482 242.014 325.339  0.00  0.00    +0.000 C 
ATOM      9  C   UNL     1      49.297 239.168 321.294  0.00  0.00    +0.000 C 
ATOM     10  C   UNL     1      48.997 238.108 323.604  0.00  0.00    +0.000 C 
ATOM     11  C   UNL     1      49.232 238.226 325.107  0.00  0.00    +0.000 C 
ATOM     12  C   UNL     1      47.857 239.622 326.697  0.00  0.00    +0.000 C 
ATOM     13  C   UNL     1      48.737 237.878 320.715  0.00  0.00    +0.000 A 
ATOM     14  C   UNL     1      47.069 241.737 325.722  0.00  0.00    +0.000 C 
ATOM     15  C   UNL     1      48.726 236.912 323.049  0.00  0.00    +0.000 C 
ATOM     16  C   UNL     1      46.886 240.563 326.634  0.00  0.00    +0.000 C 
ATOM     17  C   UNL     1      48.430 236.789 321.588  0.00  0.00    +0.000 A 
ATOM     18  C   UNL     1      50.799 239.324 320.984  0.00  0.00    +0.000 C 
ATOM     19  C   UNL     1      48.515 237.713 319.327  0.00  0.00    +0.000 A 
ATOM     20  C   UNL     1      47.851 235.627 321.030  0.00  0.00    +0.000 A 
ATOM     21  C   UNL     1      47.974 236.538 318.813  0.00  0.00    +0.000 A 
ATOM     22  C   UNL     1      47.628 235.504 319.662  0.00  0.00    +0.000 A 
ENDROOT
BRANCH  16  23
ATOM     23  C   UNL     1      45.680 240.540 327.509  0.00  0.00    +0.000 C 
ATOM     24  O   UNL     1      45.738 240.799 328.703  0.00  0.00    +0.000 OA
ATOM     25  N   UNL     1      44.499 240.198 326.925  0.00  0.00    +0.000 N 
ATOM     26  H   UNL     1      44.493 239.718 326.032  0.00  0.00    +0.000 HD
ATOM     27  H   UNL     1      43.708 240.067 327.540  0.00  0.00    +0.000 HD
ENDBRANCH  16  23
BRANCH   8  28
ATOM     28  N   UNL     1      49.153 243.152 325.907  0.00  0.00    +0.000 NA
ATOM     29  C   UNL     1      49.079 243.220 327.360  0.00  0.00    +0.000 C 
ATOM     30  C   UNL     1      50.545 243.264 325.524  0.00  0.00    +0.000 C 
ENDBRANCH   8  28
BRANCH  12  31
ATOM     31  O   UNL     1      47.776 238.582 327.628  0.00  0.00    +0.000 OA
ATOM     32  H   UNL     1      48.078 237.752 327.191  0.00  0.00    +0.000 HD
ENDBRANCH  12  31
BRANCH   7  33
ATOM     33  O   UNL     1      50.195 239.749 326.803  0.00  0.00    +0.000 OA
ATOM     34  H   UNL     1      49.842 240.182 327.602  0.00  0.00    +0.000 HD
ENDBRANCH   7  33
BRANCH  15  35
ATOM     35  O   UNL     1      48.720 235.736 323.767  0.00  0.00    +0.000 OA
ATOM     36  H   UNL     1      49.449 235.732 324.423  0.00  0.00    +0.000 HD
ENDBRANCH  15  35
BRANCH   9  37
ATOM     37  O   UNL     1      48.652 240.289 320.723  0.00  0.00    +0.000 OA
ATOM     38  H   UNL     1      48.712 240.079 319.773  0.00  0.00    +0.000 HD
ENDBRANCH   9  37
BRANCH  20  39
ATOM     39  O   UNL     1      47.437 234.586 321.817  0.00  0.00    +0.000 OA
ATOM     40  H   UNL     1      47.258 233.810 321.259  0.00  0.00    +0.000 HD
ENDBRANCH  20  39
TORSDOF 7
ENDMDL
MODEL 4
REMARK VINA RESULT:      -5.5     31.503     33.277
REMARK  Name = Chlortetracycline.pdbqt.pdb
REMARK  7 active torsions:
REMARK  status: ('A' for Active; 'I' for Inactive)
REMARK    1  A    between atoms: C_7  and  O_30
REMARK    2  A    between atoms: C_8  and  N_32
REMARK    3  A    between atoms: C_9  and  O_37
REMARK    4  A    between atoms: C_12  and  O_28
REMARK    5  A    between atoms: C_15  and  O_35
REMARK    6  A    between atoms: C_16  and  C_23
REMARK    7  A    between atoms: C_20  and  O_39
REMARK                            x       y       z     vdW  Elec       q    Type
REMARK                         _______ _______ _______ _____ _____    ______ ____
ROOT
ATOM      1 CL   UNL     1      71.308 217.233 344.430  0.00  0.00    +0.000 Cl
ATOM      2  O   UNL     1      68.536 221.496 338.476  0.00  0.00    +0.000 OA
ATOM      3  O   UNL     1      74.690 221.594 338.164  0.00  0.00    +0.000 OA
ATOM      4  C   UNL     1      71.841 222.570 339.834  0.00  0.00    +0.000 C 
ATOM      5  C   UNL     1      70.898 220.429 341.055  0.00  0.00    +0.000 C 
ATOM      6  C   UNL     1      71.714 221.550 340.799  0.00  0.00    +0.000 C 
ATOM      7  C   UNL     1      70.758 222.520 338.783  0.00  0.00    +0.000 C 
ATOM      8  C   UNL     1      73.163 222.953 339.371  0.00  0.00    +0.000 C 
ATOM      9  C   UNL     1      70.895 219.563 342.284  0.00  0.00    +0.000 C 
ATOM     10  C   UNL     1      69.848 220.297 340.068  0.00  0.00    +0.000 C 
ATOM     11  C   UNL     1      69.620 221.432 339.073  0.00  0.00    +0.000 C 
ATOM     12  C   UNL     1      71.298 222.249 337.376  0.00  0.00    +0.000 C 
ATOM     13  C   UNL     1      70.184 218.233 342.090  0.00  0.00    +0.000 A 
ATOM     14  C   UNL     1      73.621 222.187 338.179  0.00  0.00    +0.000 C 
ATOM     15  C   UNL     1      69.062 219.205 340.047  0.00  0.00    +0.000 C 
ATOM     16  C   UNL     1      72.608 222.069 337.083  0.00  0.00    +0.000 C 
ATOM     17  C   UNL     1      69.312 218.056 340.972  0.00  0.00    +0.000 A 
ATOM     18  C   UNL     1      70.278 220.372 343.444  0.00  0.00    +0.000 C 
ATOM     19  C   UNL     1      70.351 217.155 342.992  0.00  0.00    +0.000 A 
ATOM     20  C   UNL     1      68.717 216.790 340.781  0.00  0.00    +0.000 A 
ATOM     21  C   UNL     1      69.718 215.932 342.787  0.00  0.00    +0.000 A 
ATOM     22  C   UNL     1      68.916 215.743 341.678  0.00  0.00    +0.000 A 
ENDROOT
BRANCH  16  23
ATOM     23  C   UNL     1      73.103 221.858 335.693  0.00  0.00    +0.000 C 
ATOM     24  O   UNL     1      72.879 222.659 334.795  0.00  0.00    +0.000 OA
ATOM     25  N   UNL     1      73.807 220.719 335.454  0.00  0.00    +0.000 N 
ATOM     26  H   UNL     1      73.751 219.940 336.102  0.00  0.00    +0.000 HD
ATOM     27  H   UNL     1      74.039 220.519 334.491  0.00  0.00    +0.000 HD
ENDBRANCH  16  23
BRANCH   8  28
ATOM     28  N   UNL     1      73.690 224.272 339.602  0.00  0.00    +0.000 NA
ATOM     29  C   UNL     1      74.711 224.330 340.639  0.00  0.00    +0.000 C 
ATOM     30  C   UNL     1      74.223 224.906 338.414  0.00  0.00    +0.000 C 
ENDBRANCH   8  28
BRANCH  12  31
ATOM     31  O   UNL     1      70.340 222.272 336.358  0.00  0.00    +0.000 OA
ATOM     32  H   UNL     1      70.064 221.345 336.172  0.00  0.00    +0.000 HD
ENDBRANCH  12  31
BRANCH   7  33
ATOM     33  O   UNL     1      70.163 223.816 338.698  0.00  0.00    +0.000 OA
ATOM     34  H   UNL     1      70.879 224.475 338.631  0.00  0.00    +0.000 HD
ENDBRANCH   7  33
BRANCH  15  35
ATOM     35  O   UNL     1      67.979 219.075 339.204  0.00  0.00    +0.000 OA
ATOM     36  H   UNL     1      68.217 218.532 338.423  0.00  0.00    +0.000 HD
ENDBRANCH  15  35
BRANCH   9  37
ATOM     37  O   UNL     1      72.253 219.356 342.618  0.00  0.00    +0.000 OA
ATOM     38  H   UNL     1      72.662 219.317 341.734  0.00  0.00    +0.000 HD
ENDBRANCH   9  37
BRANCH  20  39
ATOM     39  O   UNL     1      67.953 216.517 339.679  0.00  0.00    +0.000 OA
ATOM     40  H   UNL     1      68.532 216.291 338.931  0.00  0.00    +0.000 HD
ENDBRANCH  20  39
TORSDOF 7
ENDMDL
MODEL 5
REMARK VINA RESULT:      -5.4     29.522     31.758
REMARK  Name = Chlortetracycline.pdbqt.pdb
REMARK  7 active torsions:
REMARK  status: ('A' for Active; 'I' for Inactive)
REMARK    1  A    between atoms: C_7  and  O_30
REMARK    2  A    between atoms: C_8  and  N_32
REMARK    3  A    between atoms: C_9  and  O_37
REMARK    4  A    between atoms: C_12  and  O_28
REMARK    5  A    between atoms: C_15  and  O_35
REMARK    6  A    between atoms: C_16  and  C_23
REMARK    7  A    between atoms: C_20  and  O_39
REMARK                            x       y       z     vdW  Elec       q    Type
REMARK                         _______ _______ _______ _____ _____    ______ ____
ROOT
ATOM      1 CL   UNL     1      73.809 224.235 340.410  0.00  0.00    +0.000 Cl
ATOM      2  O   UNL     1      71.475 219.465 334.656  0.00  0.00    +0.000 OA
ATOM      3  O   UNL     1      66.532 220.889 338.050  0.00  0.00    +0.000 OA
ATOM      4  C   UNL     1      69.542 219.228 337.839  0.00  0.00    +0.000 C 
ATOM      5  C   UNL     1      71.436 221.062 337.945  0.00  0.00    +0.000 C 
ATOM      6  C   UNL     1      70.430 220.179 338.384  0.00  0.00    +0.000 C 
ATOM      7  C   UNL     1      69.747 219.017 336.358  0.00  0.00    +0.000 C 
ATOM      8  C   UNL     1      68.167 219.187 338.306  0.00  0.00    +0.000 C 
ATOM      9  C   UNL     1      72.358 221.891 338.796  0.00  0.00    +0.000 C 
ATOM     10  C   UNL     1      71.671 220.938 336.522  0.00  0.00    +0.000 C 
ATOM     11  C   UNL     1      71.016 219.790 335.760  0.00  0.00    +0.000 C 
ATOM     12  C   UNL     1      68.531 219.424 335.518  0.00  0.00    +0.000 C 
ATOM     13  C   UNL     1      73.054 223.007 338.031  0.00  0.00    +0.000 A 
ATOM     14  C   UNL     1      67.245 220.051 337.517  0.00  0.00    +0.000 C 
ATOM     15  C   UNL     1      72.482 221.803 335.886  0.00  0.00    +0.000 C 
ATOM     16  C   UNL     1      67.383 219.923 336.032  0.00  0.00    +0.000 C 
ATOM     17  C   UNL     1      73.081 222.971 336.603  0.00  0.00    +0.000 A 
ATOM     18  C   UNL     1      73.374 220.946 339.470  0.00  0.00    +0.000 C 
ATOM     19  C   UNL     1      73.689 224.085 338.692  0.00  0.00    +0.000 A 
ATOM     20  C   UNL     1      73.677 224.053 335.918  0.00  0.00    +0.000 A 
ATOM     21  C   UNL     1      74.295 225.116 337.979  0.00  0.00    +0.000 A 
ATOM     22  C   UNL     1      74.277 225.110 336.597  0.00  0.00    +0.000 A 
ENDROOT
BRANCH  16  23
ATOM     23  C   UNL     1      66.200 220.260 335.189  0.00  0.00    +0.000 C 
ATOM     24  O   UNL     1      65.060 219.963 335.520  0.00  0.00    +0.000 OA
ATOM     25  N   UNL     1      66.441 220.904 334.015  0.00  0.00    +0.000 N 
ATOM     26  H   UNL     1      67.373 220.896 333.612  0.00  0.00    +0.000 HD
ATOM     27  H   UNL     1      65.655 221.025 333.391  0.00  0.00    +0.000 HD
ENDBRANCH  16  23
BRANCH   8  28
ATOM     28  N   UNL     1      67.637 218.037 338.989  0.00  0.00    +0.000 NA
ATOM     29  C   UNL     1      66.667 217.280 338.212  0.00  0.00    +0.000 C 
ATOM     30  C   UNL     1      68.652 217.115 339.458  0.00  0.00    +0.000 C 
ENDBRANCH   8  28
BRANCH  12  31
ATOM     31  O   UNL     1      68.646 219.173 334.148  0.00  0.00    +0.000 OA
ATOM     32  H   UNL     1      68.706 218.200 334.015  0.00  0.00    +0.000 HD
ENDBRANCH  12  31
BRANCH   7  33
ATOM     33  O   UNL     1      69.893 217.616 336.125  0.00  0.00    +0.000 OA
ATOM     34  H   UNL     1      69.597 217.427 335.216  0.00  0.00    +0.000 HD
ENDBRANCH   7  33
BRANCH  15  35
ATOM     35  O   UNL     1      72.830 221.668 334.558  0.00  0.00    +0.000 OA
ATOM     36  H   UNL     1      72.154 222.086 333.984  0.00  0.00    +0.000 HD
ENDBRANCH  15  35
BRANCH   9  37
ATOM     37  O   UNL     1      71.558 222.424 339.832  0.00  0.00    +0.000 OA
ATOM     38  H   UNL     1      71.718 221.779 340.546  0.00  0.00    +0.000 HD
ENDBRANCH   9  37
BRANCH  20  39
ATOM     39  O   UNL     1      73.650 224.137 334.552  0.00  0.00    +0.000 OA
ATOM     40  H   UNL     1      72.829 223.736 334.219  0.00  0.00    +0.000 HD
ENDBRANCH  20  39
TORSDOF 7
ENDMDL
MODEL 6
REMARK VINA RESULT:      -5.3     23.962     26.356
REMARK  Name = Chlortetracycline.pdbqt.pdb
REMARK  7 active torsions:
REMARK  status: ('A' for Active; 'I' for Inactive)
REMARK    1  A    between atoms: C_7  and  O_30
REMARK    2  A    between atoms: C_8  and  N_32
REMARK    3  A    between atoms: C_9  and  O_37
REMARK    4  A    between atoms: C_12  and  O_28
REMARK    5  A    between atoms: C_15  and  O_35
REMARK    6  A    between atoms: C_16  and  C_23
REMARK    7  A    between atoms: C_20  and  O_39
REMARK                            x       y       z     vdW  Elec       q    Type
REMARK                         _______ _______ _______ _____ _____    ______ ____
ROOT
ATOM      1 CL   UNL     1      66.464 242.547 341.349  0.00  0.00    +0.000 Cl
ATOM      2  O   UNL     1      67.159 236.305 336.673  0.00  0.00    +0.000 OA
ATOM      3  O   UNL     1      71.712 240.220 335.285  0.00  0.00    +0.000 OA
ATOM      4  C   UNL     1      68.336 239.542 335.237  0.00  0.00    +0.000 C 
ATOM      5  C   UNL     1      67.469 239.796 337.716  0.00  0.00    +0.000 C 
ATOM      6  C   UNL     1      67.905 240.163 336.427  0.00  0.00    +0.000 C 
ATOM      7  C   UNL     1      68.259 238.035 335.301  0.00  0.00    +0.000 C 
ATOM      8  C   UNL     1      69.471 240.092 334.516  0.00  0.00    +0.000 C 
ATOM      9  C   UNL     1      66.912 240.697 338.783  0.00  0.00    +0.000 C 
ATOM     10  C   UNL     1      67.396 238.358 337.865  0.00  0.00    +0.000 C 
ATOM     11  C   UNL     1      67.563 237.476 336.631  0.00  0.00    +0.000 C 
ATOM     12  C   UNL     1      69.627 237.357 335.186  0.00  0.00    +0.000 C 
ATOM     13  C   UNL     1      66.900 240.066 340.167  0.00  0.00    +0.000 A 
ATOM     14  C   UNL     1      70.778 239.514 334.933  0.00  0.00    +0.000 C 
ATOM     15  C   UNL     1      67.153 237.807 339.069  0.00  0.00    +0.000 C 
ATOM     16  C   UNL     1      70.798 238.021 335.040  0.00  0.00    +0.000 C 
ATOM     17  C   UNL     1      67.050 238.652 340.299  0.00  0.00    +0.000 A 
ATOM     18  C   UNL     1      65.501 241.143 338.351  0.00  0.00    +0.000 C 
ATOM     19  C   UNL     1      66.734 240.839 341.341  0.00  0.00    +0.000 A 
ATOM     20  C   UNL     1      67.101 238.102 341.599  0.00  0.00    +0.000 A 
ATOM     21  C   UNL     1      66.755 240.253 342.604  0.00  0.00    +0.000 A 
ATOM     22  C   UNL     1      66.953 238.892 342.735  0.00  0.00    +0.000 A 
ENDROOT
BRANCH  16  23
ATOM     23  C   UNL     1      72.106 237.326 334.879  0.00  0.00    +0.000 C 
ATOM     24  O   UNL     1      72.421 236.365 335.567  0.00  0.00    +0.000 OA
ATOM     25  N   UNL     1      72.956 237.819 333.937  0.00  0.00    +0.000 N 
ATOM     26  H   UNL     1      72.826 238.758 333.576  0.00  0.00    +0.000 HD
ATOM     27  H   UNL     1      73.886 237.424 333.910  0.00  0.00    +0.000 HD
ENDBRANCH  16  23
BRANCH   8  28
ATOM     28  N   UNL     1      69.332 240.626 333.187  0.00  0.00    +0.000 NA
ATOM     29  C   UNL     1      67.953 240.732 332.732  0.00  0.00    +0.000 C 
ATOM     30  C   UNL     1      69.964 241.916 333.004  0.00  0.00    +0.000 C 
ENDBRANCH   8  28
BRANCH  12  31
ATOM     31  O   UNL     1      69.597 235.959 335.162  0.00  0.00    +0.000 OA
ATOM     32  H   UNL     1      69.178 235.673 334.318  0.00  0.00    +0.000 HD
ENDBRANCH  12  31
BRANCH   7  33
ATOM     33  O   UNL     1      67.532 237.579 334.159  0.00  0.00    +0.000 OA
ATOM     34  H   UNL     1      66.603 237.857 334.261  0.00  0.00    +0.000 HD
ENDBRANCH   7  33
BRANCH  15  35
ATOM     35  O   UNL     1      66.962 236.453 339.249  0.00  0.00    +0.000 OA
ATOM     36  H   UNL     1      67.762 235.956 338.976  0.00  0.00    +0.000 HD
ENDBRANCH  15  35
BRANCH   9  37
ATOM     37  O   UNL     1      67.720 241.857 338.774  0.00  0.00    +0.000 OA
ATOM     38  H   UNL     1      68.574 241.496 339.075  0.00  0.00    +0.000 HD
ENDBRANCH   9  37
BRANCH  20  39
ATOM     39  O   UNL     1      67.345 236.771 341.803  0.00  0.00    +0.000 OA
ATOM     40  H   UNL     1      68.282 236.643 342.028  0.00  0.00    +0.000 HD
ENDBRANCH  20  39
TORSDOF 7
ENDMDL
MODEL 7
REMARK VINA RESULT:      -5.2      8.796     11.022
REMARK  Name = Chlortetracycline.pdbqt.pdb
REMARK  7 active torsions:
REMARK  status: ('A' for Active; 'I' for Inactive)
REMARK    1  A    between atoms: C_7  and  O_30
REMARK    2  A    between atoms: C_8  and  N_32
REMARK    3  A    between atoms: C_9  and  O_37
REMARK    4  A    between atoms: C_12  and  O_28
REMARK    5  A    between atoms: C_15  and  O_35
REMARK    6  A    between atoms: C_16  and  C_23
REMARK    7  A    between atoms: C_20  and  O_39
REMARK                            x       y       z     vdW  Elec       q    Type
REMARK                         _______ _______ _______ _____ _____    ______ ____
ROOT
ATOM      1 CL   UNL     1      53.566 245.876 320.438  0.00  0.00    +0.000 Cl
ATOM      2  O   UNL     1      51.256 241.692 326.640  0.00  0.00    +0.000 OA
ATOM      3  O   UNL     1      50.262 247.642 327.900  0.00  0.00    +0.000 OA
ATOM      4  C   UNL     1      52.543 245.114 327.385  0.00  0.00    +0.000 C 
ATOM      5  C   UNL     1      52.527 244.585 324.800  0.00  0.00    +0.000 C 
ATOM      6  C   UNL     1      52.814 245.252 326.007  0.00  0.00    +0.000 C 
ATOM      7  C   UNL     1      51.779 243.853 327.708  0.00  0.00    +0.000 C 
ATOM      8  C   UNL     1      52.194 246.290 328.164  0.00  0.00    +0.000 C 
ATOM      9  C   UNL     1      53.085 244.884 323.436  0.00  0.00    +0.000 C 
ATOM     10  C   UNL     1      51.768 243.374 325.027  0.00  0.00    +0.000 C 
ATOM     11  C   UNL     1      51.580 242.874 326.456  0.00  0.00    +0.000 C 
ATOM     12  C   UNL     1      50.392 244.124 328.298  0.00  0.00    +0.000 C 
ATOM     13  C   UNL     1      52.298 244.246 322.302  0.00  0.00    +0.000 A 
ATOM     14  C   UNL     1      50.730 246.558 328.213  0.00  0.00    +0.000 C 
ATOM     15  C   UNL     1      51.263 242.679 323.990  0.00  0.00    +0.000 C 
ATOM     16  C   UNL     1      49.883 245.360 328.514  0.00  0.00    +0.000 C 
ATOM     17  C   UNL     1      51.384 243.187 322.588  0.00  0.00    +0.000 A 
ATOM     18  C   UNL     1      54.565 244.451 323.413  0.00  0.00    +0.000 C 
ATOM     19  C   UNL     1      52.448 244.663 320.958  0.00  0.00    +0.000 A 
ATOM     20  C   UNL     1      50.619 242.657 321.526  0.00  0.00    +0.000 A 
ATOM     21  C   UNL     1      51.699 244.092 319.933  0.00  0.00    +0.000 A 
ATOM     22  C   UNL     1      50.776 243.103 320.216  0.00  0.00    +0.000 A 
ENDROOT
BRANCH  16  23
ATOM     23  C   UNL     1      48.549 245.587 329.138  0.00  0.00    +0.000 C 
ATOM     24  O   UNL     1      47.546 244.998 328.759  0.00  0.00    +0.000 OA
ATOM     25  N   UNL     1      48.485 246.498 330.146  0.00  0.00    +0.000 N 
ATOM     26  H   UNL     1      49.229 247.177 330.267  0.00  0.00    +0.000 HD
ATOM     27  H   UNL     1      47.564 246.738 330.486  0.00  0.00    +0.000 HD
ENDBRANCH  16  23
BRANCH   8  28
ATOM     28  N   UNL     1      53.029 246.756 329.239  0.00  0.00    +0.000 NA
ATOM     29  C   UNL     1      53.868 247.893 328.888  0.00  0.00    +0.000 C 
ATOM     30  C   UNL     1      52.299 247.093 330.444  0.00  0.00    +0.000 C 
ENDBRANCH   8  28
BRANCH  12  31
ATOM     31  O   UNL     1      49.679 242.986 328.686  0.00  0.00    +0.000 OA
ATOM     32  H   UNL     1      50.303 242.363 329.123  0.00  0.00    +0.000 HD
ENDBRANCH  12  31
BRANCH   7  33
ATOM     33  O   UNL     1      52.482 243.161 328.742  0.00  0.00    +0.000 OA
ATOM     34  H   UNL     1      51.835 242.892 329.420  0.00  0.00    +0.000 HD
ENDBRANCH   7  33
BRANCH  15  35
ATOM     35  O   UNL     1      50.630 241.463 324.139  0.00  0.00    +0.000 OA
ATOM     36  H   UNL     1      51.062 240.937 324.845  0.00  0.00    +0.000 HD
ENDBRANCH  15  35
BRANCH   9  37
ATOM     37  O   UNL     1      53.079 246.293 323.314  0.00  0.00    +0.000 OA
ATOM     38  H   UNL     1      52.175 246.450 322.983  0.00  0.00    +0.000 HD
ENDBRANCH   9  37
BRANCH  20  39
ATOM     39  O   UNL     1      49.651 241.713 321.741  0.00  0.00    +0.000 OA
ATOM     40  H   UNL     1      49.389 241.318 320.892  0.00  0.00    +0.000 HD
ENDBRANCH  20  39
TORSDOF 7
ENDMDL
MODEL 8
REMARK VINA RESULT:      -5.2     23.447     26.265
REMARK  Name = Chlortetracycline.pdbqt.pdb
REMARK  7 active torsions:
REMARK  status: ('A' for Active; 'I' for Inactive)
REMARK    1  A    between atoms: C_7  and  O_30
REMARK    2  A    between atoms: C_8  and  N_32
REMARK    3  A    between atoms: C_9  and  O_37
REMARK    4  A    between atoms: C_12  and  O_28
REMARK    5  A    between atoms: C_15  and  O_35
REMARK    6  A    between atoms: C_16  and  C_23
REMARK    7  A    between atoms: C_20  and  O_39
REMARK                            x       y       z     vdW  Elec       q    Type
REMARK                         _______ _______ _______ _____ _____    ______ ____
ROOT
ATOM      1 CL   UNL     1      64.060 245.410 342.056  0.00  0.00    +0.000 Cl
ATOM      2  O   UNL     1      65.742 238.099 339.813  0.00  0.00    +0.000 OA
ATOM      3  O   UNL     1      69.010 241.955 336.287  0.00  0.00    +0.000 OA
ATOM      4  C   UNL     1      65.921 240.694 337.138  0.00  0.00    +0.000 C 
ATOM      5  C   UNL     1      65.300 241.715 339.491  0.00  0.00    +0.000 C 
ATOM      6  C   UNL     1      65.485 241.633 338.096  0.00  0.00    +0.000 C 
ATOM      7  C   UNL     1      66.224 239.342 337.738  0.00  0.00    +0.000 C 
ATOM      8  C   UNL     1      66.797 241.127 336.063  0.00  0.00    +0.000 C 
ATOM      9  C   UNL     1      64.661 242.835 340.263  0.00  0.00    +0.000 C 
ATOM     10  C   UNL     1      65.599 240.458 340.143  0.00  0.00    +0.000 C 
ATOM     11  C   UNL     1      65.839 239.217 339.288  0.00  0.00    +0.000 C 
ATOM     12  C   UNL     1      67.695 238.939 337.601  0.00  0.00    +0.000 C 
ATOM     13  C   UNL     1      64.958 242.794 341.754  0.00  0.00    +0.000 A 
ATOM     14  C   UNL     1      68.245 241.008 336.393  0.00  0.00    +0.000 C 
ATOM     15  C   UNL     1      65.634 240.376 341.486  0.00  0.00    +0.000 C 
ATOM     16  C   UNL     1      68.643 239.702 337.008  0.00  0.00    +0.000 C 
ATOM     17  C   UNL     1      65.465 241.594 342.339  0.00  0.00    +0.000 A 
ATOM     18  C   UNL     1      63.144 242.810 339.986  0.00  0.00    +0.000 C 
ATOM     19  C   UNL     1      64.739 243.913 342.593  0.00  0.00    +0.000 A 
ATOM     20  C   UNL     1      65.793 241.605 343.712  0.00  0.00    +0.000 A 
ATOM     21  C   UNL     1      65.044 243.872 343.950  0.00  0.00    +0.000 A 
ATOM     22  C   UNL     1      65.583 242.728 344.507  0.00  0.00    +0.000 A 
ENDROOT
BRANCH  16  23
ATOM     23  C   UNL     1      70.056 239.256 336.847  0.00  0.00    +0.000 C 
ATOM     24  O   UNL     1      70.649 238.646 337.727  0.00  0.00    +0.000 OA
ATOM     25  N   UNL     1      70.674 239.571 335.677  0.00  0.00    +0.000 N 
ATOM     26  H   UNL     1      70.296 240.300 335.082  0.00  0.00    +0.000 HD
ATOM     27  H   UNL     1      71.664 239.374 335.617  0.00  0.00    +0.000 HD
ENDBRANCH  16  23
BRANCH   8  28
ATOM     28  N   UNL     1      66.384 241.073 334.686  0.00  0.00    +0.000 NA
ATOM     29  C   UNL     1      66.136 242.377 334.090  0.00  0.00    +0.000 C 
ATOM     30  C   UNL     1      67.303 240.355 333.827  0.00  0.00    +0.000 C 
ENDBRANCH   8  28
BRANCH  12  31
ATOM     31  O   UNL     1      68.007 237.661 338.073  0.00  0.00    +0.000 OA
ATOM     32  H   UNL     1      68.141 237.714 339.047  0.00  0.00    +0.000 HD
ENDBRANCH  12  31
BRANCH   7  33
ATOM     33  O   UNL     1      65.509 238.355 336.992  0.00  0.00    +0.000 OA
ATOM     34  H   UNL     1      64.994 238.812 336.301  0.00  0.00    +0.000 HD
ENDBRANCH   7  33
BRANCH  15  35
ATOM     35  O   UNL     1      65.804 239.186 342.162  0.00  0.00    +0.000 OA
ATOM     36  H   UNL     1      65.208 238.498 341.797  0.00  0.00    +0.000 HD
ENDBRANCH  15  35
BRANCH   9  37
ATOM     37  O   UNL     1      65.152 244.031 339.692  0.00  0.00    +0.000 OA
ATOM     38  H   UNL     1      65.290 243.757 338.766  0.00  0.00    +0.000 HD
ENDBRANCH   9  37
BRANCH  20  39
ATOM     39  O   UNL     1      66.378 240.525 344.317  0.00  0.00    +0.000 OA
ATOM     40  H   UNL     1      66.948 240.830 345.044  0.00  0.00    +0.000 HD
ENDBRANCH  20  39
TORSDOF 7
ENDMDL
MODEL 9
REMARK VINA RESULT:      -5.2     12.081     16.906
REMARK  Name = Chlortetracycline.pdbqt.pdb
REMARK  7 active torsions:
REMARK  status: ('A' for Active; 'I' for Inactive)
REMARK    1  A    between atoms: C_7  and  O_30
REMARK    2  A    between atoms: C_8  and  N_32
REMARK    3  A    between atoms: C_9  and  O_37
REMARK    4  A    between atoms: C_12  and  O_28
REMARK    5  A    between atoms: C_15  and  O_35
REMARK    6  A    between atoms: C_16  and  C_23
REMARK    7  A    between atoms: C_20  and  O_39
REMARK                            x       y       z     vdW  Elec       q    Type
REMARK                         _______ _______ _______ _____ _____    ______ ____
ROOT
ATOM      1 CL   UNL     1      53.758 247.873 337.376  0.00  0.00    +0.000 Cl
ATOM      2  O   UNL     1      46.342 247.581 334.881  0.00  0.00    +0.000 OA
ATOM      3  O   UNL     1      49.452 243.050 332.093  0.00  0.00    +0.000 OA
ATOM      4  C   UNL     1      48.918 246.434 332.437  0.00  0.00    +0.000 C 
ATOM      5  C   UNL     1      49.970 247.143 334.751  0.00  0.00    +0.000 C 
ATOM      6  C   UNL     1      49.897 246.781 333.391  0.00  0.00    +0.000 C 
ATOM      7  C   UNL     1      47.512 246.536 332.978  0.00  0.00    +0.000 C 
ATOM      8  C   UNL     1      49.172 245.336 331.521  0.00  0.00    +0.000 C 
ATOM      9  C   UNL     1      51.180 247.617 335.507  0.00  0.00    +0.000 C 
ATOM     10  C   UNL     1      48.656 247.234 335.350  0.00  0.00    +0.000 C 
ATOM     11  C   UNL     1      47.425 247.159 334.451  0.00  0.00    +0.000 C 
ATOM     12  C   UNL     1      46.782 245.189 333.011  0.00  0.00    +0.000 C 
ATOM     13  C   UNL     1      51.018 247.557 337.018  0.00  0.00    +0.000 A 
ATOM     14  C   UNL     1      48.707 244.016 332.031  0.00  0.00    +0.000 C 
ATOM     15  C   UNL     1      48.520 247.414 336.677  0.00  0.00    +0.000 C 
ATOM     16  C   UNL     1      47.323 244.018 332.603  0.00  0.00    +0.000 C 
ATOM     17  C   UNL     1      49.712 247.425 337.581  0.00  0.00    +0.000 A 
ATOM     18  C   UNL     1      51.520 249.044 335.030  0.00  0.00    +0.000 C 
ATOM     19  C   UNL     1      52.126 247.636 337.894  0.00  0.00    +0.000 A 
ATOM     20  C   UNL     1      49.596 247.305 338.983  0.00  0.00    +0.000 A 
ATOM     21  C   UNL     1      51.966 247.549 339.275  0.00  0.00    +0.000 A 
ATOM     22  C   UNL     1      50.709 247.369 339.818  0.00  0.00    +0.000 A 
ENDROOT
BRANCH  16  23
ATOM     23  C   UNL     1      46.565 242.735 332.601  0.00  0.00    +0.000 C 
ATOM     24  O   UNL     1      46.252 242.166 331.563  0.00  0.00    +0.000 OA
ATOM     25  N   UNL     1      46.214 242.222 333.811  0.00  0.00    +0.000 N 
ATOM     26  H   UNL     1      46.218 242.814 334.635  0.00  0.00    +0.000 HD
ATOM     27  H   UNL     1      45.601 241.419 333.806  0.00  0.00    +0.000 HD
ENDBRANCH  16  23
BRANCH   8  28
ATOM     28  N   UNL     1      49.266 245.546 330.101  0.00  0.00    +0.000 NA
ATOM     29  C   UNL     1      48.145 245.004 329.346  0.00  0.00    +0.000 C 
ATOM     30  C   UNL     1      49.430 246.935 329.723  0.00  0.00    +0.000 C 
ENDBRANCH   8  28
BRANCH  12  31
ATOM     31  O   UNL     1      45.450 245.247 333.432  0.00  0.00    +0.000 OA
ATOM     32  H   UNL     1      44.894 244.784 332.763  0.00  0.00    +0.000 HD
ENDBRANCH  12  31
BRANCH   7  33
ATOM     33  O   UNL     1      46.747 247.339 332.078  0.00  0.00    +0.000 OA
ATOM     34  H   UNL     1      47.228 247.386 331.231  0.00  0.00    +0.000 HD
ENDBRANCH   7  33
BRANCH  15  35
ATOM     35  O   UNL     1      47.300 247.618 337.286  0.00  0.00    +0.000 OA
ATOM     36  H   UNL     1      47.358 248.355 337.929  0.00  0.00    +0.000 HD
ENDBRANCH  15  35
BRANCH   9  37
ATOM     37  O   UNL     1      52.249 246.790 335.089  0.00  0.00    +0.000 OA
ATOM     38  H   UNL     1      51.768 246.075 334.634  0.00  0.00    +0.000 HD
ENDBRANCH   9  37
BRANCH  20  39
ATOM     39  O   UNL     1      48.389 247.074 339.585  0.00  0.00    +0.000 OA
ATOM     40  H   UNL     1      48.184 247.805 340.193  0.00  0.00    +0.000 HD
ENDBRANCH  20  39
TORSDOF 7
ENDMDL
