MODEL 1
REMARK VINA RESULT:      -5.0      0.000      0.000
REMARK  Name = Ciclopirox.pdbqt.pdb
REMARK  2 active torsions:
REMARK  status: ('A' for Active; 'I' for Inactive)
REMARK    1  A    between atoms: N_2  and  O_15
REMARK    2  A    between atoms: C_3  and  C_9
REMARK                            x       y       z     vdW  Elec       q    Type
REMARK                         _______ _______ _______ _____ _____    ______ ____
ROOT
ATOM      1  O   UNL     1      64.899 219.272 336.277  0.00  0.00    +0.000 OA
ATOM      2  N   UNL     1      66.797 220.090 337.378  0.00  0.00    +0.000 N 
ATOM      3  C   UNL     1      68.086 220.634 337.282  0.00  0.00    +0.000 C 
ATOM      4  C   UNL     1      68.470 220.727 336.034  0.00  0.00    +0.000 C 
ATOM      5  C   UNL     1      67.942 220.407 334.749  0.00  0.00    +0.000 C 
ATOM      6  C   UNL     1      66.041 219.709 336.255  0.00  0.00    +0.000 C 
ATOM      7  C   UNL     1      66.767 219.925 335.025  0.00  0.00    +0.000 C 
ATOM      8  C   UNL     1      68.810 219.779 333.710  0.00  0.00    +0.000 C 
ENDROOT
BRANCH   3   9
ATOM      9  C   UNL     1      68.885 221.054 338.396  0.00  0.00    +0.000 A 
ATOM     10  C   UNL     1      69.372 222.403 338.575  0.00  0.00    +0.000 A 
ATOM     11  C   UNL     1      70.431 222.967 339.550  0.00  0.00    +0.000 A 
ATOM     12  C   UNL     1      71.090 221.950 340.500  0.00  0.00    +0.000 A 
ATOM     13  C   UNL     1      70.636 220.483 340.389  0.00  0.00    +0.000 A 
ATOM     14  C   UNL     1      69.556 220.181 339.326  0.00  0.00    +0.000 A 
ENDBRANCH   3   9
BRANCH   2  15
ATOM     15  O   UNL     1      66.186 220.000 338.643  0.00  0.00    +0.000 OA
ATOM     16  H   UNL     1      66.900 219.625 339.199  0.00  0.00    +0.000 HD
ENDBRANCH   2  15
TORSDOF 2
ENDMDL
MODEL 2
REMARK VINA RESULT:      -4.2      3.994      7.197
REMARK  Name = Ciclopirox.pdbqt.pdb
REMARK  2 active torsions:
REMARK  status: ('A' for Active; 'I' for Inactive)
REMARK    1  A    between atoms: N_2  and  O_15
REMARK    2  A    between atoms: C_3  and  C_9
REMARK                            x       y       z     vdW  Elec       q    Type
REMARK                         _______ _______ _______ _____ _____    ______ ____
ROOT
ATOM      1  O   UNL     1      72.392 219.713 344.629  0.00  0.00    +0.000 OA
ATOM      2  N   UNL     1      71.521 220.627 342.656  0.00  0.00    +0.000 N 
ATOM      3  C   UNL     1      71.754 221.335 341.469  0.00  0.00    +0.000 C 
ATOM      4  C   UNL     1      73.007 221.706 341.376  0.00  0.00    +0.000 C 
ATOM      5  C   UNL     1      74.191 221.602 342.163  0.00  0.00    +0.000 C 
ATOM      6  C   UNL     1      72.529 220.362 343.601  0.00  0.00    +0.000 C 
ATOM      7  C   UNL     1      73.795 220.930 343.202  0.00  0.00    +0.000 C 
ATOM      8  C   UNL     1      75.111 222.769 342.302  0.00  0.00    +0.000 C 
ENDROOT
BRANCH   3   9
ATOM      9  C   UNL     1      70.765 221.610 340.468  0.00  0.00    +0.000 A 
ATOM     10  C   UNL     1      70.094 220.590 339.696  0.00  0.00    +0.000 A 
ATOM     11  C   UNL     1      69.212 220.705 338.431  0.00  0.00    +0.000 A 
ATOM     12  C   UNL     1      68.993 222.128 337.883  0.00  0.00    +0.000 A 
ATOM     13  C   UNL     1      69.667 223.288 338.639  0.00  0.00    +0.000 A 
ATOM     14  C   UNL     1      70.500 222.900 339.881  0.00  0.00    +0.000 A 
ENDBRANCH   3   9
BRANCH   2  15
ATOM     15  O   UNL     1      70.247 220.071 342.881  0.00  0.00    +0.000 OA
ATOM     16  H   UNL     1      70.098 220.258 343.831  0.00  0.00    +0.000 HD
ENDBRANCH   2  15
TORSDOF 2
ENDMDL
MODEL 3
REMARK VINA RESULT:      -4.0     22.168     23.267
REMARK  Name = Ciclopirox.pdbqt.pdb
REMARK  2 active torsions:
REMARK  status: ('A' for Active; 'I' for Inactive)
REMARK    1  A    between atoms: N_2  and  O_15
REMARK    2  A    between atoms: C_3  and  C_9
REMARK                            x       y       z     vdW  Elec       q    Type
REMARK                         _______ _______ _______ _____ _____    ______ ____
ROOT
ATOM      1  O   UNL     1      54.338 229.235 353.637  0.00  0.00    +0.000 OA
ATOM      2  N   UNL     1      52.920 227.446 353.114  0.00  0.00    +0.000 N 
ATOM      3  C   UNL     1      52.765 226.064 352.937  0.00  0.00    +0.000 C 
ATOM      4  C   UNL     1      53.903 225.435 353.097  0.00  0.00    +0.000 C 
ATOM      5  C   UNL     1      55.257 225.775 353.382  0.00  0.00    +0.000 C 
ATOM      6  C   UNL     1      54.154 228.044 353.428  0.00  0.00    +0.000 C 
ATOM      7  C   UNL     1      55.214 227.067 353.514  0.00  0.00    +0.000 C 
ATOM      8  C   UNL     1      56.375 225.110 352.650  0.00  0.00    +0.000 C 
ENDROOT
BRANCH   3   9
ATOM      9  C   UNL     1      51.526 225.407 352.636  0.00  0.00    +0.000 A 
ATOM     10  C   UNL     1      50.958 225.326 351.310  0.00  0.00    +0.000 A 
ATOM     11  C   UNL     1      49.548 224.895 350.846  0.00  0.00    +0.000 A 
ATOM     12  C   UNL     1      48.566 224.478 351.957  0.00  0.00    +0.000 A 
ATOM     13  C   UNL     1      49.078 224.528 353.408  0.00  0.00    +0.000 A 
ATOM     14  C   UNL     1      50.537 224.996 353.601  0.00  0.00    +0.000 A 
ENDBRANCH   3   9
BRANCH   2  15
ATOM     15  O   UNL     1      51.781 228.273 353.068  0.00  0.00    +0.000 OA
ATOM     16  H   UNL     1      51.283 227.906 352.309  0.00  0.00    +0.000 HD
ENDBRANCH   2  15
TORSDOF 2
ENDMDL
MODEL 4
REMARK VINA RESULT:      -3.8     30.491     31.409
REMARK  Name = Ciclopirox.pdbqt.pdb
REMARK  2 active torsions:
REMARK  status: ('A' for Active; 'I' for Inactive)
REMARK    1  A    between atoms: N_2  and  O_15
REMARK    2  A    between atoms: C_3  and  C_9
REMARK                            x       y       z     vdW  Elec       q    Type
REMARK                         _______ _______ _______ _____ _____    ______ ____
ROOT
ATOM      1  O   UNL     1      39.357 235.772 329.859  0.00  0.00    +0.000 OA
ATOM      2  N   UNL     1      40.176 235.945 332.046  0.00  0.00    +0.000 N 
ATOM      3  C   UNL     1      40.981 235.408 333.061  0.00  0.00    +0.000 C 
ATOM      4  C   UNL     1      41.531 234.281 332.684  0.00  0.00    +0.000 C 
ATOM      5  C   UNL     1      41.519 233.444 331.530  0.00  0.00    +0.000 C 
ATOM      6  C   UNL     1      40.009 235.327 330.794  0.00  0.00    +0.000 C 
ATOM      7  C   UNL     1      40.740 234.085 330.711  0.00  0.00    +0.000 C 
ATOM      8  C   UNL     1      41.437 231.961 331.674  0.00  0.00    +0.000 C 
ENDROOT
BRANCH   3   9
ATOM      9  C   UNL     1      41.197 236.011 334.344  0.00  0.00    +0.000 A 
ATOM     10  C   UNL     1      42.468 236.537 334.784  0.00  0.00    +0.000 A 
ATOM     11  C   UNL     1      42.941 236.978 336.188  0.00  0.00    +0.000 A 
ATOM     12  C   UNL     1      41.909 236.849 337.324  0.00  0.00    +0.000 A 
ATOM     13  C   UNL     1      40.519 236.299 336.957  0.00  0.00    +0.000 A 
ATOM     14  C   UNL     1      40.302 235.931 335.472  0.00  0.00    +0.000 A 
ENDBRANCH   3   9
BRANCH   2  15
ATOM     15  O   UNL     1      39.575 237.203 332.244  0.00  0.00    +0.000 OA
ATOM     16  H   UNL     1      38.778 237.149 331.678  0.00  0.00    +0.000 HD
ENDBRANCH   2  15
TORSDOF 2
ENDMDL
MODEL 5
REMARK VINA RESULT:      -3.5     23.796     25.225
REMARK  Name = Ciclopirox.pdbqt.pdb
REMARK  2 active torsions:
REMARK  status: ('A' for Active; 'I' for Inactive)
REMARK    1  A    between atoms: N_2  and  O_15
REMARK    2  A    between atoms: C_3  and  C_9
REMARK                            x       y       z     vdW  Elec       q    Type
REMARK                         _______ _______ _______ _____ _____    ______ ____
ROOT
ATOM      1  O   UNL     1      47.245 226.564 341.619  0.00  0.00    +0.000 OA
ATOM      2  N   UNL     1      46.422 227.136 343.736  0.00  0.00    +0.000 N 
ATOM      3  C   UNL     1      45.317 227.259 344.589  0.00  0.00    +0.000 C 
ATOM      4  C   UNL     1      44.204 226.956 343.968  0.00  0.00    +0.000 C 
ATOM      5  C   UNL     1      43.810 226.555 342.658  0.00  0.00    +0.000 C 
ATOM      6  C   UNL     1      46.314 226.731 342.393  0.00  0.00    +0.000 C 
ATOM      7  C   UNL     1      44.939 226.493 342.018  0.00  0.00    +0.000 C 
ATOM      8  C   UNL     1      42.593 227.139 342.022  0.00  0.00    +0.000 C 
ENDROOT
BRANCH   3   9
ATOM      9  C   UNL     1      45.381 227.648 345.967  0.00  0.00    +0.000 A 
ATOM     10  C   UNL     1      45.209 226.733 347.072  0.00  0.00    +0.000 A 
ATOM     11  C   UNL     1      44.995 227.006 348.579  0.00  0.00    +0.000 A 
ATOM     12  C   UNL     1      44.957 228.487 349.002  0.00  0.00    +0.000 A 
ATOM     13  C   UNL     1      45.135 229.543 347.895  0.00  0.00    +0.000 A 
ATOM     14  C   UNL     1      45.334 229.001 346.462  0.00  0.00    +0.000 A 
ENDBRANCH   3   9
BRANCH   2  15
ATOM     15  O   UNL     1      47.715 227.335 344.259  0.00  0.00    +0.000 OA
ATOM     16  H   UNL     1      48.245 227.511 343.455  0.00  0.00    +0.000 HD
ENDBRANCH   2  15
TORSDOF 2
ENDMDL
MODEL 6
REMARK VINA RESULT:      -3.5     24.793     25.737
REMARK  Name = Ciclopirox.pdbqt.pdb
REMARK  2 active torsions:
REMARK  status: ('A' for Active; 'I' for Inactive)
REMARK    1  A    between atoms: N_2  and  O_15
REMARK    2  A    between atoms: C_3  and  C_9
REMARK                            x       y       z     vdW  Elec       q    Type
REMARK                         _______ _______ _______ _____ _____    ______ ____
ROOT
ATOM      1  O   UNL     1      66.185 245.296 325.934  0.00  0.00    +0.000 OA
ATOM      2  N   UNL     1      66.089 244.769 328.214  0.00  0.00    +0.000 N 
ATOM      3  C   UNL     1      66.478 245.080 329.524  0.00  0.00    +0.000 C 
ATOM      4  C   UNL     1      67.287 246.109 329.546  0.00  0.00    +0.000 C 
ATOM      5  C   UNL     1      67.894 246.986 328.599  0.00  0.00    +0.000 C 
ATOM      6  C   UNL     1      66.526 245.494 327.091  0.00  0.00    +0.000 C 
ATOM      7  C   UNL     1      67.429 246.558 327.464  0.00  0.00    +0.000 C 
ATOM      8  C   UNL     1      69.324 247.386 328.748  0.00  0.00    +0.000 C 
ENDROOT
BRANCH   3   9
ATOM      9  C   UNL     1      66.043 244.383 330.699  0.00  0.00    +0.000 A 
ATOM     10  C   UNL     1      66.751 243.267 331.283  0.00  0.00    +0.000 A 
ATOM     11  C   UNL     1      66.312 242.255 332.366  0.00  0.00    +0.000 A 
ATOM     12  C   UNL     1      64.894 242.443 332.937  0.00  0.00    +0.000 A 
ATOM     13  C   UNL     1      64.057 243.609 332.380  0.00  0.00    +0.000 A 
ATOM     14  C   UNL     1      64.734 244.478 331.296  0.00  0.00    +0.000 A 
ENDBRANCH   3   9
BRANCH   2  15
ATOM     15  O   UNL     1      65.146 243.743 328.006  0.00  0.00    +0.000 OA
ATOM     16  H   UNL     1      64.296 244.198 328.179  0.00  0.00    +0.000 HD
ENDBRANCH   2  15
TORSDOF 2
ENDMDL
MODEL 7
REMARK VINA RESULT:      -3.4     12.844     16.091
REMARK  Name = Ciclopirox.pdbqt.pdb
REMARK  2 active torsions:
REMARK  status: ('A' for Active; 'I' for Inactive)
REMARK    1  A    between atoms: N_2  and  O_15
REMARK    2  A    between atoms: C_3  and  C_9
REMARK                            x       y       z     vdW  Elec       q    Type
REMARK                         _______ _______ _______ _____ _____    ______ ____
ROOT
ATOM      1  O   UNL     1      54.588 219.089 333.210  0.00  0.00    +0.000 OA
ATOM      2  N   UNL     1      54.784 218.781 330.897  0.00  0.00    +0.000 N 
ATOM      3  C   UNL     1      55.427 218.131 329.834  0.00  0.00    +0.000 C 
ATOM      4  C   UNL     1      56.381 217.344 330.267  0.00  0.00    +0.000 C 
ATOM      5  C   UNL     1      56.955 216.985 331.521  0.00  0.00    +0.000 C 
ATOM      6  C   UNL     1      55.141 218.585 332.243  0.00  0.00    +0.000 C 
ATOM      7  C   UNL     1      56.249 217.667 332.373  0.00  0.00    +0.000 C 
ATOM      8  C   UNL     1      58.435 216.862 331.668  0.00  0.00    +0.000 C 
ENDROOT
BRANCH   3   9
ATOM      9  C   UNL     1      55.085 218.283 328.450  0.00  0.00    +0.000 A 
ATOM     10  C   UNL     1      54.405 217.274 327.672  0.00  0.00    +0.000 A 
ATOM     11  C   UNL     1      54.187 217.159 326.145  0.00  0.00    +0.000 A 
ATOM     12  C   UNL     1      54.781 218.293 325.288  0.00  0.00    +0.000 A 
ATOM     13  C   UNL     1      55.526 219.421 326.025  0.00  0.00    +0.000 A 
ATOM     14  C   UNL     1      55.601 219.296 327.564  0.00  0.00    +0.000 A 
ENDBRANCH   3   9
BRANCH   2  15
ATOM     15  O   UNL     1      53.671 219.599 330.625  0.00  0.00    +0.000 OA
ATOM     16  H   UNL     1      53.510 220.033 331.487  0.00  0.00    +0.000 HD
ENDBRANCH   2  15
TORSDOF 2
ENDMDL
MODEL 8
REMARK VINA RESULT:      -3.4     20.219     21.639
REMARK  Name = Ciclopirox.pdbqt.pdb
REMARK  2 active torsions:
REMARK  status: ('A' for Active; 'I' for Inactive)
REMARK    1  A    between atoms: N_2  and  O_15
REMARK    2  A    between atoms: C_3  and  C_9
REMARK                            x       y       z     vdW  Elec       q    Type
REMARK                         _______ _______ _______ _____ _____    ______ ____
ROOT
ATOM      1  O   UNL     1      55.298 232.263 353.279  0.00  0.00    +0.000 OA
ATOM      2  N   UNL     1      56.454 230.232 353.422  0.00  0.00    +0.000 N 
ATOM      3  C   UNL     1      57.645 229.560 353.729  0.00  0.00    +0.000 C 
ATOM      4  C   UNL     1      58.588 230.402 354.073  0.00  0.00    +0.000 C 
ATOM      5  C   UNL     1      58.737 231.813 354.201  0.00  0.00    +0.000 C 
ATOM      6  C   UNL     1      56.322 231.630 353.491  0.00  0.00    +0.000 C 
ATOM      7  C   UNL     1      57.559 232.263 353.885  0.00  0.00    +0.000 C 
ATOM      8  C   UNL     1      59.977 232.490 353.719  0.00  0.00    +0.000 C 
ENDROOT
BRANCH   3   9
ATOM      9  C   UNL     1      57.820 228.138 353.693  0.00  0.00    +0.000 A 
ATOM     10  C   UNL     1      57.450 227.252 354.772  0.00  0.00    +0.000 A 
ATOM     11  C   UNL     1      57.789 225.762 355.011  0.00  0.00    +0.000 A 
ATOM     12  C   UNL     1      58.661 225.084 353.938  0.00  0.00    +0.000 A 
ATOM     13  C   UNL     1      59.108 225.945 352.743  0.00  0.00    +0.000 A 
ATOM     14  C   UNL     1      58.629 227.414 352.744  0.00  0.00    +0.000 A 
ENDBRANCH   3   9
BRANCH   2  15
ATOM     15  O   UNL     1      55.304 229.478 353.118  0.00  0.00    +0.000 OA
ATOM     16  H   UNL     1      54.618 230.169 353.013  0.00  0.00    +0.000 HD
ENDBRANCH   2  15
TORSDOF 2
ENDMDL
MODEL 9
REMARK VINA RESULT:      -3.4      8.472     10.676
REMARK  Name = Ciclopirox.pdbqt.pdb
REMARK  2 active torsions:
REMARK  status: ('A' for Active; 'I' for Inactive)
REMARK    1  A    between atoms: N_2  and  O_15
REMARK    2  A    between atoms: C_3  and  C_9
REMARK                            x       y       z     vdW  Elec       q    Type
REMARK                         _______ _______ _______ _____ _____    ______ ____
ROOT
ATOM      1  O   UNL     1      55.653 216.317 334.672  0.00  0.00    +0.000 OA
ATOM      2  N   UNL     1      57.894 216.833 334.228  0.00  0.00    +0.000 N 
ATOM      3  C   UNL     1      59.013 217.625 334.521  0.00  0.00    +0.000 C 
ATOM      4  C   UNL     1      58.732 218.523 335.432  0.00  0.00    +0.000 C 
ATOM      5  C   UNL     1      57.595 218.925 336.192  0.00  0.00    +0.000 C 
ATOM      6  C   UNL     1      56.647 217.005 334.855  0.00  0.00    +0.000 C 
ATOM      7  C   UNL     1      56.672 218.099 335.799  0.00  0.00    +0.000 C 
ATOM      8  C   UNL     1      57.298 220.373 336.400  0.00  0.00    +0.000 C 
ENDROOT
BRANCH   3   9
ATOM      9  C   UNL     1      60.307 217.474 333.922  0.00  0.00    +0.000 A 
ATOM     10  C   UNL     1      61.486 217.055 334.645  0.00  0.00    +0.000 A 
ATOM     11  C   UNL     1      62.977 217.082 334.238  0.00  0.00    +0.000 A 
ATOM     12  C   UNL     1      63.287 217.640 332.836  0.00  0.00    +0.000 A 
ATOM     13  C   UNL     1      62.095 218.112 331.983  0.00  0.00    +0.000 A 
ATOM     14  C   UNL     1      60.698 217.975 332.629  0.00  0.00    +0.000 A 
ENDBRANCH   3   9
BRANCH   2  15
ATOM     15  O   UNL     1      58.036 215.755 333.333  0.00  0.00    +0.000 OA
ATOM     16  H   UNL     1      58.250 216.205 332.490  0.00  0.00    +0.000 HD
ENDBRANCH   2  15
TORSDOF 2
ENDMDL
