MODEL 1
REMARK VINA RESULT:      -5.5      0.000      0.000
REMARK  Name = 
REMARK  5 active torsions:
REMARK  status: ('A' for Active; 'I' for Inactive)
REMARK    1  A    between atoms: O_5  and  C_10
REMARK    2  A    between atoms: N_9  and  C_20
REMARK    3  A    between atoms: N_9  and  C_25
REMARK    4  A    between atoms: C_10  and  C_11
REMARK    5  A    between atoms: C_18  and  C_19
REMARK                            x       y       z     vdW  Elec       q    Type
REMARK                         _______ _______ _______ _____ _____    ______ ____
ROOT
ATOM      1  F   UNL     1      59.701 225.724 327.540  0.00  0.00    +0.000 F 
ATOM      2  F   UNL     1      58.434 223.457 328.276  0.00  0.00    +0.000 F 
ATOM      3  C   UNL     1      62.417 223.315 327.287  0.00  0.00    +0.000 A 
ATOM      4  C   UNL     1      61.756 224.562 327.224  0.00  0.00    +0.000 A 
ATOM      5  C   UNL     1      61.754 222.142 327.686  0.00  0.00    +0.000 A 
ATOM      6  C   UNL     1      60.395 224.576 327.559  0.00  0.00    +0.000 A 
ATOM      7  C   UNL     1      60.404 222.195 328.020  0.00  0.00    +0.000 A 
ATOM      8  C   UNL     1      59.735 223.412 327.955  0.00  0.00    +0.000 A 
ENDROOT
BRANCH   3  14
ATOM      9  O   UNL     1      64.675 223.818 327.596  0.00  0.00    +0.000 OA
ATOM     10  N   UNL     1      64.143 222.535 325.760  0.00  0.00    +0.000 N 
ATOM     11  C   UNL     1      64.567 222.985 323.767  0.00  0.00    +0.000 C 
ATOM     12  C   UNL     1      63.344 222.419 324.542  0.00  0.00    +0.000 C 
ATOM     13  C   UNL     1      65.405 222.615 325.027  0.00  0.00    +0.000 C 
ATOM     14  C   UNL     1      63.845 223.232 326.909  0.00  0.00    +0.000 C 
BRANCH  11  16
ATOM     15  N   UNL     1      65.770 225.127 324.106  0.00  0.00    +0.000 NA
ATOM     16  C   UNL     1      64.573 224.510 323.479  0.00  0.00    +0.000 C 
ATOM     17  C   UNL     1      64.587 224.800 321.968  0.00  0.00    +0.000 C 
ATOM     18  C   UNL     1      64.619 226.306 321.700  0.00  0.00    +0.000 C 
ATOM     19  C   UNL     1      65.724 226.588 323.948  0.00  0.00    +0.000 C 
ATOM     20  C   UNL     1      65.746 226.982 322.473  0.00  0.00    +0.000 C 
ATOM     21  H   UNL     1      66.595 224.799 323.596  0.00  0.00    +0.000 HD
ENDBRANCH  11  16
BRANCH  11  22
ATOM     22  O   UNL     1      64.924 222.247 322.561  0.00  0.00    +0.000 OA
ATOM     23  H   UNL     1      64.858 221.316 322.846  0.00  0.00    +0.000 HD
ENDBRANCH  11  22
ENDBRANCH   3  14
BRANCH   4  24
ATOM     24  N   UNL     1      62.447 225.702 326.758  0.00  0.00    +0.000 N 
ATOM     25  H   UNL     1      63.326 225.881 327.257  0.00  0.00    +0.000 HD
BRANCH  24  28
ATOM     26  I   UNL     1      61.840 229.488 321.758  0.00  0.00    +0.000 I 
ATOM     27  F   UNL     1      63.446 228.252 326.722  0.00  0.00    +0.000 F 
ATOM     28  C   UNL     1      62.292 226.504 325.612  0.00  0.00    +0.000 A 
ATOM     29  C   UNL     1      62.802 227.815 325.628  0.00  0.00    +0.000 A 
ATOM     30  C   UNL     1      61.631 226.086 324.453  0.00  0.00    +0.000 A 
ATOM     31  C   UNL     1      62.680 228.677 324.542  0.00  0.00    +0.000 A 
ATOM     32  C   UNL     1      61.498 226.942 323.351  0.00  0.00    +0.000 A 
ATOM     33  C   UNL     1      62.025 228.232 323.400  0.00  0.00    +0.000 A 
ENDBRANCH  24  28
ENDBRANCH   4  24
TORSDOF 5
ENDMDL
MODEL 2
REMARK VINA RESULT:      -5.3     20.951     23.373
REMARK  Name = 
REMARK  5 active torsions:
REMARK  status: ('A' for Active; 'I' for Inactive)
REMARK    1  A    between atoms: O_5  and  C_10
REMARK    2  A    between atoms: N_9  and  C_20
REMARK    3  A    between atoms: N_9  and  C_25
REMARK    4  A    between atoms: C_10  and  C_11
REMARK    5  A    between atoms: C_18  and  C_19
REMARK                            x       y       z     vdW  Elec       q    Type
REMARK                         _______ _______ _______ _____ _____    ______ ____
ROOT
ATOM      1  F   UNL     1      50.874 246.944 330.960  0.00  0.00    +0.000 F 
ATOM      2  F   UNL     1      52.206 248.677 329.376  0.00  0.00    +0.000 F 
ATOM      3  C   UNL     1      51.936 244.730 328.275  0.00  0.00    +0.000 A 
ATOM      4  C   UNL     1      51.324 245.130 329.483  0.00  0.00    +0.000 A 
ATOM      5  C   UNL     1      52.615 245.641 327.448  0.00  0.00    +0.000 A 
ATOM      6  C   UNL     1      51.441 246.482 329.836  0.00  0.00    +0.000 A 
ATOM      7  C   UNL     1      52.703 246.978 327.825  0.00  0.00    +0.000 A 
ATOM      8  C   UNL     1      52.116 247.388 329.015  0.00  0.00    +0.000 A 
ENDROOT
BRANCH   3  14
ATOM      9  O   UNL     1      52.730 242.535 328.294  0.00  0.00    +0.000 OA
ATOM     10  N   UNL     1      50.884 242.956 326.984  0.00  0.00    +0.000 N 
ATOM     11  C   UNL     1      50.717 242.618 324.931  0.00  0.00    +0.000 C 
ATOM     12  C   UNL     1      50.309 243.759 325.906  0.00  0.00    +0.000 C 
ATOM     13  C   UNL     1      50.851 241.723 326.199  0.00  0.00    +0.000 C 
ATOM     14  C   UNL     1      51.878 243.309 327.869  0.00  0.00    +0.000 C 
BRANCH  11  16
ATOM     15  N   UNL     1      51.974 242.125 322.850  0.00  0.00    +0.000 NA
ATOM     16  C   UNL     1      52.064 242.784 324.179  0.00  0.00    +0.000 C 
ATOM     17  C   UNL     1      52.424 244.268 323.984  0.00  0.00    +0.000 C 
ATOM     18  C   UNL     1      53.739 244.416 323.219  0.00  0.00    +0.000 C 
ATOM     19  C   UNL     1      53.280 242.166 322.179  0.00  0.00    +0.000 C 
ATOM     20  C   UNL     1      53.724 243.606 321.927  0.00  0.00    +0.000 C 
ATOM     21  H   UNL     1      51.326 242.669 322.275  0.00  0.00    +0.000 HD
ENDBRANCH  11  16
BRANCH  11  22
ATOM     22  O   UNL     1      49.673 242.204 324.002  0.00  0.00    +0.000 OA
ATOM     23  H   UNL     1      50.177 241.931 323.213  0.00  0.00    +0.000 HD
ENDBRANCH  11  22
ENDBRANCH   3  14
BRANCH   4  24
ATOM     24  N   UNL     1      50.707 244.169 330.313  0.00  0.00    +0.000 N 
ATOM     25  H   UNL     1      51.373 243.542 330.779  0.00  0.00    +0.000 HD
BRANCH  24  28
ATOM     26  I   UNL     1      44.743 243.686 332.289  0.00  0.00    +0.000 I 
ATOM     27  F   UNL     1      48.573 244.577 328.644  0.00  0.00    +0.000 F 
ATOM     28  C   UNL     1      49.394 244.039 330.803  0.00  0.00    +0.000 A 
ATOM     29  C   UNL     1      48.318 244.271 329.926  0.00  0.00    +0.000 A 
ATOM     30  C   UNL     1      49.086 243.720 332.128  0.00  0.00    +0.000 A 
ATOM     31  C   UNL     1      46.990 244.177 330.333  0.00  0.00    +0.000 A 
ATOM     32  C   UNL     1      47.754 243.622 332.555  0.00  0.00    +0.000 A 
ATOM     33  C   UNL     1      46.713 243.848 331.655  0.00  0.00    +0.000 A 
ENDBRANCH  24  28
ENDBRANCH   4  24
TORSDOF 5
ENDMDL
MODEL 3
REMARK VINA RESULT:      -4.9     16.714     18.368
REMARK  Name = 
REMARK  5 active torsions:
REMARK  status: ('A' for Active; 'I' for Inactive)
REMARK    1  A    between atoms: O_5  and  C_10
REMARK    2  A    between atoms: N_9  and  C_20
REMARK    3  A    between atoms: N_9  and  C_25
REMARK    4  A    between atoms: C_10  and  C_11
REMARK    5  A    between atoms: C_18  and  C_19
REMARK                            x       y       z     vdW  Elec       q    Type
REMARK                         _______ _______ _______ _____ _____    ______ ____
ROOT
ATOM      1  F   UNL     1      71.431 223.474 340.260  0.00  0.00    +0.000 F 
ATOM      2  F   UNL     1      69.264 222.916 338.749  0.00  0.00    +0.000 F 
ATOM      3  C   UNL     1      73.007 222.684 337.076  0.00  0.00    +0.000 A 
ATOM      4  C   UNL     1      72.904 223.060 338.434  0.00  0.00    +0.000 A 
ATOM      5  C   UNL     1      71.875 222.381 336.300  0.00  0.00    +0.000 A 
ATOM      6  C   UNL     1      71.612 223.139 338.973  0.00  0.00    +0.000 A 
ATOM      7  C   UNL     1      70.608 222.460 336.872  0.00  0.00    +0.000 A 
ATOM      8  C   UNL     1      70.487 222.838 338.204  0.00  0.00    +0.000 A 
ENDROOT
BRANCH   3  14
ATOM      9  O   UNL     1      75.086 221.685 336.717  0.00  0.00    +0.000 OA
ATOM     10  N   UNL     1      74.685 223.663 335.611  0.00  0.00    +0.000 N 
ATOM     11  C   UNL     1      75.821 225.409 335.742  0.00  0.00    +0.000 C 
ATOM     12  C   UNL     1      74.303 225.070 335.724  0.00  0.00    +0.000 C 
ATOM     13  C   UNL     1      76.042 223.978 335.167  0.00  0.00    +0.000 C 
ATOM     14  C   UNL     1      74.341 222.620 336.441  0.00  0.00    +0.000 C 
BRANCH  11  16
ATOM     15  N   UNL     1      77.862 226.122 336.957  0.00  0.00    +0.000 NA
ATOM     16  C   UNL     1      76.484 225.597 337.132  0.00  0.00    +0.000 C 
ATOM     17  C   UNL     1      75.681 226.570 338.014  0.00  0.00    +0.000 C 
ATOM     18  C   UNL     1      76.359 226.766 339.371  0.00  0.00    +0.000 C 
ATOM     19  C   UNL     1      78.545 226.186 338.257  0.00  0.00    +0.000 C 
ATOM     20  C   UNL     1      77.828 227.143 339.207  0.00  0.00    +0.000 C 
ATOM     21  H   UNL     1      77.791 227.082 336.610  0.00  0.00    +0.000 HD
ENDBRANCH  11  16
BRANCH  11  22
ATOM     22  O   UNL     1      76.217 226.491 334.848  0.00  0.00    +0.000 OA
ATOM     23  H   UNL     1      76.997 226.124 334.392  0.00  0.00    +0.000 HD
ENDBRANCH  11  22
ENDBRANCH   3  14
BRANCH   4  24
ATOM     24  N   UNL     1      74.063 223.417 339.155  0.00  0.00    +0.000 N 
ATOM     25  H   UNL     1      74.637 224.126 338.685  0.00  0.00    +0.000 HD
BRANCH  24  28
ATOM     26  I   UNL     1      75.830 222.058 345.049  0.00  0.00    +0.000 I 
ATOM     27  F   UNL     1      74.227 220.843 340.079  0.00  0.00    +0.000 F 
ATOM     28  C   UNL     1      74.472 223.168 340.479  0.00  0.00    +0.000 A 
ATOM     29  C   UNL     1      74.532 221.836 340.930  0.00  0.00    +0.000 A 
ATOM     30  C   UNL     1      74.800 224.172 341.395  0.00  0.00    +0.000 A 
ATOM     31  C   UNL     1      74.914 221.504 342.227  0.00  0.00    +0.000 A 
ATOM     32  C   UNL     1      75.185 223.854 342.704  0.00  0.00    +0.000 A 
ATOM     33  C   UNL     1      75.243 222.522 343.113  0.00  0.00    +0.000 A 
ENDBRANCH  24  28
ENDBRANCH   4  24
TORSDOF 5
ENDMDL
MODEL 4
REMARK VINA RESULT:      -4.9      3.425      5.951
REMARK  Name = 
REMARK  5 active torsions:
REMARK  status: ('A' for Active; 'I' for Inactive)
REMARK    1  A    between atoms: O_5  and  C_10
REMARK    2  A    between atoms: N_9  and  C_20
REMARK    3  A    between atoms: N_9  and  C_25
REMARK    4  A    between atoms: C_10  and  C_11
REMARK    5  A    between atoms: C_18  and  C_19
REMARK                            x       y       z     vdW  Elec       q    Type
REMARK                         _______ _______ _______ _____ _____    ______ ____
ROOT
ATOM      1  F   UNL     1      60.441 225.797 327.267  0.00  0.00    +0.000 F 
ATOM      2  F   UNL     1      58.526 223.987 327.853  0.00  0.00    +0.000 F 
ATOM      3  C   UNL     1      62.478 222.913 328.145  0.00  0.00    +0.000 A 
ATOM      4  C   UNL     1      62.172 224.229 327.734  0.00  0.00    +0.000 A 
ATOM      5  C   UNL     1      61.476 221.980 328.462  0.00  0.00    +0.000 A 
ATOM      6  C   UNL     1      60.814 224.562 327.635  0.00  0.00    +0.000 A 
ATOM      7  C   UNL     1      60.137 222.349 328.362  0.00  0.00    +0.000 A 
ATOM      8  C   UNL     1      59.817 223.637 327.950  0.00  0.00    +0.000 A 
ENDROOT
BRANCH   3  14
ATOM      9  O   UNL     1      64.454 222.083 327.219  0.00  0.00    +0.000 OA
ATOM     10  N   UNL     1      64.481 222.538 329.476  0.00  0.00    +0.000 N 
ATOM     11  C   UNL     1      64.921 221.191 331.008  0.00  0.00    +0.000 C 
ATOM     12  C   UNL     1      63.857 222.301 330.777  0.00  0.00    +0.000 C 
ATOM     13  C   UNL     1      65.721 221.860 329.851  0.00  0.00    +0.000 C 
ATOM     14  C   UNL     1      63.894 222.492 328.231  0.00  0.00    +0.000 C 
BRANCH  11  16
ATOM     15  N   UNL     1      65.323 218.787 331.468  0.00  0.00    +0.000 NA
ATOM     16  C   UNL     1      64.501 219.735 330.672  0.00  0.00    +0.000 C 
ATOM     17  C   UNL     1      63.012 219.491 330.975  0.00  0.00    +0.000 C 
ATOM     18  C   UNL     1      62.620 218.046 330.664  0.00  0.00    +0.000 C 
ATOM     19  C   UNL     1      65.024 217.404 331.070  0.00  0.00    +0.000 C 
ATOM     20  C   UNL     1      63.561 217.058 331.343  0.00  0.00    +0.000 C 
ATOM     21  H   UNL     1      65.046 218.880 332.449  0.00  0.00    +0.000 HD
ENDBRANCH  11  16
BRANCH  11  22
ATOM     22  O   UNL     1      65.580 221.235 332.307  0.00  0.00    +0.000 OA
ATOM     23  H   UNL     1      65.481 222.169 332.572  0.00  0.00    +0.000 HD
ENDBRANCH  11  22
ENDBRANCH   3  14
BRANCH   4  24
ATOM     24  N   UNL     1      63.210 225.111 327.365  0.00  0.00    +0.000 N 
ATOM     25  H   UNL     1      64.029 225.062 327.982  0.00  0.00    +0.000 HD
BRANCH  24  28
ATOM     26  I   UNL     1      64.284 228.304 322.040  0.00  0.00    +0.000 I 
ATOM     27  F   UNL     1      63.409 223.873 324.930  0.00  0.00    +0.000 F 
ATOM     28  C   UNL     1      63.442 225.873 326.204  0.00  0.00    +0.000 A 
ATOM     29  C   UNL     1      63.555 225.208 324.969  0.00  0.00    +0.000 A 
ATOM     30  C   UNL     1      63.598 227.262 326.202  0.00  0.00    +0.000 A 
ATOM     31  C   UNL     1      63.797 225.883 323.777  0.00  0.00    +0.000 A 
ATOM     32  C   UNL     1      63.843 227.958 325.010  0.00  0.00    +0.000 A 
ATOM     33  C   UNL     1      63.938 227.266 323.803  0.00  0.00    +0.000 A 
ENDBRANCH  24  28
ENDBRANCH   4  24
TORSDOF 5
ENDMDL
MODEL 5
REMARK VINA RESULT:      -4.9     12.626     14.725
REMARK  Name = 
REMARK  5 active torsions:
REMARK  status: ('A' for Active; 'I' for Inactive)
REMARK    1  A    between atoms: O_5  and  C_10
REMARK    2  A    between atoms: N_9  and  C_20
REMARK    3  A    between atoms: N_9  and  C_25
REMARK    4  A    between atoms: C_10  and  C_11
REMARK    5  A    between atoms: C_18  and  C_19
REMARK                            x       y       z     vdW  Elec       q    Type
REMARK                         _______ _______ _______ _____ _____    ______ ____
ROOT
ATOM      1  F   UNL     1      59.548 217.476 339.538  0.00  0.00    +0.000 F 
ATOM      2  F   UNL     1      58.090 219.744 339.654  0.00  0.00    +0.000 F 
ATOM      3  C   UNL     1      58.925 218.064 336.001  0.00  0.00    +0.000 A 
ATOM      4  C   UNL     1      59.421 217.426 337.160  0.00  0.00    +0.000 A 
ATOM      5  C   UNL     1      58.154 219.237 336.071  0.00  0.00    +0.000 A 
ATOM      6  C   UNL     1      59.127 218.029 338.391  0.00  0.00    +0.000 A 
ATOM      7  C   UNL     1      57.873 219.802 337.312  0.00  0.00    +0.000 A 
ATOM      8  C   UNL     1      58.361 219.194 338.462  0.00  0.00    +0.000 A 
ENDROOT
BRANCH   3  14
ATOM      9  O   UNL     1      60.068 218.055 333.967  0.00  0.00    +0.000 OA
ATOM     10  N   UNL     1      58.515 216.387 334.287  0.00  0.00    +0.000 N 
ATOM     11  C   UNL     1      56.861 215.983 333.080  0.00  0.00    +0.000 C 
ATOM     12  C   UNL     1      57.128 216.055 334.610  0.00  0.00    +0.000 C 
ATOM     13  C   UNL     1      58.407 215.882 332.920  0.00  0.00    +0.000 C 
ATOM     14  C   UNL     1      59.235 217.495 334.672  0.00  0.00    +0.000 C 
BRANCH  11  16
ATOM     15  N   UNL     1      55.722 216.899 331.076  0.00  0.00    +0.000 NA
ATOM     16  C   UNL     1      56.278 217.255 332.407  0.00  0.00    +0.000 C 
ATOM     17  C   UNL     1      55.171 217.891 333.265  0.00  0.00    +0.000 C 
ATOM     18  C   UNL     1      54.588 219.127 332.578  0.00  0.00    +0.000 C 
ATOM     19  C   UNL     1      55.280 218.114 330.375  0.00  0.00    +0.000 C 
ATOM     20  C   UNL     1      54.165 218.817 331.146  0.00  0.00    +0.000 C 
ATOM     21  H   UNL     1      54.890 216.324 331.228  0.00  0.00    +0.000 HD
ENDBRANCH  11  16
BRANCH  11  22
ATOM     22  O   UNL     1      56.126 214.803 332.641  0.00  0.00    +0.000 OA
ATOM     23  H   UNL     1      56.743 214.074 332.839  0.00  0.00    +0.000 HD
ENDBRANCH  11  22
ENDBRANCH   3  14
BRANCH   4  24
ATOM     24  N   UNL     1      60.244 216.286 337.038  0.00  0.00    +0.000 N 
ATOM     25  H   UNL     1      59.890 215.595 336.366  0.00  0.00    +0.000 HD
BRANCH  24  28
ATOM     26  I   UNL     1      66.191 215.128 338.771  0.00  0.00    +0.000 I 
ATOM     27  F   UNL     1      62.392 217.153 335.575  0.00  0.00    +0.000 F 
ATOM     28  C   UNL     1      61.553 216.008 337.475  0.00  0.00    +0.000 A 
ATOM     29  C   UNL     1      62.636 216.452 336.694  0.00  0.00    +0.000 A 
ATOM     30  C   UNL     1      61.850 215.284 338.633  0.00  0.00    +0.000 A 
ATOM     31  C   UNL     1      63.960 216.209 337.047  0.00  0.00    +0.000 A 
ATOM     32  C   UNL     1      63.178 215.029 339.002  0.00  0.00    +0.000 A 
ATOM     33  C   UNL     1      64.226 215.495 338.210  0.00  0.00    +0.000 A 
ENDBRANCH  24  28
ENDBRANCH   4  24
TORSDOF 5
ENDMDL
MODEL 6
REMARK VINA RESULT:      -4.9     15.001     17.403
REMARK  Name = 
REMARK  5 active torsions:
REMARK  status: ('A' for Active; 'I' for Inactive)
REMARK    1  A    between atoms: O_5  and  C_10
REMARK    2  A    between atoms: N_9  and  C_20
REMARK    3  A    between atoms: N_9  and  C_25
REMARK    4  A    between atoms: C_10  and  C_11
REMARK    5  A    between atoms: C_18  and  C_19
REMARK                            x       y       z     vdW  Elec       q    Type
REMARK                         _______ _______ _______ _____ _____    ______ ____
ROOT
ATOM      1  F   UNL     1      70.138 223.829 339.790  0.00  0.00    +0.000 F 
ATOM      2  F   UNL     1      69.590 224.592 337.259  0.00  0.00    +0.000 F 
ATOM      3  C   UNL     1      69.638 220.594 338.198  0.00  0.00    +0.000 A 
ATOM      4  C   UNL     1      69.916 221.526 339.224  0.00  0.00    +0.000 A 
ATOM      5  C   UNL     1      69.338 221.000 336.886  0.00  0.00    +0.000 A 
ATOM      6  C   UNL     1      69.900 222.882 338.869  0.00  0.00    +0.000 A 
ATOM      7  C   UNL     1      69.323 222.357 336.573  0.00  0.00    +0.000 A 
ATOM      8  C   UNL     1      69.603 223.286 337.567  0.00  0.00    +0.000 A 
ENDROOT
BRANCH   3  14
ATOM      9  O   UNL     1      70.453 218.431 337.882  0.00  0.00    +0.000 OA
ATOM     10  N   UNL     1      68.782 218.688 339.444  0.00  0.00    +0.000 N 
ATOM     11  C   UNL     1      66.930 217.726 339.450  0.00  0.00    +0.000 C 
ATOM     12  C   UNL     1      67.431 219.173 339.719  0.00  0.00    +0.000 C 
ATOM     13  C   UNL     1      68.412 217.288 339.644  0.00  0.00    +0.000 C 
ATOM     14  C   UNL     1      69.676 219.148 338.504  0.00  0.00    +0.000 C 
BRANCH  11  16
ATOM     15  N   UNL     1      65.224 216.520 338.113  0.00  0.00    +0.000 NA
ATOM     16  C   UNL     1      66.404 217.417 338.022  0.00  0.00    +0.000 C 
ATOM     17  C   UNL     1      66.007 218.703 337.276  0.00  0.00    +0.000 C 
ATOM     18  C   UNL     1      65.467 218.382 335.882  0.00  0.00    +0.000 C 
ATOM     19  C   UNL     1      64.792 216.120 336.766  0.00  0.00    +0.000 C 
ATOM     20  C   UNL     1      64.362 217.333 335.943  0.00  0.00    +0.000 C 
ATOM     21  H   UNL     1      64.455 217.055 338.525  0.00  0.00    +0.000 HD
ENDBRANCH  11  16
BRANCH  11  22
ATOM     22  O   UNL     1      66.005 217.203 340.447  0.00  0.00    +0.000 OA
ATOM     23  H   UNL     1      66.453 217.406 341.290  0.00  0.00    +0.000 HD
ENDBRANCH  11  22
ENDBRANCH   3  14
BRANCH   4  24
ATOM     24  N   UNL     1      70.273 221.070 340.511  0.00  0.00    +0.000 N 
ATOM     25  H   UNL     1      69.579 220.440 340.931  0.00  0.00    +0.000 HD
BRANCH  24  28
ATOM     26  I   UNL     1      75.546 221.202 343.958  0.00  0.00    +0.000 I 
ATOM     27  F   UNL     1      70.425 219.936 343.000  0.00  0.00    +0.000 F 
ATOM     28  C   UNL     1      71.478 221.119 341.236  0.00  0.00    +0.000 A 
ATOM     29  C   UNL     1      71.522 220.542 342.518  0.00  0.00    +0.000 A 
ATOM     30  C   UNL     1      72.642 221.738 340.770  0.00  0.00    +0.000 A 
ATOM     31  C   UNL     1      72.669 220.559 343.306  0.00  0.00    +0.000 A 
ATOM     32  C   UNL     1      73.805 221.765 341.551  0.00  0.00    +0.000 A 
ATOM     33  C   UNL     1      73.814 221.173 342.814  0.00  0.00    +0.000 A 
ENDBRANCH  24  28
ENDBRANCH   4  24
TORSDOF 5
ENDMDL
MODEL 7
REMARK VINA RESULT:      -4.9      3.678      5.456
REMARK  Name = 
REMARK  5 active torsions:
REMARK  status: ('A' for Active; 'I' for Inactive)
REMARK    1  A    between atoms: O_5  and  C_10
REMARK    2  A    between atoms: N_9  and  C_20
REMARK    3  A    between atoms: N_9  and  C_25
REMARK    4  A    between atoms: C_10  and  C_11
REMARK    5  A    between atoms: C_18  and  C_19
REMARK                            x       y       z     vdW  Elec       q    Type
REMARK                         _______ _______ _______ _____ _____    ______ ____
ROOT
ATOM      1  F   UNL     1      60.606 221.627 328.510  0.00  0.00    +0.000 F 
ATOM      2  F   UNL     1      58.378 223.140 328.324  0.00  0.00    +0.000 F 
ATOM      3  C   UNL     1      61.929 224.583 326.850  0.00  0.00    +0.000 A 
ATOM      4  C   UNL     1      61.923 223.302 327.444  0.00  0.00    +0.000 A 
ATOM      5  C   UNL     1      60.761 225.359 326.744  0.00  0.00    +0.000 A 
ATOM      6  C   UNL     1      60.698 222.841 327.945  0.00  0.00    +0.000 A 
ATOM      7  C   UNL     1      59.560 224.865 327.245  0.00  0.00    +0.000 A 
ATOM      8  C   UNL     1      59.538 223.610 327.841  0.00  0.00    +0.000 A 
ENDROOT
BRANCH   3  14
ATOM      9  O   UNL     1      63.843 225.904 327.046  0.00  0.00    +0.000 OA
ATOM     10  N   UNL     1      63.554 224.792 325.051  0.00  0.00    +0.000 N 
ATOM     11  C   UNL     1      63.451 225.655 323.154  0.00  0.00    +0.000 C 
ATOM     12  C   UNL     1      62.676 224.539 323.910  0.00  0.00    +0.000 C 
ATOM     13  C   UNL     1      64.556 225.479 324.238  0.00  0.00    +0.000 C 
ATOM     14  C   UNL     1      63.200 225.138 326.336  0.00  0.00    +0.000 C 
BRANCH  11  16
ATOM     15  N   UNL     1      63.794 228.046 322.588  0.00  0.00    +0.000 NA
ATOM     16  C   UNL     1      62.829 227.077 323.169  0.00  0.00    +0.000 C 
ATOM     17  C   UNL     1      61.516 227.129 322.368  0.00  0.00    +0.000 C 
ATOM     18  C   UNL     1      60.929 228.540 322.369  0.00  0.00    +0.000 C 
ATOM     19  C   UNL     1      63.269 229.413 322.710  0.00  0.00    +0.000 C 
ATOM     20  C   UNL     1      61.963 229.572 321.933  0.00  0.00    +0.000 C 
ATOM     21  H   UNL     1      63.874 227.846 321.587  0.00  0.00    +0.000 HD
ENDBRANCH  11  16
BRANCH  11  22
ATOM     22  O   UNL     1      63.864 225.305 321.801  0.00  0.00    +0.000 OA
ATOM     23  H   UNL     1      64.205 226.149 321.449  0.00  0.00    +0.000 HD
ENDBRANCH  11  22
ENDBRANCH   3  14
BRANCH   4  24
ATOM     24  N   UNL     1      63.131 222.585 327.585  0.00  0.00    +0.000 N 
ATOM     25  H   UNL     1      63.762 222.683 326.781  0.00  0.00    +0.000 HD
BRANCH  24  28
ATOM     26  I   UNL     1      65.908 219.995 332.613  0.00  0.00    +0.000 I 
ATOM     27  F   UNL     1      63.929 224.069 329.745  0.00  0.00    +0.000 F 
ATOM     28  C   UNL     1      63.739 221.956 328.687  0.00  0.00    +0.000 A 
ATOM     29  C   UNL     1      64.152 222.746 329.775  0.00  0.00    +0.000 A 
ATOM     30  C   UNL     1      63.988 220.582 328.759  0.00  0.00    +0.000 A 
ATOM     31  C   UNL     1      64.772 222.204 330.898  0.00  0.00    +0.000 A 
ATOM     32  C   UNL     1      64.612 220.021 329.882  0.00  0.00    +0.000 A 
ATOM     33  C   UNL     1      64.999 220.834 330.947  0.00  0.00    +0.000 A 
ENDBRANCH  24  28
ENDBRANCH   4  24
TORSDOF 5
ENDMDL
MODEL 8
REMARK VINA RESULT:      -4.8     13.353     15.405
REMARK  Name = 
REMARK  5 active torsions:
REMARK  status: ('A' for Active; 'I' for Inactive)
REMARK    1  A    between atoms: O_5  and  C_10
REMARK    2  A    between atoms: N_9  and  C_20
REMARK    3  A    between atoms: N_9  and  C_25
REMARK    4  A    between atoms: C_10  and  C_11
REMARK    5  A    between atoms: C_18  and  C_19
REMARK                            x       y       z     vdW  Elec       q    Type
REMARK                         _______ _______ _______ _____ _____    ______ ____
ROOT
ATOM      1  F   UNL     1      67.397 221.169 334.394  0.00  0.00    +0.000 F 
ATOM      2  F   UNL     1      66.076 219.129 333.218  0.00  0.00    +0.000 F 
ATOM      3  C   UNL     1      66.856 218.975 337.247  0.00  0.00    +0.000 A 
ATOM      4  C   UNL     1      67.298 220.105 336.523  0.00  0.00    +0.000 A 
ATOM      5  C   UNL     1      66.155 217.924 336.630  0.00  0.00    +0.000 A 
ATOM      6  C   UNL     1      67.024 220.123 335.148  0.00  0.00    +0.000 A 
ATOM      7  C   UNL     1      65.893 217.981 335.264  0.00  0.00    +0.000 A 
ATOM      8  C   UNL     1      66.329 219.080 334.534  0.00  0.00    +0.000 A 
ENDROOT
BRANCH   3  14
ATOM      9  O   UNL     1      66.560 219.630 339.467  0.00  0.00    +0.000 OA
ATOM     10  N   UNL     1      68.119 217.983 339.074  0.00  0.00    +0.000 N 
ATOM     11  C   UNL     1      70.143 218.044 339.582  0.00  0.00    +0.000 C 
ATOM     12  C   UNL     1      69.322 217.590 338.342  0.00  0.00    +0.000 C 
ATOM     13  C   UNL     1      68.799 217.972 340.368  0.00  0.00    +0.000 C 
ATOM     14  C   UNL     1      67.148 218.882 338.693  0.00  0.00    +0.000 C 
BRANCH  11  16
ATOM     15  N   UNL     1      70.307 220.218 340.766  0.00  0.00    +0.000 NA
ATOM     16  C   UNL     1      70.732 219.480 339.548  0.00  0.00    +0.000 C 
ATOM     17  C   UNL     1      72.269 219.458 339.480  0.00  0.00    +0.000 C 
ATOM     18  C   UNL     1      72.837 220.878 339.474  0.00  0.00    +0.000 C 
ATOM     19  C   UNL     1      70.754 221.616 340.688  0.00  0.00    +0.000 C 
ATOM     20  C   UNL     1      72.278 221.704 340.628  0.00  0.00    +0.000 C 
ATOM     21  H   UNL     1      70.783 219.798 341.568  0.00  0.00    +0.000 HD
ENDBRANCH  11  16
BRANCH  11  22
ATOM     22  O   UNL     1      71.158 217.097 340.025  0.00  0.00    +0.000 OA
ATOM     23  H   UNL     1      71.309 216.550 339.232  0.00  0.00    +0.000 HD
ENDBRANCH  11  22
ENDBRANCH   3  14
BRANCH   4  24
ATOM     24  N   UNL     1      68.052 221.106 337.172  0.00  0.00    +0.000 N 
ATOM     25  H   UNL     1      67.641 221.419 338.059  0.00  0.00    +0.000 HD
BRANCH  24  28
ATOM     26  I   UNL     1      73.817 223.518 336.361  0.00  0.00    +0.000 I 
ATOM     27  F   UNL     1      68.808 223.498 338.273  0.00  0.00    +0.000 F 
ATOM     28  C   UNL     1      69.356 221.596 336.967  0.00  0.00    +0.000 A 
ATOM     29  C   UNL     1      69.710 222.835 337.532  0.00  0.00    +0.000 A 
ATOM     30  C   UNL     1      70.325 220.936 336.206  0.00  0.00    +0.000 A 
ATOM     31  C   UNL     1      70.973 223.396 337.367  0.00  0.00    +0.000 A 
ATOM     32  C   UNL     1      71.601 221.488 336.029  0.00  0.00    +0.000 A 
ATOM     33  C   UNL     1      71.920 222.714 336.613  0.00  0.00    +0.000 A 
ENDBRANCH  24  28
ENDBRANCH   4  24
TORSDOF 5
ENDMDL
MODEL 9
REMARK VINA RESULT:      -4.7     28.668     30.731
REMARK  Name = 
REMARK  5 active torsions:
REMARK  status: ('A' for Active; 'I' for Inactive)
REMARK    1  A    between atoms: O_5  and  C_10
REMARK    2  A    between atoms: N_9  and  C_20
REMARK    3  A    between atoms: N_9  and  C_25
REMARK    4  A    between atoms: C_10  and  C_11
REMARK    5  A    between atoms: C_18  and  C_19
REMARK                            x       y       z     vdW  Elec       q    Type
REMARK                         _______ _______ _______ _____ _____    ______ ____
ROOT
ATOM      1  F   UNL     1      53.557 241.104 352.441  0.00  0.00    +0.000 F 
ATOM      2  F   UNL     1      51.098 239.998 352.568  0.00  0.00    +0.000 F 
ATOM      3  C   UNL     1      52.953 240.385 348.925  0.00  0.00    +0.000 A 
ATOM      4  C   UNL     1      53.634 240.845 350.074  0.00  0.00    +0.000 A 
ATOM      5  C   UNL     1      51.679 239.797 349.001  0.00  0.00    +0.000 A 
ATOM      6  C   UNL     1      52.971 240.706 351.301  0.00  0.00    +0.000 A 
ATOM      7  C   UNL     1      51.054 239.667 350.239  0.00  0.00    +0.000 A 
ATOM      8  C   UNL     1      51.705 240.122 351.379  0.00  0.00    +0.000 A 
ENDROOT
BRANCH   3  14
ATOM      9  O   UNL     1      54.487 239.770 347.277  0.00  0.00    +0.000 OA
ATOM     10  N   UNL     1      53.153 241.589 346.819  0.00  0.00    +0.000 N 
ATOM     11  C   UNL     1      53.801 243.518 346.357  0.00  0.00    +0.000 C 
ATOM     12  C   UNL     1      52.690 242.905 347.256  0.00  0.00    +0.000 C 
ATOM     13  C   UNL     1      53.857 242.127 345.657  0.00  0.00    +0.000 C 
ATOM     14  C   UNL     1      53.587 240.539 347.597  0.00  0.00    +0.000 C 
BRANCH  11  16
ATOM     15  N   UNL     1      55.992 244.651 346.098  0.00  0.00    +0.000 NA
ATOM     16  C   UNL     1      55.141 243.888 347.047  0.00  0.00    +0.000 C 
ATOM     17  C   UNL     1      54.910 244.733 348.312  0.00  0.00    +0.000 C 
ATOM     18  C   UNL     1      56.239 245.112 348.967  0.00  0.00    +0.000 C 
ATOM     19  C   UNL     1      57.312 244.899 346.695  0.00  0.00    +0.000 C 
ATOM     20  C   UNL     1      57.192 245.747 347.960  0.00  0.00    +0.000 C 
ATOM     21  H   UNL     1      55.555 245.564 345.951  0.00  0.00    +0.000 HD
ENDBRANCH  11  16
BRANCH  11  22
ATOM     22  O   UNL     1      53.361 244.612 345.500  0.00  0.00    +0.000 OA
ATOM     23  H   UNL     1      54.191 244.914 345.085  0.00  0.00    +0.000 HD
ENDBRANCH  11  22
ENDBRANCH   3  14
BRANCH   4  24
ATOM     24  N   UNL     1      54.885 241.486 349.942  0.00  0.00    +0.000 N 
ATOM     25  H   UNL     1      54.852 242.333 349.363  0.00  0.00    +0.000 HD
BRANCH  24  28
ATOM     26  I   UNL     1      60.354 240.543 352.925  0.00  0.00    +0.000 I 
ATOM     27  F   UNL     1      56.236 239.107 349.806  0.00  0.00    +0.000 F 
ATOM     28  C   UNL     1      56.108 241.331 350.620  0.00  0.00    +0.000 A 
ATOM     29  C   UNL     1      56.771 240.092 350.545  0.00  0.00    +0.000 A 
ATOM     30  C   UNL     1      56.699 242.330 351.398  0.00  0.00    +0.000 A 
ATOM     31  C   UNL     1      57.978 239.851 351.196  0.00  0.00    +0.000 A 
ATOM     32  C   UNL     1      57.913 242.104 352.061  0.00  0.00    +0.000 A 
ATOM     33  C   UNL     1      58.548 240.867 351.954  0.00  0.00    +0.000 A 
ENDBRANCH  24  28
ENDBRANCH   4  24
TORSDOF 5
ENDMDL
