MODEL 1
REMARK VINA RESULT:      -5.7      0.000      0.000
REMARK  Name = COUMESTROL.pdbqt.pdb
REMARK  2 active torsions:
REMARK  status: ('A' for Active; 'I' for Inactive)
REMARK    1  A    between atoms: C_16  and  O_19
REMARK    2  A    between atoms: C_18  and  O_21
REMARK                            x       y       z     vdW  Elec       q    Type
REMARK                         _______ _______ _______ _____ _____    ______ ____
ROOT
ATOM      1  O   UNL     1      55.221 219.005 333.768  0.00  0.00    +0.000 OA
ATOM      2  O   UNL     1      58.457 216.646 334.572  0.00  0.00    +0.000 OA
ATOM      3  O   UNL     1      58.397 215.965 332.365  0.00  0.00    +0.000 OA
ATOM      4  C   UNL     1      56.772 217.516 333.070  0.00  0.00    +0.000 A 
ATOM      5  C   UNL     1      56.288 218.255 334.118  0.00  0.00    +0.000 A 
ATOM      6  C   UNL     1      55.941 217.823 331.964  0.00  0.00    +0.000 A 
ATOM      7  C   UNL     1      56.820 218.264 335.447  0.00  0.00    +0.000 A 
ATOM      8  C   UNL     1      55.003 218.743 332.443  0.00  0.00    +0.000 A 
ATOM      9  C   UNL     1      57.930 217.429 335.646  0.00  0.00    +0.000 A 
ATOM     10  C   UNL     1      57.914 216.651 333.258  0.00  0.00    +0.000 A 
ATOM     11  C   UNL     1      55.872 217.433 330.617  0.00  0.00    +0.000 A 
ATOM     12  C   UNL     1      56.320 219.018 336.502  0.00  0.00    +0.000 A 
ATOM     13  C   UNL     1      53.989 219.308 331.670  0.00  0.00    +0.000 A 
ATOM     14  C   UNL     1      58.554 217.333 336.883  0.00  0.00    +0.000 A 
ATOM     15  C   UNL     1      54.868 217.981 329.812  0.00  0.00    +0.000 A 
ATOM     16  C   UNL     1      53.956 218.894 330.336  0.00  0.00    +0.000 A 
ATOM     17  C   UNL     1      56.937 218.931 337.749  0.00  0.00    +0.000 A 
ATOM     18  C   UNL     1      58.042 218.094 337.929  0.00  0.00    +0.000 A 
ENDROOT
BRANCH  16  19
ATOM     19  O   UNL     1      52.999 219.390 329.491  0.00  0.00    +0.000 OA
ATOM     20  H   UNL     1      52.861 220.330 329.702  0.00  0.00    +0.000 HD
ENDBRANCH  16  19
BRANCH  18  21
ATOM     21  O   UNL     1      58.651 218.005 339.148  0.00  0.00    +0.000 OA
ATOM     22  H   UNL     1      58.539 217.097 339.482  0.00  0.00    +0.000 HD
ENDBRANCH  18  21
TORSDOF 2
ENDMDL
MODEL 2
REMARK VINA RESULT:      -5.5     13.012     16.424
REMARK  Name = COUMESTROL.pdbqt.pdb
REMARK  2 active torsions:
REMARK  status: ('A' for Active; 'I' for Inactive)
REMARK    1  A    between atoms: C_16  and  O_19
REMARK    2  A    between atoms: C_18  and  O_21
REMARK                            x       y       z     vdW  Elec       q    Type
REMARK                         _______ _______ _______ _____ _____    ______ ____
ROOT
ATOM      1  O   UNL     1      70.897 220.723 340.557  0.00  0.00    +0.000 OA
ATOM      2  O   UNL     1      68.955 222.040 337.214  0.00  0.00    +0.000 OA
ATOM      3  O   UNL     1      70.598 223.651 337.002  0.00  0.00    +0.000 OA
ATOM      4  C   UNL     1      70.761 222.163 338.819  0.00  0.00    +0.000 A 
ATOM      5  C   UNL     1      70.195 221.095 339.465  0.00  0.00    +0.000 A 
ATOM      6  C   UNL     1      71.919 222.496 339.564  0.00  0.00    +0.000 A 
ATOM      7  C   UNL     1      68.998 220.418 339.065  0.00  0.00    +0.000 A 
ATOM      8  C   UNL     1      71.960 221.583 340.623  0.00  0.00    +0.000 A 
ATOM      9  C   UNL     1      68.388 220.927 337.909  0.00  0.00    +0.000 A 
ATOM     10  C   UNL     1      70.145 222.699 337.627  0.00  0.00    +0.000 A 
ATOM     11  C   UNL     1      72.935 223.460 339.469  0.00  0.00    +0.000 A 
ATOM     12  C   UNL     1      68.434 219.335 339.729  0.00  0.00    +0.000 A 
ATOM     13  C   UNL     1      72.951 221.560 341.604  0.00  0.00    +0.000 A 
ATOM     14  C   UNL     1      67.220 220.373 337.401  0.00  0.00    +0.000 A 
ATOM     15  C   UNL     1      73.945 223.466 340.436  0.00  0.00    +0.000 A 
ATOM     16  C   UNL     1      73.942 222.535 341.472  0.00  0.00    +0.000 A 
ATOM     17  C   UNL     1      67.262 218.769 339.230  0.00  0.00    +0.000 A 
ATOM     18  C   UNL     1      66.668 219.290 338.076  0.00  0.00    +0.000 A 
ENDROOT
BRANCH  16  19
ATOM     19  O   UNL     1      74.962 222.599 342.384  0.00  0.00    +0.000 OA
ATOM     20  H   UNL     1      75.519 221.808 342.278  0.00  0.00    +0.000 HD
ENDBRANCH  16  19
BRANCH  18  21
ATOM     21  O   UNL     1      65.519 218.740 337.581  0.00  0.00    +0.000 OA
ATOM     22  H   UNL     1      65.562 218.761 336.609  0.00  0.00    +0.000 HD
ENDBRANCH  18  21
TORSDOF 2
ENDMDL
MODEL 3
REMARK VINA RESULT:      -5.4     12.728     13.873
REMARK  Name = COUMESTROL.pdbqt.pdb
REMARK  2 active torsions:
REMARK  status: ('A' for Active; 'I' for Inactive)
REMARK    1  A    between atoms: C_16  and  O_19
REMARK    2  A    between atoms: C_18  and  O_21
REMARK                            x       y       z     vdW  Elec       q    Type
REMARK                         _______ _______ _______ _____ _____    ______ ____
ROOT
ATOM      1  O   UNL     1      61.361 226.024 323.873  0.00  0.00    +0.000 OA
ATOM      2  O   UNL     1      64.057 226.234 326.934  0.00  0.00    +0.000 OA
ATOM      3  O   UNL     1      64.927 228.120 325.920  0.00  0.00    +0.000 OA
ATOM      4  C   UNL     1      63.108 227.059 324.867  0.00  0.00    +0.000 A 
ATOM      5  C   UNL     1      62.215 226.020 324.919  0.00  0.00    +0.000 A 
ATOM      6  C   UNL     1      62.793 227.780 323.688  0.00  0.00    +0.000 A 
ATOM      7  C   UNL     1      62.155 225.023 325.945  0.00  0.00    +0.000 A 
ATOM      8  C   UNL     1      61.713 227.105 323.112  0.00  0.00    +0.000 A 
ATOM      9  C   UNL     1      63.112 225.162 326.961  0.00  0.00    +0.000 A 
ATOM     10  C   UNL     1      64.100 227.216 325.906  0.00  0.00    +0.000 A 
ATOM     11  C   UNL     1      63.294 228.922 323.042  0.00  0.00    +0.000 A 
ATOM     12  C   UNL     1      61.244 223.975 325.987  0.00  0.00    +0.000 A 
ATOM     13  C   UNL     1      61.088 227.489 321.926  0.00  0.00    +0.000 A 
ATOM     14  C   UNL     1      63.177 224.269 328.023  0.00  0.00    +0.000 A 
ATOM     15  C   UNL     1      62.691 229.335 321.851  0.00  0.00    +0.000 A 
ATOM     16  C   UNL     1      61.616 228.629 321.315  0.00  0.00    +0.000 A 
ATOM     17  C   UNL     1      61.298 223.071 327.047  0.00  0.00    +0.000 A 
ATOM     18  C   UNL     1      62.259 223.225 328.051  0.00  0.00    +0.000 A 
ENDROOT
BRANCH  16  19
ATOM     19  O   UNL     1      61.074 229.090 320.145  0.00  0.00    +0.000 OA
ATOM     20  H   UNL     1      61.660 229.779 319.786  0.00  0.00    +0.000 HD
ENDBRANCH  16  19
BRANCH  18  21
ATOM     21  O   UNL     1      62.317 222.344 329.093  0.00  0.00    +0.000 OA
ATOM     22  H   UNL     1      62.238 222.844 329.924  0.00  0.00    +0.000 HD
ENDBRANCH  18  21
TORSDOF 2
ENDMDL
MODEL 4
REMARK VINA RESULT:      -5.3     10.883     12.533
REMARK  Name = COUMESTROL.pdbqt.pdb
REMARK  2 active torsions:
REMARK  status: ('A' for Active; 'I' for Inactive)
REMARK    1  A    between atoms: C_16  and  O_19
REMARK    2  A    between atoms: C_18  and  O_21
REMARK                            x       y       z     vdW  Elec       q    Type
REMARK                         _______ _______ _______ _____ _____    ______ ____
ROOT
ATOM      1  O   UNL     1      60.999 225.594 324.430  0.00  0.00    +0.000 OA
ATOM      2  O   UNL     1      61.334 223.547 327.949  0.00  0.00    +0.000 OA
ATOM      3  O   UNL     1      63.302 224.697 328.328  0.00  0.00    +0.000 OA
ATOM      4  C   UNL     1      62.135 225.163 326.336  0.00  0.00    +0.000 A 
ATOM      5  C   UNL     1      61.033 224.876 325.574  0.00  0.00    +0.000 A 
ATOM      6  C   UNL     1      62.859 226.145 325.615  0.00  0.00    +0.000 A 
ATOM      7  C   UNL     1      60.010 223.932 325.910  0.00  0.00    +0.000 A 
ATOM      8  C   UNL     1      62.121 226.376 324.451  0.00  0.00    +0.000 A 
ATOM      9  C   UNL     1      60.195 223.269 327.132  0.00  0.00    +0.000 A 
ATOM     10  C   UNL     1      62.340 224.489 327.598  0.00  0.00    +0.000 A 
ATOM     11  C   UNL     1      64.050 226.863 325.810  0.00  0.00    +0.000 A 
ATOM     12  C   UNL     1      58.897 223.650 325.127  0.00  0.00    +0.000 A 
ATOM     13  C   UNL     1      62.486 227.282 323.455  0.00  0.00    +0.000 A 
ATOM     14  C   UNL     1      59.284 222.326 327.591  0.00  0.00    +0.000 A 
ATOM     15  C   UNL     1      64.446 227.780 324.832  0.00  0.00    +0.000 A 
ATOM     16  C   UNL     1      63.676 227.976 323.687  0.00  0.00    +0.000 A 
ATOM     17  C   UNL     1      57.975 222.705 325.575  0.00  0.00    +0.000 A 
ATOM     18  C   UNL     1      58.175 222.054 326.796  0.00  0.00    +0.000 A 
ENDROOT
BRANCH  16  19
ATOM     19  O   UNL     1      64.123 228.889 322.770  0.00  0.00    +0.000 OA
ATOM     20  H   UNL     1      64.106 228.474 321.891  0.00  0.00    +0.000 HD
ENDBRANCH  16  19
BRANCH  18  21
ATOM     21  O   UNL     1      57.276 221.127 327.241  0.00  0.00    +0.000 OA
ATOM     22  H   UNL     1      57.761 220.433 327.721  0.00  0.00    +0.000 HD
ENDBRANCH  18  21
TORSDOF 2
ENDMDL
MODEL 5
REMARK VINA RESULT:      -5.1     20.436     21.806
REMARK  Name = COUMESTROL.pdbqt.pdb
REMARK  2 active torsions:
REMARK  status: ('A' for Active; 'I' for Inactive)
REMARK    1  A    between atoms: C_16  and  O_19
REMARK    2  A    between atoms: C_18  and  O_21
REMARK                            x       y       z     vdW  Elec       q    Type
REMARK                         _______ _______ _______ _____ _____    ______ ____
ROOT
ATOM      1  O   UNL     1      54.479 224.176 353.374  0.00  0.00    +0.000 OA
ATOM      2  O   UNL     1      52.620 227.740 352.647  0.00  0.00    +0.000 OA
ATOM      3  O   UNL     1      54.596 228.787 353.227  0.00  0.00    +0.000 OA
ATOM      4  C   UNL     1      54.548 226.435 353.306  0.00  0.00    +0.000 A 
ATOM      5  C   UNL     1      53.791 225.309 353.112  0.00  0.00    +0.000 A 
ATOM      6  C   UNL     1      55.822 225.977 353.725  0.00  0.00    +0.000 A 
ATOM      7  C   UNL     1      52.425 225.286 352.683  0.00  0.00    +0.000 A 
ATOM      8  C   UNL     1      55.730 224.582 353.752  0.00  0.00    +0.000 A 
ATOM      9  C   UNL     1      51.856 226.548 352.454  0.00  0.00    +0.000 A 
ATOM     10  C   UNL     1      53.977 227.742 353.074  0.00  0.00    +0.000 A 
ATOM     11  C   UNL     1      57.039 226.577 354.084  0.00  0.00    +0.000 A 
ATOM     12  C   UNL     1      51.668 224.137 352.491  0.00  0.00    +0.000 A 
ATOM     13  C   UNL     1      56.774 223.732 354.114  0.00  0.00    +0.000 A 
ATOM     14  C   UNL     1      50.539 226.684 352.034  0.00  0.00    +0.000 A 
ATOM     15  C   UNL     1      58.108 225.754 354.453  0.00  0.00    +0.000 A 
ATOM     16  C   UNL     1      57.967 224.368 354.464  0.00  0.00    +0.000 A 
ATOM     17  C   UNL     1      50.345 224.259 352.070  0.00  0.00    +0.000 A 
ATOM     18  C   UNL     1      49.794 225.525 351.846  0.00  0.00    +0.000 A 
ENDROOT
BRANCH  16  19
ATOM     19  O   UNL     1      59.054 223.623 354.836  0.00  0.00    +0.000 OA
ATOM     20  H   UNL     1      59.809 224.224 354.962  0.00  0.00    +0.000 HD
ENDBRANCH  16  19
BRANCH  18  21
ATOM     21  O   UNL     1      48.498 225.652 351.433  0.00  0.00    +0.000 OA
ATOM     22  H   UNL     1      47.938 225.094 352.001  0.00  0.00    +0.000 HD
ENDBRANCH  18  21
TORSDOF 2
ENDMDL
MODEL 6
REMARK VINA RESULT:      -5.0      1.899      6.728
REMARK  Name = COUMESTROL.pdbqt.pdb
REMARK  2 active torsions:
REMARK  status: ('A' for Active; 'I' for Inactive)
REMARK    1  A    between atoms: C_16  and  O_19
REMARK    2  A    between atoms: C_18  and  O_21
REMARK                            x       y       z     vdW  Elec       q    Type
REMARK                         _______ _______ _______ _____ _____    ______ ____
ROOT
ATOM      1  O   UNL     1      58.813 217.007 333.950  0.00  0.00    +0.000 OA
ATOM      2  O   UNL     1      55.493 219.215 334.834  0.00  0.00    +0.000 OA
ATOM      3  O   UNL     1      56.408 219.591 336.922  0.00  0.00    +0.000 OA
ATOM      4  C   UNL     1      57.644 218.271 335.414  0.00  0.00    +0.000 A 
ATOM      5  C   UNL     1      57.685 217.719 334.161  0.00  0.00    +0.000 A 
ATOM      6  C   UNL     1      58.846 217.876 336.051  0.00  0.00    +0.000 A 
ATOM      7  C   UNL     1      56.673 217.854 333.157  0.00  0.00    +0.000 A 
ATOM      8  C   UNL     1      59.531 217.100 335.111  0.00  0.00    +0.000 A 
ATOM      9  C   UNL     1      55.565 218.626 333.534  0.00  0.00    +0.000 A 
ATOM     10  C   UNL     1      56.509 219.069 335.819  0.00  0.00    +0.000 A 
ATOM     11  C   UNL     1      59.435 218.082 337.309  0.00  0.00    +0.000 A 
ATOM     12  C   UNL     1      56.727 217.288 331.889  0.00  0.00    +0.000 A 
ATOM     13  C   UNL     1      60.774 216.508 335.335  0.00  0.00    +0.000 A 
ATOM     14  C   UNL     1      54.503 218.845 332.665  0.00  0.00    +0.000 A 
ATOM     15  C   UNL     1      60.681 217.503 337.568  0.00  0.00    +0.000 A 
ATOM     16  C   UNL     1      61.324 216.737 336.598  0.00  0.00    +0.000 A 
ATOM     17  C   UNL     1      55.668 217.500 331.006  0.00  0.00    +0.000 A 
ATOM     18  C   UNL     1      54.572 218.273 331.400  0.00  0.00    +0.000 A 
ENDROOT
BRANCH  16  19
ATOM     19  O   UNL     1      62.542 216.200 336.920  0.00  0.00    +0.000 OA
ATOM     20  H   UNL     1      62.458 215.736 337.771  0.00  0.00    +0.000 HD
ENDBRANCH  16  19
BRANCH  18  21
ATOM     21  O   UNL     1      53.531 218.485 330.540  0.00  0.00    +0.000 OA
ATOM     22  H   UNL     1      52.891 219.076 330.972  0.00  0.00    +0.000 HD
ENDBRANCH  18  21
TORSDOF 2
ENDMDL
MODEL 7
REMARK VINA RESULT:      -5.0     15.612     18.678
REMARK  Name = COUMESTROL.pdbqt.pdb
REMARK  2 active torsions:
REMARK  status: ('A' for Active; 'I' for Inactive)
REMARK    1  A    between atoms: C_16  and  O_19
REMARK    2  A    between atoms: C_18  and  O_21
REMARK                            x       y       z     vdW  Elec       q    Type
REMARK                         _______ _______ _______ _____ _____    ______ ____
ROOT
ATOM      1  O   UNL     1      72.847 222.811 340.431  0.00  0.00    +0.000 OA
ATOM      2  O   UNL     1      71.688 223.375 336.555  0.00  0.00    +0.000 OA
ATOM      3  O   UNL     1      73.567 224.690 336.278  0.00  0.00    +0.000 OA
ATOM      4  C   UNL     1      73.210 223.736 338.401  0.00  0.00    +0.000 A 
ATOM      5  C   UNL     1      72.393 222.946 339.166  0.00  0.00    +0.000 A 
ATOM      6  C   UNL     1      74.270 224.135 339.252  0.00  0.00    +0.000 A 
ATOM      7  C   UNL     1      71.187 222.315 338.720  0.00  0.00    +0.000 A 
ATOM      8  C   UNL     1      74.002 223.541 340.489  0.00  0.00    +0.000 A 
ATOM      9  C   UNL     1      70.856 222.555 337.379  0.00  0.00    +0.000 A 
ATOM     10  C   UNL     1      72.882 223.994 337.017  0.00  0.00    +0.000 A 
ATOM     11  C   UNL     1      75.422 224.928 339.122  0.00  0.00    +0.000 A 
ATOM     12  C   UNL     1      70.368 221.515 339.506  0.00  0.00    +0.000 A 
ATOM     13  C   UNL     1      74.808 223.680 341.619  0.00  0.00    +0.000 A 
ATOM     14  C   UNL     1      69.714 222.009 336.804  0.00  0.00    +0.000 A 
ATOM     15  C   UNL     1      76.252 225.088 340.236  0.00  0.00    +0.000 A 
ATOM     16  C   UNL     1      75.943 224.475 341.448  0.00  0.00    +0.000 A 
ATOM     17  C   UNL     1      69.219 220.960 338.943  0.00  0.00    +0.000 A 
ATOM     18  C   UNL     1      68.904 221.211 337.604  0.00  0.00    +0.000 A 
ENDROOT
BRANCH  16  19
ATOM     19  O   UNL     1      76.800 224.676 342.497  0.00  0.00    +0.000 OA
ATOM     20  H   UNL     1      76.400 225.324 343.101  0.00  0.00    +0.000 HD
ENDBRANCH  16  19
BRANCH  18  21
ATOM     21  O   UNL     1      67.780 220.671 337.046  0.00  0.00    +0.000 OA
ATOM     22  H   UNL     1      67.640 219.787 337.429  0.00  0.00    +0.000 HD
ENDBRANCH  18  21
TORSDOF 2
ENDMDL
MODEL 8
REMARK VINA RESULT:      -4.9     11.558     14.117
REMARK  Name = COUMESTROL.pdbqt.pdb
REMARK  2 active torsions:
REMARK  status: ('A' for Active; 'I' for Inactive)
REMARK    1  A    between atoms: C_16  and  O_19
REMARK    2  A    between atoms: C_18  and  O_21
REMARK                            x       y       z     vdW  Elec       q    Type
REMARK                         _______ _______ _______ _____ _____    ______ ____
ROOT
ATOM      1  O   UNL     1      69.583 219.541 340.350  0.00  0.00    +0.000 OA
ATOM      2  O   UNL     1      66.346 218.342 338.167  0.00  0.00    +0.000 OA
ATOM      3  O   UNL     1      66.524 220.318 336.983  0.00  0.00    +0.000 OA
ATOM      4  C   UNL     1      68.090 219.933 338.698  0.00  0.00    +0.000 A 
ATOM      5  C   UNL     1      68.510 219.071 339.677  0.00  0.00    +0.000 A 
ATOM      6  C   UNL     1      68.969 221.042 338.756  0.00  0.00    +0.000 A 
ATOM      7  C   UNL     1      67.914 217.806 339.987  0.00  0.00    +0.000 A 
ATOM      8  C   UNL     1      69.869 220.755 339.787  0.00  0.00    +0.000 A 
ATOM      9  C   UNL     1      66.808 217.464 339.195  0.00  0.00    +0.000 A 
ATOM     10  C   UNL     1      66.952 219.595 337.874  0.00  0.00    +0.000 A 
ATOM     11  C   UNL     1      69.109 222.253 338.060  0.00  0.00    +0.000 A 
ATOM     12  C   UNL     1      68.351 216.941 340.983  0.00  0.00    +0.000 A 
ATOM     13  C   UNL     1      70.910 221.596 340.179  0.00  0.00    +0.000 A 
ATOM     14  C   UNL     1      66.126 216.268 339.380  0.00  0.00    +0.000 A 
ATOM     15  C   UNL     1      70.143 223.120 338.426  0.00  0.00    +0.000 A 
ATOM     16  C   UNL     1      71.015 222.789 339.461  0.00  0.00    +0.000 A 
ATOM     17  C   UNL     1      67.676 215.737 341.179  0.00  0.00    +0.000 A 
ATOM     18  C   UNL     1      66.575 215.412 340.380  0.00  0.00    +0.000 A 
ENDROOT
BRANCH  16  19
ATOM     19  O   UNL     1      72.005 223.685 339.767  0.00  0.00    +0.000 OA
ATOM     20  H   UNL     1      71.686 224.263 340.482  0.00  0.00    +0.000 HD
ENDBRANCH  16  19
BRANCH  18  21
ATOM     21  O   UNL     1      65.909 214.234 340.567  0.00  0.00    +0.000 OA
ATOM     22  H   UNL     1      66.552 213.506 340.514  0.00  0.00    +0.000 HD
ENDBRANCH  18  21
TORSDOF 2
ENDMDL
MODEL 9
REMARK VINA RESULT:      -4.8     20.174     22.443
REMARK  Name = COUMESTROL.pdbqt.pdb
REMARK  2 active torsions:
REMARK  status: ('A' for Active; 'I' for Inactive)
REMARK    1  A    between atoms: C_16  and  O_19
REMARK    2  A    between atoms: C_18  and  O_21
REMARK                            x       y       z     vdW  Elec       q    Type
REMARK                         _______ _______ _______ _____ _____    ______ ____
ROOT
ATOM      1  O   UNL     1      47.371 235.616 321.306  0.00  0.00    +0.000 OA
ATOM      2  O   UNL     1      49.291 235.442 324.907  0.00  0.00    +0.000 OA
ATOM      3  O   UNL     1      49.368 233.147 324.654  0.00  0.00    +0.000 OA
ATOM      4  C   UNL     1      48.347 234.396 322.940  0.00  0.00    +0.000 A 
ATOM      5  C   UNL     1      48.000 235.647 322.501  0.00  0.00    +0.000 A 
ATOM      6  C   UNL     1      47.901 233.498 321.939  0.00  0.00    +0.000 A 
ATOM      7  C   UNL     1      48.254 236.874 323.194  0.00  0.00    +0.000 A 
ATOM      8  C   UNL     1      47.308 234.295 320.956  0.00  0.00    +0.000 A 
ATOM      9  C   UNL     1      48.916 236.734 324.422  0.00  0.00    +0.000 A 
ATOM     10  C   UNL     1      49.030 234.234 324.203  0.00  0.00    +0.000 A 
ATOM     11  C   UNL     1      47.929 232.106 321.750  0.00  0.00    +0.000 A 
ATOM     12  C   UNL     1      47.897 238.137 322.737  0.00  0.00    +0.000 A 
ATOM     13  C   UNL     1      46.734 233.802 319.784  0.00  0.00    +0.000 A 
ATOM     14  C   UNL     1      49.230 237.835 325.207  0.00  0.00    +0.000 A 
ATOM     15  C   UNL     1      47.362 231.578 320.586  0.00  0.00    +0.000 A 
ATOM     16  C   UNL     1      46.782 232.414 319.635  0.00  0.00    +0.000 A 
ATOM     17  C   UNL     1      48.206 239.252 323.515  0.00  0.00    +0.000 A 
ATOM     18  C   UNL     1      48.866 239.093 324.737  0.00  0.00    +0.000 A 
ENDROOT
BRANCH  16  19
ATOM     19  O   UNL     1      46.246 231.829 318.519  0.00  0.00    +0.000 OA
ATOM     20  H   UNL     1      45.405 231.408 318.767  0.00  0.00    +0.000 HD
ENDBRANCH  16  19
BRANCH  18  21
ATOM     21  O   UNL     1      49.172 240.181 325.505  0.00  0.00    +0.000 OA
ATOM     22  H   UNL     1      50.090 240.442 325.316  0.00  0.00    +0.000 HD
ENDBRANCH  18  21
TORSDOF 2
ENDMDL
