REMARK  Name = COUMESTROL.pdbqt.pdb
REMARK  2 active torsions:
REMARK  status: ('A' for Active; 'I' for Inactive)
REMARK    1  A    between atoms: C_16  and  O_19
REMARK    2  A    between atoms: C_18  and  O_21
REMARK                            x       y       z     vdW  Elec       q    Type
REMARK                         _______ _______ _______ _____ _____    ______ ____
ROOT
ATOM      1  O   UNL     1       0.699   1.402   0.000  0.00  0.00    +0.000 OA
ATOM      2  O   UNL     1      -1.679  -1.919   0.000  0.00  0.00    +0.000 OA
ATOM      3  O   UNL     1       0.250  -3.191   0.000  0.00  0.00    +0.000 OA
ATOM      4  C   UNL     1       0.491  -0.849   0.000  0.00  0.00    +0.000 A 
ATOM      5  C   UNL     1      -0.158   0.358   0.000  0.00  0.00    +0.000 A 
ATOM      6  C   UNL     1       1.875  -0.544   0.000  0.00  0.00    +0.000 A 
ATOM      7  C   UNL     1      -1.578   0.541   0.000  0.00  0.00    +0.000 A 
ATOM      8  C   UNL     1       1.952   0.852   0.000  0.00  0.00    +0.000 A 
ATOM      9  C   UNL     1      -2.327  -0.645   0.000  0.00  0.00    +0.000 A 
ATOM     10  C   UNL     1      -0.266  -2.080   0.000  0.00  0.00    +0.000 A 
ATOM     11  C   UNL     1       3.069  -1.283   0.000  0.00  0.00    +0.000 A 
ATOM     12  C   UNL     1      -2.224   1.771   0.000  0.00  0.00    +0.000 A 
ATOM     13  C   UNL     1       3.145   1.574   0.000  0.00  0.00    +0.000 A 
ATOM     14  C   UNL     1      -3.716  -0.626   0.000  0.00  0.00    +0.000 A 
ATOM     15  C   UNL     1       4.284  -0.591   0.000  0.00  0.00    +0.000 A 
ATOM     16  C   UNL     1       4.309   0.802   0.000  0.00  0.00    +0.000 A 
ATOM     17  C   UNL     1      -3.618   1.805   0.000  0.00  0.00    +0.000 A 
ATOM     18  C   UNL     1      -4.348   0.613   0.000  0.00  0.00    +0.000 A 
ENDROOT
BRANCH  16  19
ATOM     19  O   UNL     1       5.534   1.414   0.000  0.00  0.00    +0.000 OA
ATOM     20  H   UNL     1       5.396   2.377   0.000  0.00  0.00    +0.000 HD
ENDBRANCH  16  19
BRANCH  18  21
ATOM     21  O   UNL     1      -5.714   0.639   0.000  0.00  0.00    +0.000 OA
ATOM     22  H   UNL     1      -6.004   1.568   0.001  0.00  0.00    +0.000 HD
ENDBRANCH  18  21
TORSDOF 2
