MODEL 1
REMARK VINA RESULT:      -6.4      0.000      0.000
REMARK  Name = CP466722.pdbqt.pdb
REMARK  3 active torsions:
REMARK  status: ('A' for Active; 'I' for Inactive)
REMARK    1  A    between atoms: C_5  and  C_23
REMARK    2  A    between atoms: C_14  and  O_16
REMARK    3  A    between atoms: C_15  and  O_18
REMARK                            x       y       z     vdW  Elec       q    Type
REMARK                         _______ _______ _______ _____ _____    ______ ____
ROOT
ATOM      1  N   UNL     1      53.089 243.635 324.127  0.00  0.00    +0.000 N 
ATOM      2  N   UNL     1      53.944 244.681 324.038  0.00  0.00    +0.000 NA
ATOM      3  N   UNL     1      54.079 243.395 322.164  0.00  0.00    +0.000 NA
ATOM      4  C   UNL     1      53.181 242.873 322.960  0.00  0.00    +0.000 A 
ATOM      5  C   UNL     1      54.527 244.504 322.843  0.00  0.00    +0.000 A 
ATOM      6  C   UNL     1      52.276 243.386 325.283  0.00  0.00    +0.000 A 
ATOM      7  N   UNL     1      51.564 242.228 325.293  0.00  0.00    +0.000 NA
ATOM      8  C   UNL     1      50.825 241.986 326.381  0.00  0.00    +0.000 A 
ATOM      9  N   UNL     1      50.738 242.779 327.452  0.00  0.00    +0.000 NA
ATOM     10  C   UNL     1      51.439 243.915 327.436  0.00  0.00    +0.000 A 
ATOM     11  C   UNL     1      52.244 244.299 326.356  0.00  0.00    +0.000 A 
ATOM     12  C   UNL     1      51.364 244.742 328.548  0.00  0.00    +0.000 A 
ATOM     13  C   UNL     1      52.919 245.540 326.430  0.00  0.00    +0.000 A 
ATOM     14  C   UNL     1      52.806 246.379 327.533  0.00  0.00    +0.000 A 
ATOM     15  C   UNL     1      52.064 245.948 328.626  0.00  0.00    +0.000 A 
ATOM     16  N   UNL     1      52.448 241.773 322.699  0.00  0.00    +0.000 N 
ATOM     17  H   UNL     1      52.752 241.163 321.948  0.00  0.00    +0.000 HD
ATOM     18  H   UNL     1      51.943 241.315 323.457  0.00  0.00    +0.000 HD
ENDROOT
BRANCH   5  19
ATOM     19  C   UNL     1      55.555 245.392 322.291  0.00  0.00    +0.000 A 
ATOM     20  N   UNL     1      56.345 244.911 321.292  0.00  0.00    +0.000 NA
ATOM     21  C   UNL     1      57.285 245.748 320.801  0.00  0.00    +0.000 A 
ATOM     22  C   UNL     1      57.482 247.043 321.247  0.00  0.00    +0.000 A 
ATOM     23  C   UNL     1      56.660 247.507 322.265  0.00  0.00    +0.000 A 
ATOM     24  C   UNL     1      55.681 246.678 322.800  0.00  0.00    +0.000 A 
ENDBRANCH   5  19
BRANCH  14  25
ATOM     25  O   UNL     1      53.511 247.552 327.533  0.00  0.00    +0.000 OA
ATOM     26  C   UNL     1      53.393 248.196 326.289  0.00  0.00    +0.000 C 
ENDBRANCH  14  25
BRANCH  15  27
ATOM     27  O   UNL     1      51.937 246.727 329.745  0.00  0.00    +0.000 OA
ATOM     28  C   UNL     1      51.048 246.128 330.654  0.00  0.00    +0.000 C 
ENDBRANCH  15  27
TORSDOF 3
ENDMDL
MODEL 2
REMARK VINA RESULT:      -5.8     20.107     21.739
REMARK  Name = CP466722.pdbqt.pdb
REMARK  3 active torsions:
REMARK  status: ('A' for Active; 'I' for Inactive)
REMARK    1  A    between atoms: C_5  and  C_23
REMARK    2  A    between atoms: C_14  and  O_16
REMARK    3  A    between atoms: C_15  and  O_18
REMARK                            x       y       z     vdW  Elec       q    Type
REMARK                         _______ _______ _______ _____ _____    ______ ____
ROOT
ATOM      1  N   UNL     1      61.641 225.117 326.140  0.00  0.00    +0.000 N 
ATOM      2  N   UNL     1      61.494 225.758 324.957  0.00  0.00    +0.000 NA
ATOM      3  N   UNL     1      63.272 226.610 326.097  0.00  0.00    +0.000 NA
ATOM      4  C   UNL     1      62.745 225.648 326.810  0.00  0.00    +0.000 A 
ATOM      5  C   UNL     1      62.492 226.654 324.964  0.00  0.00    +0.000 A 
ATOM      6  C   UNL     1      60.744 224.091 326.591  0.00  0.00    +0.000 A 
ATOM      7  N   UNL     1      60.929 223.627 327.855  0.00  0.00    +0.000 NA
ATOM      8  C   UNL     1      60.078 222.688 328.281  0.00  0.00    +0.000 A 
ATOM      9  N   UNL     1      59.064 222.181 327.574  0.00  0.00    +0.000 NA
ATOM     10  C   UNL     1      58.888 222.640 326.334  0.00  0.00    +0.000 A 
ATOM     11  C   UNL     1      59.714 223.614 325.756  0.00  0.00    +0.000 A 
ATOM     12  C   UNL     1      57.832 222.127 325.593  0.00  0.00    +0.000 A 
ATOM     13  C   UNL     1      59.456 224.006 324.421  0.00  0.00    +0.000 A 
ATOM     14  C   UNL     1      58.419 223.457 323.676  0.00  0.00    +0.000 A 
ATOM     15  C   UNL     1      57.565 222.548 324.289  0.00  0.00    +0.000 A 
ATOM     16  N   UNL     1      63.197 225.224 328.007  0.00  0.00    +0.000 N 
ATOM     17  H   UNL     1      63.843 225.820 328.513  0.00  0.00    +0.000 HD
ATOM     18  H   UNL     1      62.603 224.632 328.587  0.00  0.00    +0.000 HD
ENDROOT
BRANCH   5  19
ATOM     19  C   UNL     1      62.747 227.608 323.881  0.00  0.00    +0.000 A 
ATOM     20  N   UNL     1      64.005 227.667 323.364  0.00  0.00    +0.000 NA
ATOM     21  C   UNL     1      64.215 228.555 322.367  0.00  0.00    +0.000 A 
ATOM     22  C   UNL     1      63.240 229.389 321.852  0.00  0.00    +0.000 A 
ATOM     23  C   UNL     1      61.965 229.305 322.396  0.00  0.00    +0.000 A 
ATOM     24  C   UNL     1      61.706 228.407 323.424  0.00  0.00    +0.000 A 
ENDBRANCH   5  19
BRANCH  14  25
ATOM     25  O   UNL     1      58.226 223.909 322.398  0.00  0.00    +0.000 OA
ATOM     26  C   UNL     1      59.420 224.438 321.879  0.00  0.00    +0.000 C 
ENDBRANCH  14  25
BRANCH  15  27
ATOM     27  O   UNL     1      56.516 221.994 323.605  0.00  0.00    +0.000 OA
ATOM     28  C   UNL     1      56.811 220.663 323.261  0.00  0.00    +0.000 C 
ENDBRANCH  15  27
TORSDOF 3
ENDMDL
MODEL 3
REMARK VINA RESULT:      -5.7     31.014     32.242
REMARK  Name = CP466722.pdbqt.pdb
REMARK  3 active torsions:
REMARK  status: ('A' for Active; 'I' for Inactive)
REMARK    1  A    between atoms: C_5  and  C_23
REMARK    2  A    between atoms: C_14  and  O_16
REMARK    3  A    between atoms: C_15  and  O_18
REMARK                            x       y       z     vdW  Elec       q    Type
REMARK                         _______ _______ _______ _____ _____    ______ ____
ROOT
ATOM      1  N   UNL     1      68.204 219.515 339.145  0.00  0.00    +0.000 N 
ATOM      2  N   UNL     1      68.202 220.049 337.901  0.00  0.00    +0.000 NA
ATOM      3  N   UNL     1      66.521 218.527 338.104  0.00  0.00    +0.000 NA
ATOM      4  C   UNL     1      67.155 218.597 339.246  0.00  0.00    +0.000 A 
ATOM      5  C   UNL     1      67.176 219.430 337.299  0.00  0.00    +0.000 A 
ATOM      6  C   UNL     1      69.182 219.851 340.140  0.00  0.00    +0.000 A 
ATOM      7  N   UNL     1      69.147 219.141 341.299  0.00  0.00    +0.000 NA
ATOM      8  C   UNL     1      70.074 219.440 342.215  0.00  0.00    +0.000 A 
ATOM      9  N   UNL     1      71.028 220.366 342.081  0.00  0.00    +0.000 NA
ATOM     10  C   UNL     1      71.057 221.060 340.942  0.00  0.00    +0.000 A 
ATOM     11  C   UNL     1      70.138 220.859 339.903  0.00  0.00    +0.000 A 
ATOM     12  C   UNL     1      72.049 222.018 340.787  0.00  0.00    +0.000 A 
ATOM     13  C   UNL     1      70.240 221.673 338.750  0.00  0.00    +0.000 A 
ATOM     14  C   UNL     1      71.215 222.656 338.622  0.00  0.00    +0.000 A 
ATOM     15  C   UNL     1      72.163 222.791 339.630  0.00  0.00    +0.000 A 
ATOM     16  N   UNL     1      66.847 217.900 340.357  0.00  0.00    +0.000 N 
ATOM     17  H   UNL     1      66.234 217.097 340.264  0.00  0.00    +0.000 HD
ATOM     18  H   UNL     1      67.520 217.849 341.121  0.00  0.00    +0.000 HD
ENDROOT
BRANCH   5  19
ATOM     19  C   UNL     1      66.773 219.669 335.910  0.00  0.00    +0.000 A 
ATOM     20  N   UNL     1      65.442 219.726 335.632  0.00  0.00    +0.000 NA
ATOM     21  C   UNL     1      65.096 219.946 334.344  0.00  0.00    +0.000 A 
ATOM     22  C   UNL     1      66.004 220.116 333.314  0.00  0.00    +0.000 A 
ATOM     23  C   UNL     1      67.355 220.056 333.629  0.00  0.00    +0.000 A 
ATOM     24  C   UNL     1      67.755 219.830 334.940  0.00  0.00    +0.000 A 
ENDBRANCH   5  19
BRANCH  14  25
ATOM     25  O   UNL     1      71.256 223.384 337.464  0.00  0.00    +0.000 OA
ATOM     26  C   UNL     1      71.862 222.641 336.437  0.00  0.00    +0.000 C 
ENDBRANCH  14  25
BRANCH  15  27
ATOM     27  O   UNL     1      73.156 223.729 339.544  0.00  0.00    +0.000 OA
ATOM     28  C   UNL     1      74.033 223.608 340.635  0.00  0.00    +0.000 C 
ENDBRANCH  15  27
TORSDOF 3
ENDMDL
MODEL 4
REMARK VINA RESULT:      -5.7     21.506     24.519
REMARK  Name = CP466722.pdbqt.pdb
REMARK  3 active torsions:
REMARK  status: ('A' for Active; 'I' for Inactive)
REMARK    1  A    between atoms: C_5  and  C_23
REMARK    2  A    between atoms: C_14  and  O_16
REMARK    3  A    between atoms: C_15  and  O_18
REMARK                            x       y       z     vdW  Elec       q    Type
REMARK                         _______ _______ _______ _____ _____    ______ ____
ROOT
ATOM      1  N   UNL     1      56.453 240.419 349.850  0.00  0.00    +0.000 N 
ATOM      2  N   UNL     1      57.282 241.443 349.535  0.00  0.00    +0.000 NA
ATOM      3  N   UNL     1      58.156 240.222 351.247  0.00  0.00    +0.000 NA
ATOM      4  C   UNL     1      57.020 239.680 350.891  0.00  0.00    +0.000 A 
ATOM      5  C   UNL     1      58.298 241.295 350.398  0.00  0.00    +0.000 A 
ATOM      6  C   UNL     1      55.188 240.210 349.205  0.00  0.00    +0.000 A 
ATOM      7  N   UNL     1      54.398 239.227 349.711  0.00  0.00    +0.000 NA
ATOM      8  C   UNL     1      53.210 239.049 349.123  0.00  0.00    +0.000 A 
ATOM      9  N   UNL     1      52.739 239.759 348.094  0.00  0.00    +0.000 NA
ATOM     10  C   UNL     1      53.519 240.723 347.602  0.00  0.00    +0.000 A 
ATOM     11  C   UNL     1      54.792 241.008 348.113  0.00  0.00    +0.000 A 
ATOM     12  C   UNL     1      53.037 241.474 346.539  0.00  0.00    +0.000 A 
ATOM     13  C   UNL     1      55.550 242.031 347.494  0.00  0.00    +0.000 A 
ATOM     14  C   UNL     1      55.071 242.751 346.405  0.00  0.00    +0.000 A 
ATOM     15  C   UNL     1      53.778 242.505 345.960  0.00  0.00    +0.000 A 
ATOM     16  N   UNL     1      56.476 238.574 351.434  0.00  0.00    +0.000 N 
ATOM     17  H   UNL     1      56.834 238.253 352.328  0.00  0.00    +0.000 HD
ATOM     18  H   UNL     1      55.497 238.355 351.253  0.00  0.00    +0.000 HD
ENDROOT
BRANCH   5  19
ATOM     19  C   UNL     1      59.461 242.186 350.458  0.00  0.00    +0.000 A 
ATOM     20  N   UNL     1      60.156 242.251 351.626  0.00  0.00    +0.000 NA
ATOM     21  C   UNL     1      61.223 243.080 351.656  0.00  0.00    +0.000 A 
ATOM     22  C   UNL     1      61.640 243.849 350.584  0.00  0.00    +0.000 A 
ATOM     23  C   UNL     1      60.913 243.759 349.404  0.00  0.00    +0.000 A 
ATOM     24  C   UNL     1      59.808 242.920 349.331  0.00  0.00    +0.000 A 
ENDBRANCH   5  19
BRANCH  14  25
ATOM     25  O   UNL     1      55.861 243.738 345.881  0.00  0.00    +0.000 OA
ATOM     26  C   UNL     1      55.908 244.843 346.748  0.00  0.00    +0.000 C 
ENDBRANCH  14  25
BRANCH  15  27
ATOM     27  O   UNL     1      53.252 243.200 344.904  0.00  0.00    +0.000 OA
ATOM     28  C   UNL     1      52.409 244.225 345.371  0.00  0.00    +0.000 C 
ENDBRANCH  15  27
TORSDOF 3
ENDMDL
MODEL 5
REMARK VINA RESULT:      -5.4     25.421     27.251
REMARK  Name = CP466722.pdbqt.pdb
REMARK  3 active torsions:
REMARK  status: ('A' for Active; 'I' for Inactive)
REMARK    1  A    between atoms: C_5  and  C_23
REMARK    2  A    between atoms: C_14  and  O_16
REMARK    3  A    between atoms: C_15  and  O_18
REMARK                            x       y       z     vdW  Elec       q    Type
REMARK                         _______ _______ _______ _____ _____    ______ ____
ROOT
ATOM      1  N   UNL     1      63.027 221.085 330.024  0.00  0.00    +0.000 N 
ATOM      2  N   UNL     1      61.715 220.976 329.706  0.00  0.00    +0.000 NA
ATOM      3  N   UNL     1      62.697 222.597 328.444  0.00  0.00    +0.000 NA
ATOM      4  C   UNL     1      63.606 222.074 329.226  0.00  0.00    +0.000 A 
ATOM      5  C   UNL     1      61.549 221.904 328.752  0.00  0.00    +0.000 A 
ATOM      6  C   UNL     1      63.649 220.305 331.056  0.00  0.00    +0.000 A 
ATOM      7  N   UNL     1      64.938 220.611 331.362  0.00  0.00    +0.000 NA
ATOM      8  C   UNL     1      65.509 219.900 332.340  0.00  0.00    +0.000 A 
ATOM      9  N   UNL     1      64.916 218.927 333.039  0.00  0.00    +0.000 NA
ATOM     10  C   UNL     1      63.652 218.631 332.734  0.00  0.00    +0.000 A 
ATOM     11  C   UNL     1      62.937 219.289 331.723  0.00  0.00    +0.000 A 
ATOM     12  C   UNL     1      63.023 217.629 333.460  0.00  0.00    +0.000 A 
ATOM     13  C   UNL     1      61.611 218.872 331.460  0.00  0.00    +0.000 A 
ATOM     14  C   UNL     1      61.004 217.841 332.169  0.00  0.00    +0.000 A 
ATOM     15  C   UNL     1      61.701 217.252 333.217  0.00  0.00    +0.000 A 
ATOM     16  N   UNL     1      64.907 222.425 329.258  0.00  0.00    +0.000 N 
ATOM     17  H   UNL     1      65.177 223.301 328.824  0.00  0.00    +0.000 HD
ATOM     18  H   UNL     1      65.487 222.129 330.042  0.00  0.00    +0.000 HD
ENDROOT
BRANCH   5  19
ATOM     19  C   UNL     1      60.272 222.179 328.087  0.00  0.00    +0.000 A 
ATOM     20  N   UNL     1      59.742 221.207 327.295  0.00  0.00    +0.000 NA
ATOM     21  C   UNL     1      58.565 221.485 326.693  0.00  0.00    +0.000 A 
ATOM     22  C   UNL     1      57.881 222.679 326.836  0.00  0.00    +0.000 A 
ATOM     23  C   UNL     1      58.445 223.651 327.652  0.00  0.00    +0.000 A 
ATOM     24  C   UNL     1      59.655 223.407 328.289  0.00  0.00    +0.000 A 
ENDBRANCH   5  19
BRANCH  14  25
ATOM     25  O   UNL     1      59.710 217.517 331.865  0.00  0.00    +0.000 OA
ATOM     26  C   UNL     1      59.665 216.674 330.741  0.00  0.00    +0.000 C 
ENDBRANCH  14  25
BRANCH  15  27
ATOM     27  O   UNL     1      61.142 216.246 333.958  0.00  0.00    +0.000 OA
ATOM     28  C   UNL     1      60.740 216.736 335.213  0.00  0.00    +0.000 C 
ENDBRANCH  15  27
TORSDOF 3
ENDMDL
MODEL 6
REMARK VINA RESULT:      -5.4      2.220      6.922
REMARK  Name = CP466722.pdbqt.pdb
REMARK  3 active torsions:
REMARK  status: ('A' for Active; 'I' for Inactive)
REMARK    1  A    between atoms: C_5  and  C_23
REMARK    2  A    between atoms: C_14  and  O_16
REMARK    3  A    between atoms: C_15  and  O_18
REMARK                            x       y       z     vdW  Elec       q    Type
REMARK                         _______ _______ _______ _____ _____    ______ ____
ROOT
ATOM      1  N   UNL     1      52.153 244.239 326.855  0.00  0.00    +0.000 N 
ATOM      2  N   UNL     1      51.810 244.984 327.932  0.00  0.00    +0.000 NA
ATOM      3  N   UNL     1      51.047 242.853 328.177  0.00  0.00    +0.000 NA
ATOM      4  C   UNL     1      51.686 242.936 327.038  0.00  0.00    +0.000 A 
ATOM      5  C   UNL     1      51.142 244.118 328.709  0.00  0.00    +0.000 A 
ATOM      6  C   UNL     1      52.849 244.777 325.722  0.00  0.00    +0.000 A 
ATOM      7  N   UNL     1      53.010 243.952 324.653  0.00  0.00    +0.000 NA
ATOM      8  C   UNL     1      53.639 244.462 323.589  0.00  0.00    +0.000 A 
ATOM      9  N   UNL     1      54.109 245.709 323.489  0.00  0.00    +0.000 NA
ATOM     10  C   UNL     1      53.948 246.514 324.541  0.00  0.00    +0.000 A 
ATOM     11  C   UNL     1      53.319 246.106 325.725  0.00  0.00    +0.000 A 
ATOM     12  C   UNL     1      54.424 247.815 324.445  0.00  0.00    +0.000 A 
ATOM     13  C   UNL     1      53.231 247.032 326.791  0.00  0.00    +0.000 A 
ATOM     14  C   UNL     1      53.745 248.320 326.697  0.00  0.00    +0.000 A 
ATOM     15  C   UNL     1      54.298 248.731 325.491  0.00  0.00    +0.000 A 
ATOM     16  N   UNL     1      51.876 241.921 326.172  0.00  0.00    +0.000 N 
ATOM     17  H   UNL     1      51.304 241.090 326.275  0.00  0.00    +0.000 HD
ATOM     18  H   UNL     1      52.184 242.124 325.221  0.00  0.00    +0.000 HD
ENDROOT
BRANCH   5  19
ATOM     19  C   UNL     1      50.552 244.463 330.005  0.00  0.00    +0.000 A 
ATOM     20  N   UNL     1      49.823 243.511 330.650  0.00  0.00    +0.000 NA
ATOM     21  C   UNL     1      49.289 243.854 331.842  0.00  0.00    +0.000 A 
ATOM     22  C   UNL     1      49.441 245.095 332.434  0.00  0.00    +0.000 A 
ATOM     23  C   UNL     1      50.193 246.045 331.755  0.00  0.00    +0.000 A 
ATOM     24  C   UNL     1      50.759 245.735 330.525  0.00  0.00    +0.000 A 
ENDBRANCH   5  19
BRANCH  14  25
ATOM     25  O   UNL     1      53.597 249.158 327.769  0.00  0.00    +0.000 OA
ATOM     26  C   UNL     1      54.019 248.525 328.951  0.00  0.00    +0.000 C 
ENDBRANCH  14  25
BRANCH  15  27
ATOM     27  O   UNL     1      54.800 249.996 325.340  0.00  0.00    +0.000 OA
ATOM     28  C   UNL     1      56.204 249.970 325.403  0.00  0.00    +0.000 C 
ENDBRANCH  15  27
TORSDOF 3
ENDMDL
MODEL 7
REMARK VINA RESULT:      -5.4     32.360     33.011
REMARK  Name = CP466722.pdbqt.pdb
REMARK  3 active torsions:
REMARK  status: ('A' for Active; 'I' for Inactive)
REMARK    1  A    between atoms: C_5  and  C_23
REMARK    2  A    between atoms: C_14  and  O_16
REMARK    3  A    between atoms: C_15  and  O_18
REMARK                            x       y       z     vdW  Elec       q    Type
REMARK                         _______ _______ _______ _____ _____    ______ ____
ROOT
ATOM      1  N   UNL     1      71.043 222.165 338.389  0.00  0.00    +0.000 N 
ATOM      2  N   UNL     1      72.251 222.716 338.654  0.00  0.00    +0.000 NA
ATOM      3  N   UNL     1      71.456 223.486 336.664  0.00  0.00    +0.000 NA
ATOM      4  C   UNL     1      70.573 222.665 337.172  0.00  0.00    +0.000 A 
ATOM      5  C   UNL     1      72.471 223.506 337.592  0.00  0.00    +0.000 A 
ATOM      6  C   UNL     1      70.421 221.196 339.245  0.00  0.00    +0.000 A 
ATOM      7  N   UNL     1      69.273 220.625 338.792  0.00  0.00    +0.000 NA
ATOM      8  C   UNL     1      68.706 219.705 339.580  0.00  0.00    +0.000 A 
ATOM      9  N   UNL     1      69.179 219.300 340.762  0.00  0.00    +0.000 NA
ATOM     10  C   UNL     1      70.305 219.864 341.202  0.00  0.00    +0.000 A 
ATOM     11  C   UNL     1      70.995 220.850 340.484  0.00  0.00    +0.000 A 
ATOM     12  C   UNL     1      70.810 219.444 342.425  0.00  0.00    +0.000 A 
ATOM     13  C   UNL     1      72.163 221.404 341.059  0.00  0.00    +0.000 A 
ATOM     14  C   UNL     1      72.639 221.003 342.302  0.00  0.00    +0.000 A 
ATOM     15  C   UNL     1      71.984 219.972 342.966  0.00  0.00    +0.000 A 
ATOM     16  N   UNL     1      69.387 222.350 336.617  0.00  0.00    +0.000 N 
ATOM     17  H   UNL     1      69.243 222.571 335.638  0.00  0.00    +0.000 HD
ATOM     18  H   UNL     1      68.869 221.544 336.964  0.00  0.00    +0.000 HD
ENDROOT
BRANCH   5  19
ATOM     19  C   UNL     1      73.677 224.319 337.410  0.00  0.00    +0.000 A 
ATOM     20  N   UNL     1      73.692 225.220 336.389  0.00  0.00    +0.000 NA
ATOM     21  C   UNL     1      74.814 225.957 336.241  0.00  0.00    +0.000 A 
ATOM     22  C   UNL     1      75.927 225.850 337.057  0.00  0.00    +0.000 A 
ATOM     23  C   UNL     1      75.882 224.926 338.092  0.00  0.00    +0.000 A 
ATOM     24  C   UNL     1      74.747 224.146 338.279  0.00  0.00    +0.000 A 
ENDBRANCH   5  19
BRANCH  14  25
ATOM     25  O   UNL     1      73.789 221.575 342.775  0.00  0.00    +0.000 OA
ATOM     26  C   UNL     1      74.371 222.392 341.790  0.00  0.00    +0.000 C 
ENDBRANCH  14  25
BRANCH  15  27
ATOM     27  O   UNL     1      72.423 219.525 344.183  0.00  0.00    +0.000 OA
ATOM     28  C   UNL     1      71.660 220.099 345.214  0.00  0.00    +0.000 C 
ENDBRANCH  15  27
TORSDOF 3
ENDMDL
MODEL 8
REMARK VINA RESULT:      -5.4     31.140     33.000
REMARK  Name = CP466722.pdbqt.pdb
REMARK  3 active torsions:
REMARK  status: ('A' for Active; 'I' for Inactive)
REMARK    1  A    between atoms: C_5  and  C_23
REMARK    2  A    between atoms: C_14  and  O_16
REMARK    3  A    between atoms: C_15  and  O_18
REMARK                            x       y       z     vdW  Elec       q    Type
REMARK                         _______ _______ _______ _____ _____    ______ ____
ROOT
ATOM      1  N   UNL     1      56.861 229.083 353.431  0.00  0.00    +0.000 N 
ATOM      2  N   UNL     1      55.835 229.963 353.515  0.00  0.00    +0.000 NA
ATOM      3  N   UNL     1      57.826 231.069 353.559  0.00  0.00    +0.000 NA
ATOM      4  C   UNL     1      58.066 229.788 353.446  0.00  0.00    +0.000 A 
ATOM      5  C   UNL     1      56.453 231.152 353.593  0.00  0.00    +0.000 A 
ATOM      6  C   UNL     1      56.669 227.662 353.381  0.00  0.00    +0.000 A 
ATOM      7  N   UNL     1      57.787 226.890 353.435  0.00  0.00    +0.000 NA
ATOM      8  C   UNL     1      57.605 225.565 353.411  0.00  0.00    +0.000 A 
ATOM      9  N   UNL     1      56.423 224.946 353.349  0.00  0.00    +0.000 NA
ATOM     10  C   UNL     1      55.330 225.708 353.296  0.00  0.00    +0.000 A 
ATOM     11  C   UNL     1      55.376 227.108 353.300  0.00  0.00    +0.000 A 
ATOM     12  C   UNL     1      54.096 225.075 353.240  0.00  0.00    +0.000 A 
ATOM     13  C   UNL     1      54.156 227.820 353.207  0.00  0.00    +0.000 A 
ATOM     14  C   UNL     1      52.928 227.175 353.113  0.00  0.00    +0.000 A 
ATOM     15  C   UNL     1      52.896 225.787 353.186  0.00  0.00    +0.000 A 
ATOM     16  N   UNL     1      59.288 229.226 353.349  0.00  0.00    +0.000 N 
ATOM     17  H   UNL     1      60.093 229.786 353.607  0.00  0.00    +0.000 HD
ATOM     18  H   UNL     1      59.391 228.222 353.489  0.00  0.00    +0.000 HD
ENDROOT
BRANCH   5  19
ATOM     19  C   UNL     1      55.754 232.434 353.711  0.00  0.00    +0.000 A 
ATOM     20  N   UNL     1      54.397 232.415 353.817  0.00  0.00    +0.000 NA
ATOM     21  C   UNL     1      53.775 233.610 353.924  0.00  0.00    +0.000 A 
ATOM     22  C   UNL     1      54.430 234.828 353.934  0.00  0.00    +0.000 A 
ATOM     23  C   UNL     1      55.815 234.817 353.828  0.00  0.00    +0.000 A 
ATOM     24  C   UNL     1      56.494 233.610 353.714  0.00  0.00    +0.000 A 
ENDBRANCH   5  19
BRANCH  14  25
ATOM     25  O   UNL     1      51.795 227.939 353.050  0.00  0.00    +0.000 OA
ATOM     26  C   UNL     1      51.485 228.466 354.315  0.00  0.00    +0.000 C 
ENDBRANCH  14  25
BRANCH  15  27
ATOM     27  O   UNL     1      51.712 225.104 353.119  0.00  0.00    +0.000 OA
ATOM     28  C   UNL     1      51.540 224.556 351.835  0.00  0.00    +0.000 C 
ENDBRANCH  15  27
TORSDOF 3
ENDMDL
MODEL 9
REMARK VINA RESULT:      -5.4      1.871      6.552
REMARK  Name = CP466722.pdbqt.pdb
REMARK  3 active torsions:
REMARK  status: ('A' for Active; 'I' for Inactive)
REMARK    1  A    between atoms: C_5  and  C_23
REMARK    2  A    between atoms: C_14  and  O_16
REMARK    3  A    between atoms: C_15  and  O_18
REMARK                            x       y       z     vdW  Elec       q    Type
REMARK                         _______ _______ _______ _____ _____    ______ ____
ROOT
ATOM      1  N   UNL     1      52.385 243.709 325.910  0.00  0.00    +0.000 N 
ATOM      2  N   UNL     1      52.455 244.820 326.680  0.00  0.00    +0.000 NA
ATOM      3  N   UNL     1      51.334 243.170 327.779  0.00  0.00    +0.000 NA
ATOM      4  C   UNL     1      51.707 242.711 326.613  0.00  0.00    +0.000 A 
ATOM      5  C   UNL     1      51.810 244.461 327.800  0.00  0.00    +0.000 A 
ATOM      6  C   UNL     1      52.909 243.649 324.575  0.00  0.00    +0.000 A 
ATOM      7  N   UNL     1      52.651 242.517 323.866  0.00  0.00    +0.000 NA
ATOM      8  C   UNL     1      53.120 242.472 322.614  0.00  0.00    +0.000 A 
ATOM      9  N   UNL     1      53.808 243.445 322.008  0.00  0.00    +0.000 NA
ATOM     10  C   UNL     1      54.058 244.552 322.709  0.00  0.00    +0.000 A 
ATOM     11  C   UNL     1      53.637 244.727 324.034  0.00  0.00    +0.000 A 
ATOM     12  C   UNL     1      54.764 245.572 322.086  0.00  0.00    +0.000 A 
ATOM     13  C   UNL     1      53.985 245.929 324.695  0.00  0.00    +0.000 A 
ATOM     14  C   UNL     1      54.725 246.928 324.073  0.00  0.00    +0.000 A 
ATOM     15  C   UNL     1      55.070 246.769 322.737  0.00  0.00    +0.000 A 
ATOM     16  N   UNL     1      51.481 241.464 326.154  0.00  0.00    +0.000 N 
ATOM     17  H   UNL     1      50.784 240.899 326.627  0.00  0.00    +0.000 HD
ATOM     18  H   UNL     1      51.605 241.263 325.162  0.00  0.00    +0.000 HD
ENDROOT
BRANCH   5  19
ATOM     19  C   UNL     1      51.609 245.346 328.952  0.00  0.00    +0.000 A 
ATOM     20  N   UNL     1      50.976 244.839 330.045  0.00  0.00    +0.000 NA
ATOM     21  C   UNL     1      50.802 245.674 331.092  0.00  0.00    +0.000 A 
ATOM     22  C   UNL     1      51.227 246.990 331.115  0.00  0.00    +0.000 A 
ATOM     23  C   UNL     1      51.873 247.480 329.987  0.00  0.00    +0.000 A 
ATOM     24  C   UNL     1      52.071 246.655 328.887  0.00  0.00    +0.000 A 
ENDBRANCH   5  19
BRANCH  14  25
ATOM     25  O   UNL     1      55.000 248.068 324.779  0.00  0.00    +0.000 OA
ATOM     26  C   UNL     1      53.950 248.362 325.666  0.00  0.00    +0.000 C 
ENDBRANCH  14  25
BRANCH  15  27
ATOM     27  O   UNL     1      55.781 247.732 322.072  0.00  0.00    +0.000 OA
ATOM     28  C   UNL     1      57.066 247.256 321.759  0.00  0.00    +0.000 C 
ENDBRANCH  15  27
TORSDOF 3
ENDMDL
