MODEL 1
REMARK VINA RESULT:      -5.6      0.000      0.000
REMARK  Name = Curcumin.pdbqt.pdb
REMARK  8 active torsions:
REMARK  status: ('A' for Active; 'I' for Inactive)
REMARK    1  A    between atoms: C_2  and  C_4
REMARK    2  A    between atoms: C_5  and  C_6
REMARK    3  A    between atoms: C_8  and  O_12
REMARK    4  A    between atoms: C_9  and  O_14
REMARK    5  A    between atoms: C_16  and  C_18
REMARK    6  A    between atoms: C_19  and  C_20
REMARK    7  A    between atoms: C_22  and  O_26
REMARK    8  A    between atoms: C_23  and  O_28
REMARK                            x       y       z     vdW  Elec       q    Type
REMARK                         _______ _______ _______ _____ _____    ______ ____
ROOT
ATOM      1  C   UNL     1      52.595 243.040 324.868  0.00  0.00    +0.000 C 
ATOM      2  C   UNL     1      53.238 243.349 323.634  0.00  0.00    +0.000 C 
ATOM      3  O   UNL     1      53.134 242.582 322.689  0.00  0.00    +0.000 OA
ATOM      4  C   UNL     1      51.954 242.727 326.102  0.00  0.00    +0.000 C 
ATOM      5  O   UNL     1      52.295 243.303 327.126  0.00  0.00    +0.000 OA
ENDROOT
BRANCH   2   6
ATOM      6  C   UNL     1      54.003 244.563 323.509  0.00  0.00    +0.000 C 
ATOM      7  C   UNL     1      54.642 245.575 323.403  0.00  0.00    +0.000 C 
BRANCH   7   8
ATOM      8  C   UNL     1      55.398 246.778 323.277  0.00  0.00    +0.000 A 
ATOM      9  C   UNL     1      55.161 247.842 324.145  0.00  0.00    +0.000 A 
ATOM     10  C   UNL     1      55.893 249.028 324.037  0.00  0.00    +0.000 A 
ATOM     11  C   UNL     1      56.868 249.127 323.039  0.00  0.00    +0.000 A 
ATOM     12  C   UNL     1      57.107 248.064 322.169  0.00  0.00    +0.000 A 
ATOM     13  C   UNL     1      56.371 246.888 322.289  0.00  0.00    +0.000 A 
BRANCH  10  14
ATOM     14  O   UNL     1      55.716 250.116 324.855  0.00  0.00    +0.000 OA
ATOM     15  C   UNL     1      56.235 250.003 326.150  0.00  0.00    +0.000 C 
ENDBRANCH  10  14
BRANCH  11  16
ATOM     16  O   UNL     1      57.633 250.245 322.856  0.00  0.00    +0.000 OA
ATOM     17  H   UNL     1      57.293 250.776 322.116  0.00  0.00    +0.000 HD
ENDBRANCH  11  16
ENDBRANCH   7   8
ENDBRANCH   2   6
BRANCH   4  18
ATOM     18  C   UNL     1      50.909 241.736 326.135  0.00  0.00    +0.000 C 
ATOM     19  C   UNL     1      50.034 240.913 326.161  0.00  0.00    +0.000 C 
BRANCH  19  20
ATOM     20  C   UNL     1      48.994 239.939 326.191  0.00  0.00    +0.000 A 
ATOM     21  C   UNL     1      49.164 238.721 325.532  0.00  0.00    +0.000 A 
ATOM     22  C   UNL     1      48.154 237.755 325.552  0.00  0.00    +0.000 A 
ATOM     23  C   UNL     1      46.973 238.034 326.245  0.00  0.00    +0.000 A 
ATOM     24  C   UNL     1      46.798 239.249 326.905  0.00  0.00    +0.000 A 
ATOM     25  C   UNL     1      47.811 240.203 326.877  0.00  0.00    +0.000 A 
BRANCH  22  26
ATOM     26  O   UNL     1      48.239 236.533 324.931  0.00  0.00    +0.000 OA
ATOM     27  C   UNL     1      49.201 236.437 323.913  0.00  0.00    +0.000 C 
ENDBRANCH  22  26
BRANCH  23  28
ATOM     28  O   UNL     1      45.972 237.102 326.276  0.00  0.00    +0.000 OA
ATOM     29  H   UNL     1      45.137 237.532 326.018  0.00  0.00    +0.000 HD
ENDBRANCH  23  28
ENDBRANCH  19  20
ENDBRANCH   4  18
TORSDOF 8
ENDMDL
MODEL 2
REMARK VINA RESULT:      -5.5      3.797      7.474
REMARK  Name = Curcumin.pdbqt.pdb
REMARK  8 active torsions:
REMARK  status: ('A' for Active; 'I' for Inactive)
REMARK    1  A    between atoms: C_2  and  C_4
REMARK    2  A    between atoms: C_5  and  C_6
REMARK    3  A    between atoms: C_8  and  O_12
REMARK    4  A    between atoms: C_9  and  O_14
REMARK    5  A    between atoms: C_16  and  C_18
REMARK    6  A    between atoms: C_19  and  C_20
REMARK    7  A    between atoms: C_22  and  O_26
REMARK    8  A    between atoms: C_23  and  O_28
REMARK                            x       y       z     vdW  Elec       q    Type
REMARK                         _______ _______ _______ _____ _____    ______ ____
ROOT
ATOM      1  C   UNL     1      48.755 238.212 324.601  0.00  0.00    +0.000 C 
ATOM      2  C   UNL     1      48.374 238.951 325.759  0.00  0.00    +0.000 C 
ATOM      3  O   UNL     1      47.396 238.603 326.404  0.00  0.00    +0.000 OA
ATOM      4  C   UNL     1      49.133 237.475 323.441  0.00  0.00    +0.000 C 
ATOM      5  O   UNL     1      49.895 237.975 322.626  0.00  0.00    +0.000 OA
ENDROOT
BRANCH   2   6
ATOM      6  C   UNL     1      49.146 240.099 326.163  0.00  0.00    +0.000 C 
ATOM      7  C   UNL     1      49.788 241.057 326.499  0.00  0.00    +0.000 C 
BRANCH   7   8
ATOM      8  C   UNL     1      50.550 242.194 326.900  0.00  0.00    +0.000 A 
ATOM      9  C   UNL     1      51.914 242.250 326.623  0.00  0.00    +0.000 A 
ATOM     10  C   UNL     1      52.676 243.357 327.009  0.00  0.00    +0.000 A 
ATOM     11  C   UNL     1      52.042 244.408 327.679  0.00  0.00    +0.000 A 
ATOM     12  C   UNL     1      50.677 244.355 327.958  0.00  0.00    +0.000 A 
ATOM     13  C   UNL     1      49.930 243.246 327.568  0.00  0.00    +0.000 A 
BRANCH  10  14
ATOM     14  O   UNL     1      54.021 243.482 326.769  0.00  0.00    +0.000 OA
ATOM     15  C   UNL     1      54.386 243.813 325.459  0.00  0.00    +0.000 C 
ENDBRANCH  10  14
BRANCH  11  16
ATOM     16  O   UNL     1      52.704 245.530 328.095  0.00  0.00    +0.000 OA
ATOM     17  H   UNL     1      53.379 245.305 328.757  0.00  0.00    +0.000 HD
ENDBRANCH  11  16
ENDBRANCH   7   8
ENDBRANCH   2   6
BRANCH   4  18
ATOM     18  C   UNL     1      48.614 236.147 323.238  0.00  0.00    +0.000 C 
ATOM     19  C   UNL     1      48.185 235.037 323.067  0.00  0.00    +0.000 C 
BRANCH  19  20
ATOM     20  C   UNL     1      47.680 233.720 322.863  0.00  0.00    +0.000 A 
ATOM     21  C   UNL     1      46.827 233.150 323.807  0.00  0.00    +0.000 A 
ATOM     22  C   UNL     1      46.323 231.859 323.622  0.00  0.00    +0.000 A 
ATOM     23  C   UNL     1      46.690 231.154 322.473  0.00  0.00    +0.000 A 
ATOM     24  C   UNL     1      47.543 231.719 321.526  0.00  0.00    +0.000 A 
ATOM     25  C   UNL     1      48.038 233.005 321.722  0.00  0.00    +0.000 A 
BRANCH  22  26
ATOM     26  O   UNL     1      45.479 231.224 324.501  0.00  0.00    +0.000 OA
ATOM     27  C   UNL     1      44.699 232.067 325.308  0.00  0.00    +0.000 C 
ENDBRANCH  22  26
BRANCH  23  28
ATOM     28  O   UNL     1      46.207 229.889 322.273  0.00  0.00    +0.000 OA
ATOM     29  H   UNL     1      45.627 229.897 321.490  0.00  0.00    +0.000 HD
ENDBRANCH  23  28
ENDBRANCH  19  20
ENDBRANCH   4  18
TORSDOF 8
ENDMDL
MODEL 3
REMARK VINA RESULT:      -5.5      3.828     12.721
REMARK  Name = Curcumin.pdbqt.pdb
REMARK  8 active torsions:
REMARK  status: ('A' for Active; 'I' for Inactive)
REMARK    1  A    between atoms: C_2  and  C_4
REMARK    2  A    between atoms: C_5  and  C_6
REMARK    3  A    between atoms: C_8  and  O_12
REMARK    4  A    between atoms: C_9  and  O_14
REMARK    5  A    between atoms: C_16  and  C_18
REMARK    6  A    between atoms: C_19  and  C_20
REMARK    7  A    between atoms: C_22  and  O_26
REMARK    8  A    between atoms: C_23  and  O_28
REMARK                            x       y       z     vdW  Elec       q    Type
REMARK                         _______ _______ _______ _____ _____    ______ ____
ROOT
ATOM      1  C   UNL     1      48.763 238.209 324.635  0.00  0.00    +0.000 C 
ATOM      2  C   UNL     1      49.161 237.442 323.501  0.00  0.00    +0.000 C 
ATOM      3  O   UNL     1      49.948 237.917 322.696  0.00  0.00    +0.000 OA
ATOM      4  C   UNL     1      48.363 238.978 325.766  0.00  0.00    +0.000 C 
ATOM      5  O   UNL     1      47.366 238.658 326.396  0.00  0.00    +0.000 OA
ENDROOT
BRANCH   2   6
ATOM      6  C   UNL     1      48.635 236.114 323.314  0.00  0.00    +0.000 C 
ATOM      7  C   UNL     1      48.195 235.007 323.157  0.00  0.00    +0.000 C 
BRANCH   7   8
ATOM      8  C   UNL     1      47.675 233.692 322.969  0.00  0.00    +0.000 A 
ATOM      9  C   UNL     1      46.663 233.220 323.802  0.00  0.00    +0.000 A 
ATOM     10  C   UNL     1      46.140 231.934 323.632  0.00  0.00    +0.000 A 
ATOM     11  C   UNL     1      46.654 231.130 322.610  0.00  0.00    +0.000 A 
ATOM     12  C   UNL     1      47.667 231.600 321.775  0.00  0.00    +0.000 A 
ATOM     13  C   UNL     1      48.178 232.883 321.955  0.00  0.00    +0.000 A 
BRANCH  10  14
ATOM     14  O   UNL     1      45.143 231.403 324.412  0.00  0.00    +0.000 OA
ATOM     15  C   UNL     1      44.648 232.230 325.426  0.00  0.00    +0.000 C 
ENDBRANCH  10  14
BRANCH  11  16
ATOM     16  O   UNL     1      46.208 229.861 322.367  0.00  0.00    +0.000 OA
ATOM     17  H   UNL     1      46.441 229.581 321.466  0.00  0.00    +0.000 HD
ENDBRANCH  11  16
ENDBRANCH   7   8
ENDBRANCH   2   6
BRANCH   4  18
ATOM     18  C   UNL     1      49.138 240.127 326.160  0.00  0.00    +0.000 C 
ATOM     19  C   UNL     1      49.785 241.084 326.492  0.00  0.00    +0.000 C 
BRANCH  19  20
ATOM     20  C   UNL     1      50.553 242.217 326.889  0.00  0.00    +0.000 A 
ATOM     21  C   UNL     1      51.929 242.236 326.666  0.00  0.00    +0.000 A 
ATOM     22  C   UNL     1      52.696 243.340 327.049  0.00  0.00    +0.000 A 
ATOM     23  C   UNL     1      52.057 244.422 327.660  0.00  0.00    +0.000 A 
ATOM     24  C   UNL     1      50.681 244.408 327.886  0.00  0.00    +0.000 A 
ATOM     25  C   UNL     1      49.929 243.303 327.499  0.00  0.00    +0.000 A 
BRANCH  22  26
ATOM     26  O   UNL     1      54.054 243.440 326.867  0.00  0.00    +0.000 OA
ATOM     27  C   UNL     1      54.469 243.736 325.559  0.00  0.00    +0.000 C 
ENDBRANCH  22  26
BRANCH  23  28
ATOM     28  O   UNL     1      52.790 245.511 328.043  0.00  0.00    +0.000 OA
ATOM     29  H   UNL     1      52.178 246.225 328.298  0.00  0.00    +0.000 HD
ENDBRANCH  23  28
ENDBRANCH  19  20
ENDBRANCH   4  18
TORSDOF 8
ENDMDL
MODEL 4
REMARK VINA RESULT:      -5.5      4.301      7.389
REMARK  Name = Curcumin.pdbqt.pdb
REMARK  8 active torsions:
REMARK  status: ('A' for Active; 'I' for Inactive)
REMARK    1  A    between atoms: C_2  and  C_4
REMARK    2  A    between atoms: C_5  and  C_6
REMARK    3  A    between atoms: C_8  and  O_12
REMARK    4  A    between atoms: C_9  and  O_14
REMARK    5  A    between atoms: C_16  and  C_18
REMARK    6  A    between atoms: C_19  and  C_20
REMARK    7  A    between atoms: C_22  and  O_26
REMARK    8  A    between atoms: C_23  and  O_28
REMARK                            x       y       z     vdW  Elec       q    Type
REMARK                         _______ _______ _______ _____ _____    ______ ____
ROOT
ATOM      1  C   UNL     1      48.945 238.239 324.519  0.00  0.00    +0.000 C 
ATOM      2  C   UNL     1      48.681 238.955 325.723  0.00  0.00    +0.000 C 
ATOM      3  O   UNL     1      47.785 238.581 326.465  0.00  0.00    +0.000 OA
ATOM      4  C   UNL     1      49.206 237.525 323.314  0.00  0.00    +0.000 C 
ATOM      5  O   UNL     1      49.867 238.049 322.429  0.00  0.00    +0.000 OA
ENDROOT
BRANCH   2   6
ATOM      6  C   UNL     1      49.473 240.111 326.059  0.00  0.00    +0.000 C 
ATOM      7  C   UNL     1      50.135 241.073 326.339  0.00  0.00    +0.000 C 
BRANCH   7   8
ATOM      8  C   UNL     1      50.920 242.217 326.670  0.00  0.00    +0.000 A 
ATOM      9  C   UNL     1      50.455 243.131 327.613  0.00  0.00    +0.000 A 
ATOM     10  C   UNL     1      51.212 244.257 327.950  0.00  0.00    +0.000 A 
ATOM     11  C   UNL     1      52.446 244.449 327.321  0.00  0.00    +0.000 A 
ATOM     12  C   UNL     1      52.914 243.536 326.377  0.00  0.00    +0.000 A 
ATOM     13  C   UNL     1      52.150 242.419 326.051  0.00  0.00    +0.000 A 
BRANCH  10  14
ATOM     14  O   UNL     1      50.819 245.198 328.869  0.00  0.00    +0.000 OA
ATOM     15  C   UNL     1      50.648 244.743 330.181  0.00  0.00    +0.000 C 
ENDBRANCH  10  14
BRANCH  11  16
ATOM     16  O   UNL     1      53.256 245.519 327.585  0.00  0.00    +0.000 OA
ATOM     17  H   UNL     1      54.088 245.450 327.089  0.00  0.00    +0.000 HD
ENDBRANCH  11  16
ENDBRANCH   7   8
ENDBRANCH   2   6
BRANCH   4  18
ATOM     18  C   UNL     1      48.690 236.190 323.147  0.00  0.00    +0.000 C 
ATOM     19  C   UNL     1      48.257 235.078 323.005  0.00  0.00    +0.000 C 
BRANCH  19  20
ATOM     20  C   UNL     1      47.742 233.761 322.833  0.00  0.00    +0.000 A 
ATOM     21  C   UNL     1      47.959 233.081 321.636  0.00  0.00    +0.000 A 
ATOM     22  C   UNL     1      47.460 231.788 321.451  0.00  0.00    +0.000 A 
ATOM     23  C   UNL     1      46.741 231.192 322.491  0.00  0.00    +0.000 A 
ATOM     24  C   UNL     1      46.521 231.867 323.690  0.00  0.00    +0.000 A 
ATOM     25  C   UNL     1      47.023 233.154 323.861  0.00  0.00    +0.000 A 
BRANCH  22  26
ATOM     26  O   UNL     1      47.628 231.049 320.305  0.00  0.00    +0.000 OA
ATOM     27  C   UNL     1      46.862 231.460 319.203  0.00  0.00    +0.000 C 
ENDBRANCH  22  26
BRANCH  23  28
ATOM     28  O   UNL     1      46.244 229.927 322.330  0.00  0.00    +0.000 OA
ATOM     29  H   UNL     1      45.895 229.618 323.186  0.00  0.00    +0.000 HD
ENDBRANCH  23  28
ENDBRANCH  19  20
ENDBRANCH   4  18
TORSDOF 8
ENDMDL
MODEL 5
REMARK VINA RESULT:      -5.2     25.259     29.363
REMARK  Name = Curcumin.pdbqt.pdb
REMARK  8 active torsions:
REMARK  status: ('A' for Active; 'I' for Inactive)
REMARK    1  A    between atoms: C_2  and  C_4
REMARK    2  A    between atoms: C_5  and  C_6
REMARK    3  A    between atoms: C_8  and  O_12
REMARK    4  A    between atoms: C_9  and  O_14
REMARK    5  A    between atoms: C_16  and  C_18
REMARK    6  A    between atoms: C_19  and  C_20
REMARK    7  A    between atoms: C_22  and  O_26
REMARK    8  A    between atoms: C_23  and  O_28
REMARK                            x       y       z     vdW  Elec       q    Type
REMARK                         _______ _______ _______ _____ _____    ______ ____
ROOT
ATOM      1  C   UNL     1      56.938 218.135 335.116  0.00  0.00    +0.000 C 
ATOM      2  C   UNL     1      56.872 219.040 336.215  0.00  0.00    +0.000 C 
ATOM      3  O   UNL     1      56.556 220.204 336.021  0.00  0.00    +0.000 OA
ATOM      4  C   UNL     1      57.008 217.232 334.015  0.00  0.00    +0.000 C 
ATOM      5  O   UNL     1      57.611 216.175 334.135  0.00  0.00    +0.000 OA
ENDROOT
BRANCH   2   6
ATOM      6  C   UNL     1      57.175 218.576 337.545  0.00  0.00    +0.000 C 
ATOM      7  C   UNL     1      57.425 218.188 338.654  0.00  0.00    +0.000 C 
BRANCH   7   8
ATOM      8  C   UNL     1      57.725 217.727 339.970  0.00  0.00    +0.000 A 
ATOM      9  C   UNL     1      57.552 216.382 340.290  0.00  0.00    +0.000 A 
ATOM     10  C   UNL     1      57.841 215.911 341.575  0.00  0.00    +0.000 A 
ATOM     11  C   UNL     1      58.306 216.818 342.533  0.00  0.00    +0.000 A 
ATOM     12  C   UNL     1      58.479 218.165 342.215  0.00  0.00    +0.000 A 
ATOM     13  C   UNL     1      58.188 218.619 340.932  0.00  0.00    +0.000 A 
BRANCH  10  14
ATOM     14  O   UNL     1      57.697 214.603 341.963  0.00  0.00    +0.000 OA
ATOM     15  C   UNL     1      56.506 213.975 341.581  0.00  0.00    +0.000 C 
ENDBRANCH  10  14
BRANCH  11  16
ATOM     16  O   UNL     1      58.614 216.452 343.814  0.00  0.00    +0.000 OA
ATOM     17  H   UNL     1      58.280 217.109 344.449  0.00  0.00    +0.000 HD
ENDBRANCH  11  16
ENDBRANCH   7   8
ENDBRANCH   2   6
BRANCH   4  18
ATOM     18  C   UNL     1      56.368 217.571 332.770  0.00  0.00    +0.000 C 
ATOM     19  C   UNL     1      55.831 217.857 331.733  0.00  0.00    +0.000 C 
BRANCH  19  20
ATOM     20  C   UNL     1      55.192 218.198 330.506  0.00  0.00    +0.000 A 
ATOM     21  C   UNL     1      55.830 217.933 329.295  0.00  0.00    +0.000 A 
ATOM     22  C   UNL     1      55.217 218.261 328.082  0.00  0.00    +0.000 A 
ATOM     23  C   UNL     1      53.954 218.859 328.109  0.00  0.00    +0.000 A 
ATOM     24  C   UNL     1      53.312 219.127 329.317  0.00  0.00    +0.000 A 
ATOM     25  C   UNL     1      53.934 218.795 330.517  0.00  0.00    +0.000 A 
BRANCH  22  26
ATOM     26  O   UNL     1      55.774 218.035 326.846  0.00  0.00    +0.000 OA
ATOM     27  C   UNL     1      56.199 216.719 326.606  0.00  0.00    +0.000 C 
ENDBRANCH  22  26
BRANCH  23  28
ATOM     28  O   UNL     1      53.338 219.188 326.933  0.00  0.00    +0.000 OA
ATOM     29  H   UNL     1      52.929 220.068 327.030  0.00  0.00    +0.000 HD
ENDBRANCH  23  28
ENDBRANCH  19  20
ENDBRANCH   4  18
TORSDOF 8
ENDMDL
MODEL 6
REMARK VINA RESULT:      -5.1     29.945     31.297
REMARK  Name = Curcumin.pdbqt.pdb
REMARK  8 active torsions:
REMARK  status: ('A' for Active; 'I' for Inactive)
REMARK    1  A    between atoms: C_2  and  C_4
REMARK    2  A    between atoms: C_5  and  C_6
REMARK    3  A    between atoms: C_8  and  O_12
REMARK    4  A    between atoms: C_9  and  O_14
REMARK    5  A    between atoms: C_16  and  C_18
REMARK    6  A    between atoms: C_19  and  C_20
REMARK    7  A    between atoms: C_22  and  O_26
REMARK    8  A    between atoms: C_23  and  O_28
REMARK                            x       y       z     vdW  Elec       q    Type
REMARK                         _______ _______ _______ _____ _____    ______ ____
ROOT
ATOM      1  C   UNL     1      59.490 229.338 351.594  0.00  0.00    +0.000 C 
ATOM      2  C   UNL     1      59.891 229.812 350.312  0.00  0.00    +0.000 C 
ATOM      3  O   UNL     1      59.064 229.905 349.416  0.00  0.00    +0.000 OA
ATOM      4  C   UNL     1      59.090 228.859 352.875  0.00  0.00    +0.000 C 
ATOM      5  O   UNL     1      59.934 228.470 353.669  0.00  0.00    +0.000 OA
ENDROOT
BRANCH   2   6
ATOM      6  C   UNL     1      61.264 230.182 350.080  0.00  0.00    +0.000 C 
ATOM      7  C   UNL     1      62.409 230.489 349.889  0.00  0.00    +0.000 C 
BRANCH   7   8
ATOM      8  C   UNL     1      63.770 230.853 349.661  0.00  0.00    +0.000 A 
ATOM      9  C   UNL     1      64.408 231.737 350.528  0.00  0.00    +0.000 A 
ATOM     10  C   UNL     1      65.741 232.104 350.320  0.00  0.00    +0.000 A 
ATOM     11  C   UNL     1      66.422 231.567 349.223  0.00  0.00    +0.000 A 
ATOM     12  C   UNL     1      65.785 230.683 348.353  0.00  0.00    +0.000 A 
ATOM     13  C   UNL     1      64.458 230.326 348.572  0.00  0.00    +0.000 A 
BRANCH  10  14
ATOM     14  O   UNL     1      66.434 232.967 351.131  0.00  0.00    +0.000 OA
ATOM     15  C   UNL     1      66.527 232.604 352.480  0.00  0.00    +0.000 C 
ENDBRANCH  10  14
BRANCH  11  16
ATOM     16  O   UNL     1      67.725 231.867 348.937  0.00  0.00    +0.000 OA
ATOM     17  H   UNL     1      68.323 231.428 349.564  0.00  0.00    +0.000 HD
ENDBRANCH  11  16
ENDBRANCH   7   8
ENDBRANCH   2   6
BRANCH   4  18
ATOM     18  C   UNL     1      57.693 228.839 353.227  0.00  0.00    +0.000 C 
ATOM     19  C   UNL     1      56.526 228.819 353.516  0.00  0.00    +0.000 C 
BRANCH  19  20
ATOM     20  C   UNL     1      55.142 228.795 353.855  0.00  0.00    +0.000 A 
ATOM     21  C   UNL     1      54.323 227.782 353.357  0.00  0.00    +0.000 A 
ATOM     22  C   UNL     1      52.964 227.743 353.680  0.00  0.00    +0.000 A 
ATOM     23  C   UNL     1      52.444 228.738 354.512  0.00  0.00    +0.000 A 
ATOM     24  C   UNL     1      53.258 229.753 355.013  0.00  0.00    +0.000 A 
ATOM     25  C   UNL     1      54.610 229.780 354.683  0.00  0.00    +0.000 A 
BRANCH  22  26
ATOM     26  O   UNL     1      52.089 226.784 353.233  0.00  0.00    +0.000 OA
ATOM     27  C   UNL     1      51.608 226.964 351.926  0.00  0.00    +0.000 C 
ENDBRANCH  22  26
BRANCH  23  28
ATOM     28  O   UNL     1      51.116 228.718 354.840  0.00  0.00    +0.000 OA
ATOM     29  H   UNL     1      50.697 227.958 354.397  0.00  0.00    +0.000 HD
ENDBRANCH  23  28
ENDBRANCH  19  20
ENDBRANCH   4  18
TORSDOF 8
ENDMDL
MODEL 7
REMARK VINA RESULT:      -4.9     14.946     17.235
REMARK  Name = Curcumin.pdbqt.pdb
REMARK  8 active torsions:
REMARK  status: ('A' for Active; 'I' for Inactive)
REMARK    1  A    between atoms: C_2  and  C_4
REMARK    2  A    between atoms: C_5  and  C_6
REMARK    3  A    between atoms: C_8  and  O_12
REMARK    4  A    between atoms: C_9  and  O_14
REMARK    5  A    between atoms: C_16  and  C_18
REMARK    6  A    between atoms: C_19  and  C_20
REMARK    7  A    between atoms: C_22  and  O_26
REMARK    8  A    between atoms: C_23  and  O_28
REMARK                            x       y       z     vdW  Elec       q    Type
REMARK                         _______ _______ _______ _____ _____    ______ ____
ROOT
ATOM      1  C   UNL     1      65.755 242.414 332.987  0.00  0.00    +0.000 C 
ATOM      2  C   UNL     1      65.147 243.549 332.377  0.00  0.00    +0.000 C 
ATOM      3  O   UNL     1      64.315 244.195 332.996  0.00  0.00    +0.000 OA
ATOM      4  C   UNL     1      66.360 241.276 333.596  0.00  0.00    +0.000 C 
ATOM      5  O   UNL     1      66.942 240.454 332.903  0.00  0.00    +0.000 OA
ENDROOT
BRANCH   2   6
ATOM      6  C   UNL     1      65.518 243.928 331.037  0.00  0.00    +0.000 C 
ATOM      7  C   UNL     1      65.826 244.246 329.920  0.00  0.00    +0.000 C 
BRANCH   7   8
ATOM      8  C   UNL     1      66.193 244.624 328.595  0.00  0.00    +0.000 A 
ATOM      9  C   UNL     1      65.801 245.863 328.092  0.00  0.00    +0.000 A 
ATOM     10  C   UNL     1      66.153 246.250 326.795  0.00  0.00    +0.000 A 
ATOM     11  C   UNL     1      66.905 245.369 326.012  0.00  0.00    +0.000 A 
ATOM     12  C   UNL     1      67.299 244.129 326.513  0.00  0.00    +0.000 A 
ATOM     13  C   UNL     1      66.942 243.756 327.806  0.00  0.00    +0.000 A 
BRANCH  10  14
ATOM     14  O   UNL     1      65.804 247.453 326.233  0.00  0.00    +0.000 OA
ATOM     15  C   UNL     1      65.614 248.516 327.123  0.00  0.00    +0.000 C 
ENDBRANCH  10  14
BRANCH  11  16
ATOM     16  O   UNL     1      67.296 245.659 324.734  0.00  0.00    +0.000 OA
ATOM     17  H   UNL     1      67.017 244.957 324.122  0.00  0.00    +0.000 HD
ENDBRANCH  11  16
ENDBRANCH   7   8
ENDBRANCH   2   6
BRANCH   4  18
ATOM     18  C   UNL     1      66.282 241.104 335.024  0.00  0.00    +0.000 C 
ATOM     19  C   UNL     1      66.217 240.956 336.215  0.00  0.00    +0.000 C 
BRANCH  19  20
ATOM     20  C   UNL     1      66.139 240.776 337.627  0.00  0.00    +0.000 A 
ATOM     21  C   UNL     1      65.115 241.389 338.349  0.00  0.00    +0.000 A 
ATOM     22  C   UNL     1      65.025 241.223 339.734  0.00  0.00    +0.000 A 
ATOM     23  C   UNL     1      65.978 240.431 340.379  0.00  0.00    +0.000 A 
ATOM     24  C   UNL     1      67.003 239.816 339.662  0.00  0.00    +0.000 A 
ATOM     25  C   UNL     1      67.082 239.989 338.283  0.00  0.00    +0.000 A 
BRANCH  22  26
ATOM     26  O   UNL     1      64.051 241.791 340.520  0.00  0.00    +0.000 OA
ATOM     27  C   UNL     1      62.951 242.324 339.830  0.00  0.00    +0.000 C 
ENDBRANCH  22  26
BRANCH  23  28
ATOM     28  O   UNL     1      65.907 240.257 341.734  0.00  0.00    +0.000 OA
ATOM     29  H   UNL     1      66.787 239.998 342.062  0.00  0.00    +0.000 HD
ENDBRANCH  23  28
ENDBRANCH  19  20
ENDBRANCH   4  18
TORSDOF 8
ENDMDL
MODEL 8
REMARK VINA RESULT:      -4.8     30.276     33.154
REMARK  Name = Curcumin.pdbqt.pdb
REMARK  8 active torsions:
REMARK  status: ('A' for Active; 'I' for Inactive)
REMARK    1  A    between atoms: C_2  and  C_4
REMARK    2  A    between atoms: C_5  and  C_6
REMARK    3  A    between atoms: C_8  and  O_12
REMARK    4  A    between atoms: C_9  and  O_14
REMARK    5  A    between atoms: C_16  and  C_18
REMARK    6  A    between atoms: C_19  and  C_20
REMARK    7  A    between atoms: C_22  and  O_26
REMARK    8  A    between atoms: C_23  and  O_28
REMARK                            x       y       z     vdW  Elec       q    Type
REMARK                         _______ _______ _______ _____ _____    ______ ____
ROOT
ATOM      1  C   UNL     1      71.116 222.741 338.135  0.00  0.00    +0.000 C 
ATOM      2  C   UNL     1      70.937 222.381 336.768  0.00  0.00    +0.000 C 
ATOM      3  O   UNL     1      71.805 222.651 335.952  0.00  0.00    +0.000 OA
ATOM      4  C   UNL     1      71.295 223.106 339.501  0.00  0.00    +0.000 C 
ATOM      5  O   UNL     1      70.332 223.129 340.254  0.00  0.00    +0.000 OA
ENDROOT
BRANCH   2   6
ATOM      6  C   UNL     1      69.736 221.698 336.358  0.00  0.00    +0.000 C 
ATOM      7  C   UNL     1      68.733 221.131 336.016  0.00  0.00    +0.000 C 
BRANCH   7   8
ATOM      8  C   UNL     1      67.544 220.457 335.608  0.00  0.00    +0.000 A 
ATOM      9  C   UNL     1      67.224 220.371 334.255  0.00  0.00    +0.000 A 
ATOM     10  C   UNL     1      66.062 219.713 333.837  0.00  0.00    +0.000 A 
ATOM     11  C   UNL     1      65.228 219.143 334.804  0.00  0.00    +0.000 A 
ATOM     12  C   UNL     1      65.547 219.228 336.159  0.00  0.00    +0.000 A 
ATOM     13  C   UNL     1      66.706 219.885 336.561  0.00  0.00    +0.000 A 
BRANCH  10  14
ATOM     14  O   UNL     1      65.683 219.588 332.524  0.00  0.00    +0.000 OA
ATOM     15  C   UNL     1      65.759 220.750 331.748  0.00  0.00    +0.000 C 
ENDBRANCH  10  14
BRANCH  11  16
ATOM     16  O   UNL     1      64.073 218.481 334.493  0.00  0.00    +0.000 OA
ATOM     17  H   UNL     1      63.499 218.407 335.273  0.00  0.00    +0.000 HD
ENDBRANCH  11  16
ENDBRANCH   7   8
ENDBRANCH   2   6
BRANCH   4  18
ATOM     18  C   UNL     1      72.609 223.444 339.985  0.00  0.00    +0.000 C 
ATOM     19  C   UNL     1      73.704 223.731 340.389  0.00  0.00    +0.000 C 
BRANCH  19  20
ATOM     20  C   UNL     1      75.002 224.075 340.867  0.00  0.00    +0.000 A 
ATOM     21  C   UNL     1      75.184 224.391 342.213  0.00  0.00    +0.000 A 
ATOM     22  C   UNL     1      76.450 224.730 342.698  0.00  0.00    +0.000 A 
ATOM     23  C   UNL     1      77.528 224.744 341.809  0.00  0.00    +0.000 A 
ATOM     24  C   UNL     1      77.352 224.429 340.462  0.00  0.00    +0.000 A 
ATOM     25  C   UNL     1      76.086 224.093 339.992  0.00  0.00    +0.000 A 
BRANCH  22  26
ATOM     26  O   UNL     1      76.717 225.055 344.006  0.00  0.00    +0.000 OA
ATOM     27  C   UNL     1      75.761 224.631 344.942  0.00  0.00    +0.000 C 
ENDBRANCH  22  26
BRANCH  23  28
ATOM     28  O   UNL     1      78.775 225.074 342.264  0.00  0.00    +0.000 OA
ATOM     29  H   UNL     1      79.389 225.091 341.508  0.00  0.00    +0.000 HD
ENDBRANCH  23  28
ENDBRANCH  19  20
ENDBRANCH   4  18
TORSDOF 8
ENDMDL
MODEL 9
REMARK VINA RESULT:      -4.7     31.980     35.565
REMARK  Name = Curcumin.pdbqt.pdb
REMARK  8 active torsions:
REMARK  status: ('A' for Active; 'I' for Inactive)
REMARK    1  A    between atoms: C_2  and  C_4
REMARK    2  A    between atoms: C_5  and  C_6
REMARK    3  A    between atoms: C_8  and  O_12
REMARK    4  A    between atoms: C_9  and  O_14
REMARK    5  A    between atoms: C_16  and  C_18
REMARK    6  A    between atoms: C_19  and  C_20
REMARK    7  A    between atoms: C_22  and  O_26
REMARK    8  A    between atoms: C_23  and  O_28
REMARK                            x       y       z     vdW  Elec       q    Type
REMARK                         _______ _______ _______ _____ _____    ______ ____
ROOT
ATOM      1  C   UNL     1      55.438 223.934 353.237  0.00  0.00    +0.000 C 
ATOM      2  C   UNL     1      54.431 222.946 353.037  0.00  0.00    +0.000 C 
ATOM      3  O   UNL     1      53.273 223.193 353.340  0.00  0.00    +0.000 OA
ATOM      4  C   UNL     1      56.446 224.921 353.441  0.00  0.00    +0.000 C 
ATOM      5  O   UNL     1      57.624 224.595 353.440  0.00  0.00    +0.000 OA
ENDROOT
BRANCH   2   6
ATOM      6  C   UNL     1      54.782 221.666 352.476  0.00  0.00    +0.000 C 
ATOM      7  C   UNL     1      55.077 220.599 352.009  0.00  0.00    +0.000 C 
BRANCH   7   8
ATOM      8  C   UNL     1      55.425 219.331 351.456  0.00  0.00    +0.000 A 
ATOM      9  C   UNL     1      55.139 219.053 350.121  0.00  0.00    +0.000 A 
ATOM     10  C   UNL     1      55.474 217.816 349.562  0.00  0.00    +0.000 A 
ATOM     11  C   UNL     1      56.101 216.862 350.370  0.00  0.00    +0.000 A 
ATOM     12  C   UNL     1      56.388 217.138 351.706  0.00  0.00    +0.000 A 
ATOM     13  C   UNL     1      56.050 218.374 352.250  0.00  0.00    +0.000 A 
BRANCH  10  14
ATOM     14  O   UNL     1      55.224 217.472 348.257  0.00  0.00    +0.000 OA
ATOM     15  C   UNL     1      53.948 216.964 347.987  0.00  0.00    +0.000 C 
ENDBRANCH  10  14
BRANCH  11  16
ATOM     16  O   UNL     1      56.465 215.626 349.913  0.00  0.00    +0.000 OA
ATOM     17  H   UNL     1      56.995 215.156 350.579  0.00  0.00    +0.000 HD
ENDBRANCH  11  16
ENDBRANCH   7   8
ENDBRANCH   2   6
BRANCH   4  18
ATOM     18  C   UNL     1      56.068 226.296 353.645  0.00  0.00    +0.000 C 
ATOM     19  C   UNL     1      55.757 227.444 353.819  0.00  0.00    +0.000 C 
BRANCH  19  20
ATOM     20  C   UNL     1      55.391 228.806 354.027  0.00  0.00    +0.000 A 
ATOM     21  C   UNL     1      56.232 229.826 353.583  0.00  0.00    +0.000 A 
ATOM     22  C   UNL     1      55.888 231.166 353.779  0.00  0.00    +0.000 A 
ATOM     23  C   UNL     1      54.685 231.463 354.427  0.00  0.00    +0.000 A 
ATOM     24  C   UNL     1      53.841 230.446 354.872  0.00  0.00    +0.000 A 
ATOM     25  C   UNL     1      54.196 229.116 354.671  0.00  0.00    +0.000 A 
BRANCH  22  26
ATOM     26  O   UNL     1      56.657 232.231 353.375  0.00  0.00    +0.000 OA
ATOM     27  C   UNL     1      57.870 232.396 354.062  0.00  0.00    +0.000 C 
ENDBRANCH  22  26
BRANCH  23  28
ATOM     28  O   UNL     1      54.331 232.768 354.629  0.00  0.00    +0.000 OA
ATOM     29  H   UNL     1      54.407 233.246 353.783  0.00  0.00    +0.000 HD
ENDBRANCH  23  28
ENDBRANCH  19  20
ENDBRANCH   4  18
TORSDOF 8
ENDMDL
