MODEL 1
REMARK VINA RESULT:      -9.1      0.000      0.000
REMARK  Name = Cyclosporin_A.pdbqt.pdb
REMARK  4 active torsions:
REMARK  status: ('A' for Active; 'I' for Inactive)
REMARK    1  A    between atoms: N_13  and  C_36
REMARK    2  A    between atoms: C_36  and  O_70
REMARK    3  A    between atoms: C_72  and  C_73
REMARK    4  A    between atoms: C_75  and  C_76
REMARK                            x       y       z     vdW  Elec       q    Type
REMARK                         _______ _______ _______ _____ _____    ______ ____
ROOT
ATOM      1  O   UNL     1      68.097 216.934 333.682  0.00  0.00    +0.000 OA
ATOM      2  O   UNL     1      71.484 217.333 337.513  0.00  0.00    +0.000 OA
ATOM      3  O   UNL     1      68.937 219.736 340.778  0.00  0.00    +0.000 OA
ATOM      4  O   UNL     1      64.889 220.569 332.975  0.00  0.00    +0.000 OA
ATOM      5  O   UNL     1      69.434 214.735 340.092  0.00  0.00    +0.000 OA
ATOM      6  O   UNL     1      58.327 214.025 341.883  0.00  0.00    +0.000 OA
ATOM      7  O   UNL     1      63.079 215.313 332.531  0.00  0.00    +0.000 OA
ATOM      8  O   UNL     1      58.034 217.555 338.459  0.00  0.00    +0.000 OA
ATOM      9  O   UNL     1      62.552 213.308 344.144  0.00  0.00    +0.000 OA
ATOM     10  O   UNL     1      59.473 216.687 334.711  0.00  0.00    +0.000 OA
ATOM     11  O   UNL     1      65.808 212.728 341.376  0.00  0.00    +0.000 OA
ATOM     12  N   UNL     1      69.835 217.706 336.569  0.00  0.00    +0.000 NA
ATOM     13  N   UNL     1      67.234 218.631 335.152  0.00  0.00    +0.000 NA
ATOM     14  N   UNL     1      70.145 218.637 339.651  0.00  0.00    +0.000 NA
ATOM     15  N   UNL     1      68.454 216.676 341.498  0.00  0.00    +0.000 NA
ATOM     16  N   UNL     1      64.317 218.514 334.157  0.00  0.00    +0.000 NA
ATOM     17  N   UNL     1      59.936 215.611 342.544  0.00  0.00    +0.000 N 
ATOM     18  N   UNL     1      59.719 216.338 339.535  0.00  0.00    +0.000 N 
ATOM     19  N   UNL     1      59.837 216.445 336.634  0.00  0.00    +0.000 NA
ATOM     20  N   UNL     1      63.017 215.817 334.749  0.00  0.00    +0.000 NA
ATOM     21  N   UNL     1      65.986 215.143 340.828  0.00  0.00    +0.000 NA
ATOM     22  N   UNL     1      62.745 214.402 342.000  0.00  0.00    +0.000 NA
ATOM     23  C   UNL     1      69.172 216.997 335.610  0.00  0.00    +0.000 C 
ATOM     24  C   UNL     1      69.518 218.539 338.475  0.00  0.00    +0.000 C 
ATOM     25  C   UNL     1      66.653 219.416 334.175  0.00  0.00    +0.000 C 
ATOM     26  C   UNL     1      69.773 216.030 334.826  0.00  0.00    +0.000 C 
ATOM     27  C   UNL     1      69.260 219.985 338.287  0.00  0.00    +0.000 C 
ATOM     28  C   UNL     1      68.136 217.589 334.917  0.00  0.00    +0.000 C 
ATOM     29  C   UNL     1      70.280 217.595 337.874  0.00  0.00    +0.000 C 
ATOM     30  C   UNL     1      69.513 217.371 341.184  0.00  0.00    +0.000 C 
ATOM     31  C   UNL     1      69.122 218.482 340.497  0.00  0.00    +0.000 C 
ATOM     32  C   UNL     1      65.182 219.620 334.016  0.00  0.00    +0.000 C 
ATOM     33  C   UNL     1      71.132 216.175 335.245  0.00  0.00    +0.000 C 
ATOM     34  C   UNL     1      69.223 216.138 333.592  0.00  0.00    +0.000 C 
ATOM     35  C   UNL     1      71.024 217.048 336.317  0.00  0.00    +0.000 C 
ATOM     36  C   UNL     1      69.960 220.032 339.849  0.00  0.00    +0.000 C 
ATOM     37  C   UNL     1      63.930 217.638 333.111  0.00  0.00    +0.000 C 
ATOM     38  C   UNL     1      58.988 215.398 340.216  0.00  0.00    +0.000 A 
ATOM     39  C   UNL     1      68.575 215.779 340.524  0.00  0.00    +0.000 C 
ATOM     40  C   UNL     1      60.790 214.772 343.305  0.00  0.00    +0.000 C 
ATOM     41  C   UNL     1      59.711 217.584 337.356  0.00  0.00    +0.000 C 
ATOM     42  C   UNL     1      69.081 216.361 342.808  0.00  0.00    +0.000 C 
ATOM     43  C   UNL     1      57.960 214.528 339.739  0.00  0.00    +0.000 A 
ATOM     44  C   UNL     1      59.871 214.780 344.867  0.00  0.00    +0.000 C 
ATOM     45  C   UNL     1      67.237 215.120 340.488  0.00  0.00    +0.000 C 
ATOM     46  C   UNL     1      58.286 218.011 337.129  0.00  0.00    +0.000 C 
ATOM     47  C   UNL     1      64.238 218.136 331.809  0.00  0.00    +0.000 C 
ATOM     48  C   UNL     1      59.163 215.065 341.555  0.00  0.00    +0.000 A 
ATOM     49  C   UNL     1      63.407 216.419 333.395  0.00  0.00    +0.000 C 
ATOM     50  C   UNL     1      59.247 217.084 338.563  0.00  0.00    +0.000 C 
ATOM     51  C   UNL     1      61.993 214.130 343.127  0.00  0.00    +0.000 C 
ATOM     52  C   UNL     1      61.789 216.445 335.246  0.00  0.00    +0.000 C 
ATOM     53  C   UNL     1      57.410 214.383 338.346  0.00  0.00    +0.000 C 
ATOM     54  C   UNL     1      57.595 213.712 340.779  0.00  0.00    +0.000 A 
ATOM     55  C   UNL     1      60.518 216.983 335.574  0.00  0.00    +0.000 C 
ATOM     56  C   UNL     1      63.891 213.874 341.718  0.00  0.00    +0.000 C 
ATOM     57  C   UNL     1      68.260 214.307 340.080  0.00  0.00    +0.000 C 
ATOM     58  C   UNL     1      59.428 215.510 343.794  0.00  0.00    +0.000 C 
ATOM     59  C   UNL     1      64.768 219.040 331.226  0.00  0.00    +0.000 C 
ATOM     60  C   UNL     1      65.306 214.071 341.209  0.00  0.00    +0.000 C 
ATOM     61  C   UNL     1      58.512 216.526 335.802  0.00  0.00    +0.000 C 
ATOM     62  C   UNL     1      62.839 215.023 333.710  0.00  0.00    +0.000 C 
ATOM     63  C   UNL     1      64.633 212.742 341.781  0.00  0.00    +0.000 C 
ATOM     64  H   UNL     1      64.555 217.960 334.980  0.00  0.00    +0.000 HD
ATOM     65  H   UNL     1      60.729 216.288 339.648  0.00  0.00    +0.000 HD
ATOM     66  H   UNL     1      65.583 216.049 341.052  0.00  0.00    +0.000 HD
ATOM     67  H   UNL     1      62.503 215.308 341.609  0.00  0.00    +0.000 HD
ATOM     68  C   UNL     1      67.275 219.747 333.076  0.00  0.00    +0.000 C 
ATOM     69  C   UNL     1      66.906 220.162 331.766  0.00  0.00    +0.000 C 
ATOM     70  C   UNL     1      65.433 220.223 331.686  0.00  0.00    +0.000 C 
ATOM     71  C   UNL     1      70.055 221.351 337.740  0.00  0.00    +0.000 C 
ATOM     72  C   UNL     1      69.522 222.359 337.052  0.00  0.00    +0.000 C 
ATOM     73  C   UNL     1      70.276 221.093 339.096  0.00  0.00    +0.000 C 
ATOM     74  C   UNL     1      70.176 217.221 342.487  0.00  0.00    +0.000 C 
ATOM     75  C   UNL     1      70.487 216.117 343.269  0.00  0.00    +0.000 C 
ATOM     76  C   UNL     1      70.955 216.274 344.731  0.00  0.00    +0.000 C 
ATOM     77  C   UNL     1      69.550 215.108 343.154  0.00  0.00    +0.000 C 
ATOM     78  C   UNL     1      57.322 218.790 336.116  0.00  0.00    +0.000 C 
ATOM     79  C   UNL     1      56.199 219.492 336.242  0.00  0.00    +0.000 C 
ATOM     80  C   UNL     1      57.664 217.566 335.540  0.00  0.00    +0.000 C 
ATOM     81  C   UNL     1      60.544 213.988 345.705  0.00  0.00    +0.000 C 
ATOM     82  C   UNL     1      60.096 213.749 347.108  0.00  0.00    +0.000 C 
ATOM     83  C   UNL     1      61.729 213.408 345.188  0.00  0.00    +0.000 C 
ENDROOT
BRANCH  69  84
ATOM     84  C   UNL     1      67.730 220.123 330.617  0.00  0.00    +0.000 C 
ATOM     85  C   UNL     1      68.433 220.098 329.643  0.00  0.00    +0.000 C 
BRANCH  85  86
ATOM     86  C   UNL     1      69.328 220.071 328.400  0.00  0.00    +0.000 C 
ATOM     87  C   UNL     1      70.108 220.053 327.321  0.00  0.00    +0.000 C 
ENDBRANCH  85  86
ENDBRANCH  69  84
BRANCH  13  88
ATOM     88  C   UNL     1      66.660 218.709 336.486  0.00  0.00    +0.000 C 
BRANCH  88  89
ATOM     89  O   UNL     1      66.115 218.778 337.692  0.00  0.00    +0.000 OA
ATOM     90  H   UNL     1      66.333 217.978 338.203  0.00  0.00    +0.000 HD
ENDBRANCH  88  89
ENDBRANCH  13  88
TORSDOF 4
ENDMDL
MODEL 2
REMARK VINA RESULT:      -9.0      5.356      8.807
REMARK  Name = Cyclosporin_A.pdbqt.pdb
REMARK  4 active torsions:
REMARK  status: ('A' for Active; 'I' for Inactive)
REMARK    1  A    between atoms: N_13  and  C_36
REMARK    2  A    between atoms: C_36  and  O_70
REMARK    3  A    between atoms: C_72  and  C_73
REMARK    4  A    between atoms: C_75  and  C_76
REMARK                            x       y       z     vdW  Elec       q    Type
REMARK                         _______ _______ _______ _____ _____    ______ ____
ROOT
ATOM      1  O   UNL     1      63.343 215.978 326.309  0.00  0.00    +0.000 OA
ATOM      2  O   UNL     1      67.204 218.399 328.663  0.00  0.00    +0.000 OA
ATOM      3  O   UNL     1      64.871 221.906 330.938  0.00  0.00    +0.000 OA
ATOM      4  O   UNL     1      59.508 218.600 324.751  0.00  0.00    +0.000 OA
ATOM      5  O   UNL     1      66.064 217.241 332.531  0.00  0.00    +0.000 OA
ATOM      6  O   UNL     1      55.674 216.757 336.881  0.00  0.00    +0.000 OA
ATOM      7  O   UNL     1      58.540 213.678 327.185  0.00  0.00    +0.000 OA
ATOM      8  O   UNL     1      54.244 218.167 332.383  0.00  0.00    +0.000 OA
ATOM      9  O   UNL     1      60.274 217.500 338.210  0.00  0.00    +0.000 OA
ATOM     10  O   UNL     1      55.167 215.694 329.236  0.00  0.00    +0.000 OA
ATOM     11  O   UNL     1      63.079 215.870 335.367  0.00  0.00    +0.000 OA
ATOM     12  N   UNL     1      65.382 218.160 328.049  0.00  0.00    +0.000 NA
ATOM     13  N   UNL     1      62.467 218.113 326.988  0.00  0.00    +0.000 NA
ATOM     14  N   UNL     1      66.040 220.481 330.203  0.00  0.00    +0.000 NA
ATOM     15  N   UNL     1      65.024 219.551 333.069  0.00  0.00    +0.000 NA
ATOM     16  N   UNL     1      59.485 217.339 326.838  0.00  0.00    +0.000 NA
ATOM     17  N   UNL     1      57.088 218.567 336.362  0.00  0.00    +0.000 N 
ATOM     18  N   UNL     1      56.261 217.734 333.490  0.00  0.00    +0.000 N 
ATOM     19  N   UNL     1      55.878 216.435 330.920  0.00  0.00    +0.000 NA
ATOM     20  N   UNL     1      58.762 215.185 328.875  0.00  0.00    +0.000 NA
ATOM     21  N   UNL     1      62.764 217.726 333.748  0.00  0.00    +0.000 NA
ATOM     22  N   UNL     1      59.928 217.433 335.821  0.00  0.00    +0.000 NA
ATOM     23  C   UNL     1      64.696 217.035 327.698  0.00  0.00    +0.000 C 
ATOM     24  C   UNL     1      65.252 219.787 329.377  0.00  0.00    +0.000 C 
ATOM     25  C   UNL     1      61.612 218.289 325.917  0.00  0.00    +0.000 C 
ATOM     26  C   UNL     1      65.310 215.851 327.332  0.00  0.00    +0.000 C 
ATOM     27  C   UNL     1      64.733 220.942 328.610  0.00  0.00    +0.000 C 
ATOM     28  C   UNL     1      63.477 217.149 327.062  0.00  0.00    +0.000 C 
ATOM     29  C   UNL     1      66.049 218.723 329.122  0.00  0.00    +0.000 C 
ATOM     30  C   UNL     1      65.887 220.075 332.243  0.00  0.00    +0.000 C 
ATOM     31  C   UNL     1      65.211 220.687 331.230  0.00  0.00    +0.000 C 
ATOM     32  C   UNL     1      60.121 218.294 326.016  0.00  0.00    +0.000 C 
ATOM     33  C   UNL     1      66.677 216.269 327.323  0.00  0.00    +0.000 C 
ATOM     34  C   UNL     1      64.553 215.314 326.345  0.00  0.00    +0.000 C 
ATOM     35  C   UNL     1      66.606 217.542 327.868  0.00  0.00    +0.000 C 
ATOM     36  C   UNL     1      65.664 221.784 329.775  0.00  0.00    +0.000 C 
ATOM     37  C   UNL     1      59.080 216.044 326.426  0.00  0.00    +0.000 C 
ATOM     38  C   UNL     1      55.817 217.194 334.669  0.00  0.00    +0.000 A 
ATOM     39  C   UNL     1      65.127 218.305 332.616  0.00  0.00    +0.000 C 
ATOM     40  C   UNL     1      58.182 218.257 337.210  0.00  0.00    +0.000 C 
ATOM     41  C   UNL     1      55.687 217.770 331.046  0.00  0.00    +0.000 C 
ATOM     42  C   UNL     1      65.901 219.949 334.200  0.00  0.00    +0.000 C 
ATOM     43  C   UNL     1      54.881 216.137 334.888  0.00  0.00    +0.000 A 
ATOM     44  C   UNL     1      57.545 218.959 338.755  0.00  0.00    +0.000 C 
ATOM     45  C   UNL     1      63.929 217.624 333.186  0.00  0.00    +0.000 C 
ATOM     46  C   UNL     1      54.194 217.940 330.973  0.00  0.00    +0.000 C 
ATOM     47  C   UNL     1      59.083 215.870 325.010  0.00  0.00    +0.000 C 
ATOM     48  C   UNL     1      56.262 217.562 335.935  0.00  0.00    +0.000 A 
ATOM     49  C   UNL     1      58.819 215.083 327.347  0.00  0.00    +0.000 C 
ATOM     50  C   UNL     1      55.518 217.886 332.416  0.00  0.00    +0.000 C 
ATOM     51  C   UNL     1      59.428 217.690 337.083  0.00  0.00    +0.000 C 
ATOM     52  C   UNL     1      57.547 215.892 329.289  0.00  0.00    +0.000 C 
ATOM     53  C   UNL     1      54.139 215.301 333.880  0.00  0.00    +0.000 C 
ATOM     54  C   UNL     1      54.832 215.903 336.239  0.00  0.00    +0.000 A 
ATOM     55  C   UNL     1      56.277 216.438 329.609  0.00  0.00    +0.000 C 
ATOM     56  C   UNL     1      61.083 216.911 335.564  0.00  0.00    +0.000 C 
ATOM     57  C   UNL     1      64.990 216.784 332.979  0.00  0.00    +0.000 C 
ATOM     58  C   UNL     1      56.817 219.049 337.597  0.00  0.00    +0.000 C 
ATOM     59  C   UNL     1      59.353 216.413 323.976  0.00  0.00    +0.000 C 
ATOM     60  C   UNL     1      62.342 216.929 334.719  0.00  0.00    +0.000 C 
ATOM     61  C   UNL     1      54.439 216.017 330.463  0.00  0.00    +0.000 C 
ATOM     62  C   UNL     1      58.548 213.979 328.385  0.00  0.00    +0.000 C 
ATOM     63  C   UNL     1      62.001 216.001 335.971  0.00  0.00    +0.000 C 
ATOM     64  H   UNL     1      59.944 217.268 327.746  0.00  0.00    +0.000 HD
ATOM     65  H   UNL     1      57.269 217.812 333.383  0.00  0.00    +0.000 HD
ATOM     66  H   UNL     1      62.260 218.599 333.615  0.00  0.00    +0.000 HD
ATOM     67  H   UNL     1      59.480 218.019 335.123  0.00  0.00    +0.000 HD
ATOM     68  C   UNL     1      61.981 218.088 324.681  0.00  0.00    +0.000 C 
ATOM     69  C   UNL     1      61.337 217.794 323.447  0.00  0.00    +0.000 C 
ATOM     70  C   UNL     1      59.881 217.712 323.679  0.00  0.00    +0.000 C 
ATOM     71  C   UNL     1      65.191 221.923 327.335  0.00  0.00    +0.000 C 
ATOM     72  C   UNL     1      64.393 222.436 326.400  0.00  0.00    +0.000 C 
ATOM     73  C   UNL     1      65.672 222.368 328.570  0.00  0.00    +0.000 C 
ATOM     74  C   UNL     1      66.772 220.617 333.284  0.00  0.00    +0.000 C 
ATOM     75  C   UNL     1      67.385 220.051 334.393  0.00  0.00    +0.000 C 
ATOM     76  C   UNL     1      68.056 220.924 335.474  0.00  0.00    +0.000 C 
ATOM     77  C   UNL     1      66.621 219.052 334.967  0.00  0.00    +0.000 C 
ATOM     78  C   UNL     1      52.961 218.067 329.960  0.00  0.00    +0.000 C 
ATOM     79  C   UNL     1      51.775 218.668 329.998  0.00  0.00    +0.000 C 
ATOM     80  C   UNL     1      53.400 216.743 329.950  0.00  0.00    +0.000 C 
ATOM     81  C   UNL     1      58.468 218.715 339.689  0.00  0.00    +0.000 C 
ATOM     82  C   UNL     1      58.303 219.155 341.106  0.00  0.00    +0.000 C 
ATOM     83  C   UNL     1      59.630 218.038 339.245  0.00  0.00    +0.000 C 
ENDROOT
BRANCH  69  84
ATOM     84  C   UNL     1      61.956 217.259 322.292  0.00  0.00    +0.000 C 
ATOM     85  C   UNL     1      62.479 216.798 321.314  0.00  0.00    +0.000 C 
BRANCH  85  86
ATOM     86  C   UNL     1      63.148 216.205 320.069  0.00  0.00    +0.000 C 
ATOM     87  C   UNL     1      63.729 215.685 318.990  0.00  0.00    +0.000 C 
ENDBRANCH  85  86
ENDBRANCH  69  84
BRANCH  13  88
ATOM     88  C   UNL     1      62.117 218.788 328.227  0.00  0.00    +0.000 C 
BRANCH  88  89
ATOM     89  O   UNL     1      61.774 219.396 329.354  0.00  0.00    +0.000 OA
ATOM     90  H   UNL     1      62.263 220.233 329.443  0.00  0.00    +0.000 HD
ENDBRANCH  88  89
ENDBRANCH  13  88
TORSDOF 4
ENDMDL
MODEL 3
REMARK VINA RESULT:      -8.9     31.872     35.283
REMARK  Name = Cyclosporin_A.pdbqt.pdb
REMARK  4 active torsions:
REMARK  status: ('A' for Active; 'I' for Inactive)
REMARK    1  A    between atoms: N_13  and  C_36
REMARK    2  A    between atoms: C_36  and  O_70
REMARK    3  A    between atoms: C_72  and  C_73
REMARK    4  A    between atoms: C_75  and  C_76
REMARK                            x       y       z     vdW  Elec       q    Type
REMARK                         _______ _______ _______ _____ _____    ______ ____
ROOT
ATOM      1  O   UNL     1      52.084 250.409 328.124  0.00  0.00    +0.000 OA
ATOM      2  O   UNL     1      48.463 246.878 327.269  0.00  0.00    +0.000 OA
ATOM      3  O   UNL     1      49.760 243.434 330.330  0.00  0.00    +0.000 OA
ATOM      4  O   UNL     1      56.601 248.923 329.308  0.00  0.00    +0.000 OA
ATOM      5  O   UNL     1      46.601 247.345 330.998  0.00  0.00    +0.000 OA
ATOM      6  O   UNL     1      51.448 248.721 341.083  0.00  0.00    +0.000 OA
ATOM      7  O   UNL     1      54.445 253.284 332.034  0.00  0.00    +0.000 OA
ATOM      8  O   UNL     1      55.664 248.611 338.537  0.00  0.00    +0.000 OA
ATOM      9  O   UNL     1      47.446 246.891 339.055  0.00  0.00    +0.000 OA
ATOM     10  O   UNL     1      56.231 251.507 335.680  0.00  0.00    +0.000 OA
ATOM     11  O   UNL     1      46.674 248.574 335.159  0.00  0.00    +0.000 OA
ATOM     12  N   UNL     1      50.117 247.568 328.002  0.00  0.00    +0.000 NA
ATOM     13  N   UNL     1      52.907 248.369 329.100  0.00  0.00    +0.000 NA
ATOM     14  N   UNL     1      48.953 244.752 329.085  0.00  0.00    +0.000 NA
ATOM     15  N   UNL     1      47.680 245.199 331.964  0.00  0.00    +0.000 NA
ATOM     16  N   UNL     1      54.982 249.680 330.968  0.00  0.00    +0.000 NA
ATOM     17  N   UNL     1      51.229 246.845 339.677  0.00  0.00    +0.000 N 
ATOM     18  N   UNL     1      53.375 248.422 338.084  0.00  0.00    +0.000 N 
ATOM     19  N   UNL     1      54.877 250.300 336.454  0.00  0.00    +0.000 NA
ATOM     20  N   UNL     1      53.661 251.429 333.091  0.00  0.00    +0.000 NA
ATOM     21  N   UNL     1      48.419 247.205 334.044  0.00  0.00    +0.000 NA
ATOM     22  N   UNL     1      49.153 247.542 337.475  0.00  0.00    +0.000 NA
ATOM     23  C   UNL     1      50.526 248.848 328.241  0.00  0.00    +0.000 C 
ATOM     24  C   UNL     1      49.849 245.740 329.009  0.00  0.00    +0.000 C 
ATOM     25  C   UNL     1      54.245 248.589 328.837  0.00  0.00    +0.000 C 
ATOM     26  C   UNL     1      49.968 249.953 327.624  0.00  0.00    +0.000 C 
ATOM     27  C   UNL     1      51.026 244.894 328.707  0.00  0.00    +0.000 C 
ATOM     28  C   UNL     1      51.848 249.097 328.547  0.00  0.00    +0.000 C 
ATOM     29  C   UNL     1      49.122 246.673 328.351  0.00  0.00    +0.000 C 
ATOM     30  C   UNL     1      47.697 244.722 330.751  0.00  0.00    +0.000 C 
ATOM     31  C   UNL     1      48.990 244.478 330.392  0.00  0.00    +0.000 C 
ATOM     32  C   UNL     1      55.285 248.830 329.883  0.00  0.00    +0.000 C 
ATOM     33  C   UNL     1      49.083 249.309 326.706  0.00  0.00    +0.000 C 
ATOM     34  C   UNL     1      50.984 250.821 327.397  0.00  0.00    +0.000 C 
ATOM     35  C   UNL     1      49.155 247.981 327.100  0.00  0.00    +0.000 C 
ATOM     36  C   UNL     1      49.857 243.665 328.940  0.00  0.00    +0.000 C 
ATOM     37  C   UNL     1      55.173 251.084 330.986  0.00  0.00    +0.000 C 
ATOM     38  C   UNL     1      52.826 248.761 339.294  0.00  0.00    +0.000 A 
ATOM     39  C   UNL     1      47.535 246.474 331.618  0.00  0.00    +0.000 C 
ATOM     40  C   UNL     1      49.815 246.760 339.623  0.00  0.00    +0.000 C 
ATOM     41  C   UNL     1      55.312 249.026 336.605  0.00  0.00    +0.000 C 
ATOM     42  C   UNL     1      46.448 244.412 332.229  0.00  0.00    +0.000 C 
ATOM     43  C   UNL     1      53.087 249.894 340.123  0.00  0.00    +0.000 A 
ATOM     44  C   UNL     1      49.528 245.863 341.171  0.00  0.00    +0.000 C 
ATOM     45  C   UNL     1      47.877 247.218 332.865  0.00  0.00    +0.000 C 
ATOM     46  C   UNL     1      56.505 249.147 337.514  0.00  0.00    +0.000 C 
ATOM     47  C   UNL     1      55.994 251.561 329.921  0.00  0.00    +0.000 C 
ATOM     48  C   UNL     1      51.821 248.051 339.943  0.00  0.00    +0.000 A 
ATOM     49  C   UNL     1      54.531 251.852 331.902  0.00  0.00    +0.000 C 
ATOM     50  C   UNL     1      54.626 248.645 337.747  0.00  0.00    +0.000 C 
ATOM     51  C   UNL     1      48.816 247.108 338.743  0.00  0.00    +0.000 C 
ATOM     52  C   UNL     1      54.499 250.878 334.160  0.00  0.00    +0.000 C 
ATOM     53  C   UNL     1      54.021 251.050 339.885  0.00  0.00    +0.000 C 
ATOM     54  C   UNL     1      52.227 249.832 341.189  0.00  0.00    +0.000 A 
ATOM     55  C   UNL     1      55.391 250.513 335.201  0.00  0.00    +0.000 C 
ATOM     56  C   UNL     1      48.314 247.891 336.555  0.00  0.00    +0.000 C 
ATOM     57  C   UNL     1      46.989 247.878 332.060  0.00  0.00    +0.000 C 
ATOM     58  C   UNL     1      50.803 246.160 340.763  0.00  0.00    +0.000 C 
ATOM     59  C   UNL     1      56.583 251.219 328.934  0.00  0.00    +0.000 C 
ATOM     60  C   UNL     1      47.911 247.832 335.094  0.00  0.00    +0.000 C 
ATOM     61  C   UNL     1      56.103 251.059 337.066  0.00  0.00    +0.000 C 
ATOM     62  C   UNL     1      53.784 252.731 332.922  0.00  0.00    +0.000 C 
ATOM     63  C   UNL     1      47.132 248.510 336.312  0.00  0.00    +0.000 C 
ATOM     64  H   UNL     1      54.064 249.466 331.360  0.00  0.00    +0.000 HD
ATOM     65  H   UNL     1      52.719 248.190 337.342  0.00  0.00    +0.000 HD
ATOM     66  H   UNL     1      49.116 246.488 334.226  0.00  0.00    +0.000 HD
ATOM     67  H   UNL     1      50.076 247.213 337.209  0.00  0.00    +0.000 HD
ATOM     68  C   UNL     1      54.678 248.986 327.672  0.00  0.00    +0.000 C 
ATOM     69  C   UNL     1      55.830 249.654 327.171  0.00  0.00    +0.000 C 
ATOM     70  C   UNL     1      56.738 249.944 328.299  0.00  0.00    +0.000 C 
ATOM     71  C   UNL     1      51.747 244.150 327.393  0.00  0.00    +0.000 C 
ATOM     72  C   UNL     1      53.053 244.006 327.179  0.00  0.00    +0.000 C 
ATOM     73  C   UNL     1      50.756 243.367 327.992  0.00  0.00    +0.000 C 
ATOM     74  C   UNL     1      46.556 243.815 330.935  0.00  0.00    +0.000 C 
ATOM     75  C   UNL     1      45.263 244.005 331.404  0.00  0.00    +0.000 C 
ATOM     76  C   UNL     1      44.346 242.810 331.741  0.00  0.00    +0.000 C 
ATOM     77  C   UNL     1      45.195 244.974 332.387  0.00  0.00    +0.000 C 
ATOM     78  C   UNL     1      58.073 249.468 337.544  0.00  0.00    +0.000 C 
ATOM     79  C   UNL     1      59.092 249.097 338.314  0.00  0.00    +0.000 C 
ATOM     80  C   UNL     1      57.387 250.662 337.318  0.00  0.00    +0.000 C 
ATOM     81  C   UNL     1      48.206 245.726 341.289  0.00  0.00    +0.000 C 
ATOM     82  C   UNL     1      47.578 245.023 342.447  0.00  0.00    +0.000 C 
ATOM     83  C   UNL     1      47.433 246.264 340.231  0.00  0.00    +0.000 C 
ENDROOT
BRANCH  69  84
ATOM     84  C   UNL     1      55.936 250.309 325.921  0.00  0.00    +0.000 C 
ATOM     85  C   UNL     1      56.025 250.858 324.857  0.00  0.00    +0.000 C 
BRANCH  85  86
ATOM     86  C   UNL     1      56.139 251.553 323.496  0.00  0.00    +0.000 C 
ATOM     87  C   UNL     1      56.235 252.161 322.315  0.00  0.00    +0.000 C 
ENDBRANCH  85  86
ENDBRANCH  69  84
BRANCH  13  88
ATOM     88  C   UNL     1      52.590 247.514 330.231  0.00  0.00    +0.000 C 
BRANCH  88  89
ATOM     89  O   UNL     1      52.300 246.753 331.278  0.00  0.00    +0.000 OA
ATOM     90  H   UNL     1      51.992 247.308 332.018  0.00  0.00    +0.000 HD
ENDBRANCH  88  89
ENDBRANCH  13  88
TORSDOF 4
ENDMDL
MODEL 4
REMARK VINA RESULT:      -8.9      3.036     12.865
REMARK  Name = Cyclosporin_A.pdbqt.pdb
REMARK  4 active torsions:
REMARK  status: ('A' for Active; 'I' for Inactive)
REMARK    1  A    between atoms: N_13  and  C_36
REMARK    2  A    between atoms: C_36  and  O_70
REMARK    3  A    between atoms: C_72  and  C_73
REMARK    4  A    between atoms: C_75  and  C_76
REMARK                            x       y       z     vdW  Elec       q    Type
REMARK                         _______ _______ _______ _____ _____    ______ ____
ROOT
ATOM      1  O   UNL     1      61.898 212.457 338.707  0.00  0.00    +0.000 OA
ATOM      2  O   UNL     1      57.030 213.659 337.624  0.00  0.00    +0.000 OA
ATOM      3  O   UNL     1      57.275 218.432 337.350  0.00  0.00    +0.000 OA
ATOM      4  O   UNL     1      64.538 215.538 341.454  0.00  0.00    +0.000 OA
ATOM      5  O   UNL     1      57.827 214.942 333.711  0.00  0.00    +0.000 OA
ATOM      6  O   UNL     1      66.538 221.078 330.027  0.00  0.00    +0.000 OA
ATOM      7  O   UNL     1      66.977 213.175 337.031  0.00  0.00    +0.000 OA
ATOM      8  O   UNL     1      68.052 220.861 334.710  0.00  0.00    +0.000 OA
ATOM      9  O   UNL     1      61.879 220.191 329.035  0.00  0.00    +0.000 OA
ATOM     10  O   UNL     1      68.803 217.146 336.292  0.00  0.00    +0.000 OA
ATOM     11  O   UNL     1      60.547 216.431 330.675  0.00  0.00    +0.000 OA
ATOM     12  N   UNL     1      58.868 214.016 338.121  0.00  0.00    +0.000 NA
ATOM     13  N   UNL     1      61.687 214.814 339.143  0.00  0.00    +0.000 NA
ATOM     14  N   UNL     1      56.943 216.477 337.287  0.00  0.00    +0.000 NA
ATOM     15  N   UNL     1      57.717 217.447 334.359  0.00  0.00    +0.000 NA
ATOM     16  N   UNL     1      64.698 215.469 339.021  0.00  0.00    +0.000 NA
ATOM     17  N   UNL     1      64.627 221.640 331.283  0.00  0.00    +0.000 N 
ATOM     18  N   UNL     1      66.225 220.107 333.457  0.00  0.00    +0.000 N 
ATOM     19  N   UNL     1      67.561 218.142 335.128  0.00  0.00    +0.000 NA
ATOM     20  N   UNL     1      65.858 214.991 336.240  0.00  0.00    +0.000 NA
ATOM     21  N   UNL     1      60.361 217.320 332.986  0.00  0.00    +0.000 NA
ATOM     22  N   UNL     1      62.646 219.253 331.124  0.00  0.00    +0.000 NA
ATOM     23  C   UNL     1      60.005 213.287 337.928  0.00  0.00    +0.000 C 
ATOM     24  C   UNL     1      58.080 215.925 337.718  0.00  0.00    +0.000 C 
ATOM     25  C   UNL     1      62.573 214.866 340.201  0.00  0.00    +0.000 C 
ATOM     26  C   UNL     1      60.004 211.928 337.673  0.00  0.00    +0.000 C 
ATOM     27  C   UNL     1      58.212 216.726 338.956  0.00  0.00    +0.000 C 
ATOM     28  C   UNL     1      61.163 213.642 338.588  0.00  0.00    +0.000 C 
ATOM     29  C   UNL     1      57.848 214.626 337.414  0.00  0.00    +0.000 C 
ATOM     30  C   UNL     1      56.879 217.115 335.301  0.00  0.00    +0.000 C 
ATOM     31  C   UNL     1      57.416 217.454 336.507  0.00  0.00    +0.000 C 
ATOM     32  C   UNL     1      63.887 215.576 340.171  0.00  0.00    +0.000 C 
ATOM     33  C   UNL     1      58.612 211.643 337.827  0.00  0.00    +0.000 C 
ATOM     34  C   UNL     1      61.079 211.415 338.319  0.00  0.00    +0.000 C 
ATOM     35  C   UNL     1      58.058 212.909 337.946  0.00  0.00    +0.000 C 
ATOM     36  C   UNL     1      56.825 217.478 338.289  0.00  0.00    +0.000 C 
ATOM     37  C   UNL     1      65.663 214.457 338.791  0.00  0.00    +0.000 C 
ATOM     38  C   UNL     1      66.630 220.394 332.179  0.00  0.00    +0.000 A 
ATOM     39  C   UNL     1      58.215 216.229 334.169  0.00  0.00    +0.000 C 
ATOM     40  C   UNL     1      63.622 221.280 330.349  0.00  0.00    +0.000 C 
ATOM     41  C   UNL     1      67.163 219.327 335.651  0.00  0.00    +0.000 C 
ATOM     42  C   UNL     1      56.566 217.861 333.516  0.00  0.00    +0.000 C 
ATOM     43  C   UNL     1      67.860 220.079 331.524  0.00  0.00    +0.000 A 
ATOM     44  C   UNL     1      63.627 222.784 329.339  0.00  0.00    +0.000 C 
ATOM     45  C   UNL     1      59.462 216.477 333.391  0.00  0.00    +0.000 C 
ATOM     46  C   UNL     1      68.443 220.092 335.849  0.00  0.00    +0.000 C 
ATOM     47  C   UNL     1      65.987 213.703 339.960  0.00  0.00    +0.000 C 
ATOM     48  C   UNL     1      65.854 221.035 331.219  0.00  0.00    +0.000 A 
ATOM     49  C   UNL     1      66.124 214.221 337.537  0.00  0.00    +0.000 C 
ATOM     50  C   UNL     1      67.021 220.089 334.502  0.00  0.00    +0.000 C 
ATOM     51  C   UNL     1      62.762 220.227 330.150  0.00  0.00    +0.000 C 
ATOM     52  C   UNL     1      66.582 216.265 336.251  0.00  0.00    +0.000 C 
ATOM     53  C   UNL     1      69.046 219.315 332.048  0.00  0.00    +0.000 C 
ATOM     54  C   UNL     1      67.757 220.505 330.224  0.00  0.00    +0.000 A 
ATOM     55  C   UNL     1      67.439 217.396 336.272  0.00  0.00    +0.000 C 
ATOM     56  C   UNL     1      61.872 218.219 331.063  0.00  0.00    +0.000 C 
ATOM     57  C   UNL     1      58.893 215.258 333.140  0.00  0.00    +0.000 C 
ATOM     58  C   UNL     1      64.450 222.675 330.430  0.00  0.00    +0.000 C 
ATOM     59  C   UNL     1      65.710 213.558 341.116  0.00  0.00    +0.000 C 
ATOM     60  C   UNL     1      60.890 217.306 331.771  0.00  0.00    +0.000 C 
ATOM     61  C   UNL     1      69.101 218.256 335.388  0.00  0.00    +0.000 C 
ATOM     62  C   UNL     1      66.631 213.929 336.113  0.00  0.00    +0.000 C 
ATOM     63  C   UNL     1      61.349 217.276 330.243  0.00  0.00    +0.000 C 
ATOM     64  H   UNL     1      64.153 215.605 338.169  0.00  0.00    +0.000 HD
ATOM     65  H   UNL     1      65.310 219.672 333.550  0.00  0.00    +0.000 HD
ATOM     66  H   UNL     1      60.480 218.169 333.532  0.00  0.00    +0.000 HD
ATOM     67  H   UNL     1      62.934 219.608 332.031  0.00  0.00    +0.000 HD
ATOM     68  C   UNL     1      62.547 214.007 341.184  0.00  0.00    +0.000 C 
ATOM     69  C   UNL     1      63.466 213.526 342.158  0.00  0.00    +0.000 C 
ATOM     70  C   UNL     1      64.760 214.210 341.968  0.00  0.00    +0.000 C 
ATOM     71  C   UNL     1      57.630 216.736 340.525  0.00  0.00    +0.000 C 
ATOM     72  C   UNL     1      58.303 217.086 341.620  0.00  0.00    +0.000 C 
ATOM     73  C   UNL     1      56.796 217.407 339.626  0.00  0.00    +0.000 C 
ATOM     74  C   UNL     1      55.679 217.598 334.605  0.00  0.00    +0.000 C 
ATOM     75  C   UNL     1      55.162 217.365 333.338  0.00  0.00    +0.000 C 
ATOM     76  C   UNL     1      54.009 218.220 332.770  0.00  0.00    +0.000 C 
ATOM     77  C   UNL     1      56.150 217.173 332.391  0.00  0.00    +0.000 C 
ATOM     78  C   UNL     1      69.676 220.300 336.848  0.00  0.00    +0.000 C 
ATOM     79  C   UNL     1      70.486 221.314 337.141  0.00  0.00    +0.000 C 
ATOM     80  C   UNL     1      69.827 219.063 336.219  0.00  0.00    +0.000 C 
ATOM     81  C   UNL     1      62.733 222.589 328.367  0.00  0.00    +0.000 C 
ATOM     82  C   UNL     1      62.446 223.623 327.329  0.00  0.00    +0.000 C 
ATOM     83  C   UNL     1      62.049 221.349 328.397  0.00  0.00    +0.000 C 
ENDROOT
BRANCH  69  84
ATOM     84  C   UNL     1      63.339 212.330 342.903  0.00  0.00    +0.000 C 
ATOM     85  C   UNL     1      63.237 211.312 343.532  0.00  0.00    +0.000 C 
BRANCH  85  86
ATOM     86  C   UNL     1      63.110 210.010 344.330  0.00  0.00    +0.000 C 
ATOM     87  C   UNL     1      63.001 208.876 345.020  0.00  0.00    +0.000 C 
ENDBRANCH  85  86
ENDBRANCH  69  84
BRANCH  13  88
ATOM     88  C   UNL     1      61.501 216.037 338.379  0.00  0.00    +0.000 C 
BRANCH  88  89
ATOM     89  O   UNL     1      61.355 217.160 337.690  0.00  0.00    +0.000 OA
ATOM     90  H   UNL     1      60.846 217.807 338.211  0.00  0.00    +0.000 HD
ENDBRANCH  88  89
ENDBRANCH  13  88
TORSDOF 4
ENDMDL
MODEL 5
REMARK VINA RESULT:      -8.2      8.067     12.608
REMARK  Name = Cyclosporin_A.pdbqt.pdb
REMARK  4 active torsions:
REMARK  status: ('A' for Active; 'I' for Inactive)
REMARK    1  A    between atoms: N_13  and  C_36
REMARK    2  A    between atoms: C_36  and  O_70
REMARK    3  A    between atoms: C_72  and  C_73
REMARK    4  A    between atoms: C_75  and  C_76
REMARK                            x       y       z     vdW  Elec       q    Type
REMARK                         _______ _______ _______ _____ _____    ______ ____
ROOT
ATOM      1  O   UNL     1      58.397 216.751 323.764  0.00  0.00    +0.000 OA
ATOM      2  O   UNL     1      62.399 219.831 324.659  0.00  0.00    +0.000 OA
ATOM      3  O   UNL     1      60.594 222.787 327.963  0.00  0.00    +0.000 OA
ATOM      4  O   UNL     1      53.873 218.611 324.045  0.00  0.00    +0.000 OA
ATOM      5  O   UNL     1      63.095 218.414 328.546  0.00  0.00    +0.000 OA
ATOM      6  O   UNL     1      55.518 215.871 336.496  0.00  0.00    +0.000 OA
ATOM      7  O   UNL     1      54.800 213.556 326.209  0.00  0.00    +0.000 OA
ATOM      8  O   UNL     1      52.210 217.051 333.042  0.00  0.00    +0.000 OA
ATOM      9  O   UNL     1      60.068 217.463 336.013  0.00  0.00    +0.000 OA
ATOM     10  O   UNL     1      52.221 214.852 329.573  0.00  0.00    +0.000 OA
ATOM     11  O   UNL     1      61.755 216.449 332.175  0.00  0.00    +0.000 OA
ATOM     12  N   UNL     1      60.553 219.257 324.775  0.00  0.00    +0.000 NA
ATOM     13  N   UNL     1      57.510 218.666 324.917  0.00  0.00    +0.000 NA
ATOM     14  N   UNL     1      61.602 221.626 326.709  0.00  0.00    +0.000 NA
ATOM     15  N   UNL     1      61.975 220.471 329.649  0.00  0.00    +0.000 NA
ATOM     16  N   UNL     1      54.892 217.335 325.857  0.00  0.00    +0.000 NA
ATOM     17  N   UNL     1      56.280 217.927 335.639  0.00  0.00    +0.000 N 
ATOM     18  N   UNL     1      54.541 216.996 333.244  0.00  0.00    +0.000 N 
ATOM     19  N   UNL     1      53.402 215.689 330.913  0.00  0.00    +0.000 NA
ATOM     20  N   UNL     1      55.411 215.051 327.811  0.00  0.00    +0.000 NA
ATOM     21  N   UNL     1      60.515 218.236 330.978  0.00  0.00    +0.000 NA
ATOM     22  N   UNL     1      58.824 217.369 333.946  0.00  0.00    +0.000 NA
ATOM     23  C   UNL     1      59.987 218.026 324.614  0.00  0.00    +0.000 C 
ATOM     24  C   UNL     1      60.683 220.807 326.192  0.00  0.00    +0.000 C 
ATOM     25  C   UNL     1      56.286 218.692 324.279  0.00  0.00    +0.000 C 
ATOM     26  C   UNL     1      60.599 216.988 323.935  0.00  0.00    +0.000 C 
ATOM     27  C   UNL     1      59.714 221.852 325.791  0.00  0.00    +0.000 C 
ATOM     28  C   UNL     1      58.616 217.913 324.509  0.00  0.00    +0.000 C 
ATOM     29  C   UNL     1      61.483 219.920 325.554  0.00  0.00    +0.000 C 
ATOM     30  C   UNL     1      62.339 221.165 328.606  0.00  0.00    +0.000 C 
ATOM     31  C   UNL     1      61.224 221.652 327.991  0.00  0.00    +0.000 C 
ATOM     32  C   UNL     1      54.978 218.408 324.944  0.00  0.00    +0.000 C 
ATOM     33  C   UNL     1      61.758 217.662 323.438  0.00  0.00    +0.000 C 
ATOM     34  C   UNL     1      59.617 216.331 323.271  0.00  0.00    +0.000 C 
ATOM     35  C   UNL     1      61.691 218.888 324.081  0.00  0.00    +0.000 C 
ATOM     36  C   UNL     1      60.871 222.838 326.579  0.00  0.00    +0.000 C 
ATOM     37  C   UNL     1      54.584 215.994 325.518  0.00  0.00    +0.000 C 
ATOM     38  C   UNL     1      54.698 216.362 334.449  0.00  0.00    +0.000 A 
ATOM     39  C   UNL     1      62.102 219.276 329.081  0.00  0.00    +0.000 C 
ATOM     40  C   UNL     1      57.655 217.820 335.969  0.00  0.00    +0.000 C 
ATOM     41  C   UNL     1      53.052 216.961 331.223  0.00  0.00    +0.000 C 
ATOM     42  C   UNL     1      63.146 221.013 330.386  0.00  0.00    +0.000 C 
ATOM     43  C   UNL     1      54.120 215.142 334.915  0.00  0.00    +0.000 A 
ATOM     44  C   UNL     1      57.571 218.361 337.697  0.00  0.00    +0.000 C 
ATOM     45  C   UNL     1      61.362 218.368 330.004  0.00  0.00    +0.000 C 
ATOM     46  C   UNL     1      51.646 216.841 331.746  0.00  0.00    +0.000 C 
ATOM     47  C   UNL     1      54.057 215.846 324.200  0.00  0.00    +0.000 C 
ATOM     48  C   UNL     1      55.537 216.788 335.473  0.00  0.00    +0.000 A 
ATOM     49  C   UNL     1      54.876 214.985 326.377  0.00  0.00    +0.000 C 
ATOM     50  C   UNL     1      53.421 217.019 332.557  0.00  0.00    +0.000 C 
ATOM     51  C   UNL     1      58.827 217.505 335.321  0.00  0.00    +0.000 C 
ATOM     52  C   UNL     1      54.357 215.504 328.723  0.00  0.00    +0.000 C 
ATOM     53  C   UNL     1      53.195 214.195 334.198  0.00  0.00    +0.000 C 
ATOM     54  C   UNL     1      54.649 214.881 336.153  0.00  0.00    +0.000 A 
ATOM     55  C   UNL     1      53.244 215.790 329.555  0.00  0.00    +0.000 C 
ATOM     56  C   UNL     1      59.854 217.083 333.218  0.00  0.00    +0.000 C 
ATOM     57  C   UNL     1      62.382 217.752 329.329  0.00  0.00    +0.000 C 
ATOM     58  C   UNL     1      56.441 218.328 336.921  0.00  0.00    +0.000 C 
ATOM     59  C   UNL     1      53.800 216.447 323.195  0.00  0.00    +0.000 C 
ATOM     60  C   UNL     1      60.654 217.357 331.960  0.00  0.00    +0.000 C 
ATOM     61  C   UNL     1      51.994 215.009 331.009  0.00  0.00    +0.000 C 
ATOM     62  C   UNL     1      55.230 213.833 327.335  0.00  0.00    +0.000 C 
ATOM     63  C   UNL     1      60.999 216.360 333.157  0.00  0.00    +0.000 C 
ATOM     64  H   UNL     1      55.677 217.340 326.509  0.00  0.00    +0.000 HD
ATOM     65  H   UNL     1      55.396 217.268 332.765  0.00  0.00    +0.000 HD
ATOM     66  H   UNL     1      59.859 218.998 331.128  0.00  0.00    +0.000 HD
ATOM     67  H   UNL     1      58.043 217.869 333.531  0.00  0.00    +0.000 HD
ATOM     68  C   UNL     1      56.165 218.585 322.984  0.00  0.00    +0.000 C 
ATOM     69  C   UNL     1      55.146 218.192 322.071  0.00  0.00    +0.000 C 
ATOM     70  C   UNL     1      53.938 217.828 322.837  0.00  0.00    +0.000 C 
ATOM     71  C   UNL     1      59.457 222.924 324.532  0.00  0.00    +0.000 C 
ATOM     72  C   UNL     1      58.279 223.288 324.027  0.00  0.00    +0.000 C 
ATOM     73  C   UNL     1      60.303 223.432 325.522  0.00  0.00    +0.000 C 
ATOM     74  C   UNL     1      63.456 221.851 329.271  0.00  0.00    +0.000 C 
ATOM     75  C   UNL     1      64.544 221.395 330.003  0.00  0.00    +0.000 C 
ATOM     76  C   UNL     1      65.428 222.364 330.816  0.00  0.00    +0.000 C 
ATOM     77  C   UNL     1      64.252 220.259 330.733  0.00  0.00    +0.000 C 
ATOM     78  C   UNL     1      50.111 216.745 331.302  0.00  0.00    +0.000 C 
ATOM     79  C   UNL     1      48.953 217.105 331.847  0.00  0.00    +0.000 C 
ATOM     80  C   UNL     1      50.730 215.530 331.003  0.00  0.00    +0.000 C 
ATOM     81  C   UNL     1      58.815 218.284 338.177  0.00  0.00    +0.000 C 
ATOM     82  C   UNL     1      59.151 218.661 339.582  0.00  0.00    +0.000 C 
ATOM     83  C   UNL     1      59.804 217.850 337.261  0.00  0.00    +0.000 C 
ENDROOT
BRANCH  69  84
ATOM     84  C   UNL     1      55.340 217.805 320.724  0.00  0.00    +0.000 C 
ATOM     85  C   UNL     1      55.504 217.469 319.582  0.00  0.00    +0.000 C 
BRANCH  85  86
ATOM     86  C   UNL     1      55.715 217.035 318.128  0.00  0.00    +0.000 C 
ATOM     87  C   UNL     1      55.904 216.661 316.864  0.00  0.00    +0.000 C 
ENDBRANCH  85  86
ENDBRANCH  69  84
BRANCH  13  88
ATOM     88  C   UNL     1      57.569 219.241 326.251  0.00  0.00    +0.000 C 
BRANCH  88  89
ATOM     89  O   UNL     1      57.601 219.753 327.474  0.00  0.00    +0.000 OA
ATOM     90  H   UNL     1      56.696 219.934 327.783  0.00  0.00    +0.000 HD
ENDBRANCH  88  89
ENDBRANCH  13  88
TORSDOF 4
ENDMDL
MODEL 6
REMARK VINA RESULT:      -8.1      2.307      9.031
REMARK  Name = Cyclosporin_A.pdbqt.pdb
REMARK  4 active torsions:
REMARK  status: ('A' for Active; 'I' for Inactive)
REMARK    1  A    between atoms: N_13  and  C_36
REMARK    2  A    between atoms: C_36  and  O_70
REMARK    3  A    between atoms: C_72  and  C_73
REMARK    4  A    between atoms: C_75  and  C_76
REMARK                            x       y       z     vdW  Elec       q    Type
REMARK                         _______ _______ _______ _____ _____    ______ ____
ROOT
ATOM      1  O   UNL     1      65.482 220.477 332.488  0.00  0.00    +0.000 OA
ATOM      2  O   UNL     1      61.303 218.640 330.149  0.00  0.00    +0.000 OA
ATOM      3  O   UNL     1      61.264 214.113 331.704  0.00  0.00    +0.000 OA
ATOM      4  O   UNL     1      69.283 217.477 333.237  0.00  0.00    +0.000 OA
ATOM      5  O   UNL     1      59.056 218.236 333.667  0.00  0.00    +0.000 OA
ATOM      6  O   UNL     1      62.489 214.501 343.736  0.00  0.00    +0.000 OA
ATOM      7  O   UNL     1      67.830 220.984 337.321  0.00  0.00    +0.000 OA
ATOM      8  O   UNL     1      66.897 214.148 341.566  0.00  0.00    +0.000 OA
ATOM      9  O   UNL     1      58.526 214.707 340.954  0.00  0.00    +0.000 OA
ATOM     10  O   UNL     1      68.565 217.597 340.084  0.00  0.00    +0.000 OA
ATOM     11  O   UNL     1      58.780 217.818 337.978  0.00  0.00    +0.000 OA
ATOM     12  N   UNL     1      62.941 218.534 331.176  0.00  0.00    +0.000 NA
ATOM     13  N   UNL     1      65.640 218.081 332.640  0.00  0.00    +0.000 NA
ATOM     14  N   UNL     1      60.992 215.958 331.025  0.00  0.00    +0.000 NA
ATOM     15  N   UNL     1      59.435 215.677 333.783  0.00  0.00    +0.000 NA
ATOM     16  N   UNL     1      67.654 218.004 334.974  0.00  0.00    +0.000 NA
ATOM     17  N   UNL     1      62.050 213.394 341.704  0.00  0.00    +0.000 N 
ATOM     18  N   UNL     1      64.726 214.776 340.957  0.00  0.00    +0.000 N 
ATOM     19  N   UNL     1      66.861 216.618 340.260  0.00  0.00    +0.000 NA
ATOM     20  N   UNL     1      66.476 219.168 337.537  0.00  0.00    +0.000 NA
ATOM     21  N   UNL     1      60.301 216.514 336.512  0.00  0.00    +0.000 NA
ATOM     22  N   UNL     1      60.560 215.380 339.839  0.00  0.00    +0.000 NA
ATOM     23  C   UNL     1      63.600 219.476 331.912  0.00  0.00    +0.000 C 
ATOM     24  C   UNL     1      62.097 216.618 331.383  0.00  0.00    +0.000 C 
ATOM     25  C   UNL     1      67.016 218.000 332.552  0.00  0.00    +0.000 C 
ATOM     26  C   UNL     1      63.421 220.837 331.742  0.00  0.00    +0.000 C 
ATOM     27  C   UNL     1      63.072 215.646 330.838  0.00  0.00    +0.000 C 
ATOM     28  C   UNL     1      64.880 219.221 332.358  0.00  0.00    +0.000 C 
ATOM     29  C   UNL     1      61.721 217.887 331.100  0.00  0.00    +0.000 C 
ATOM     30  C   UNL     1      59.525 215.682 332.482  0.00  0.00    +0.000 C 
ATOM     31  C   UNL     1      60.762 215.235 332.125  0.00  0.00    +0.000 C 
ATOM     32  C   UNL     1      67.910 217.552 333.662  0.00  0.00    +0.000 C 
ATOM     33  C   UNL     1      62.560 220.837 330.602  0.00  0.00    +0.000 C 
ATOM     34  C   UNL     1      64.636 221.410 331.921  0.00  0.00    +0.000 C 
ATOM     35  C   UNL     1      62.254 219.493 330.455  0.00  0.00    +0.000 C 
ATOM     36  C   UNL     1      61.625 214.790 330.517  0.00  0.00    +0.000 C 
ATOM     37  C   UNL     1      68.168 219.197 335.544  0.00  0.00    +0.000 C 
ATOM     38  C   UNL     1      64.094 214.797 342.174  0.00  0.00    +0.000 A 
ATOM     39  C   UNL     1      59.651 216.978 333.950  0.00  0.00    +0.000 C 
ATOM     40  C   UNL     1      60.681 213.729 341.548  0.00  0.00    +0.000 C 
ATOM     41  C   UNL     1      66.954 215.308 339.929  0.00  0.00    +0.000 C 
ATOM     42  C   UNL     1      58.027 215.221 333.659  0.00  0.00    +0.000 C 
ATOM     43  C   UNL     1      64.486 215.437 343.389  0.00  0.00    +0.000 A 
ATOM     44  C   UNL     1      59.957 212.454 342.613  0.00  0.00    +0.000 C 
ATOM     45  C   UNL     1      59.965 217.098 335.403  0.00  0.00    +0.000 C 
ATOM     46  C   UNL     1      67.988 214.759 340.874  0.00  0.00    +0.000 C 
ATOM     47  C   UNL     1      69.231 219.776 334.789  0.00  0.00    +0.000 C 
ATOM     48  C   UNL     1      62.863 214.209 342.446  0.00  0.00    +0.000 A 
ATOM     49  C   UNL     1      67.593 219.730 336.651  0.00  0.00    +0.000 C 
ATOM     50  C   UNL     1      66.030 214.749 340.798  0.00  0.00    +0.000 C 
ATOM     51  C   UNL     1      59.940 214.632 340.822  0.00  0.00    +0.000 C 
ATOM     52  C   UNL     1      66.986 218.061 338.351  0.00  0.00    +0.000 C 
ATOM     53  C   UNL     1      65.692 216.294 343.666  0.00  0.00    +0.000 C 
ATOM     54  C   UNL     1      63.483 215.237 344.303  0.00  0.00    +0.000 A 
ATOM     55  C   UNL     1      67.596 217.115 339.215  0.00  0.00    +0.000 C 
ATOM     56  C   UNL     1      59.978 216.254 339.084  0.00  0.00    +0.000 C 
ATOM     57  C   UNL     1      59.392 218.222 334.871  0.00  0.00    +0.000 C 
ATOM     58  C   UNL     1      61.313 212.512 342.418  0.00  0.00    +0.000 C 
ATOM     59  C   UNL     1      69.866 219.662 333.779  0.00  0.00    +0.000 C 
ATOM     60  C   UNL     1      59.801 216.837 337.695  0.00  0.00    +0.000 C 
ATOM     61  C   UNL     1      68.123 216.736 341.181  0.00  0.00    +0.000 C 
ATOM     62  C   UNL     1      66.928 220.356 337.891  0.00  0.00    +0.000 C 
ATOM     63  C   UNL     1      59.029 217.220 339.038  0.00  0.00    +0.000 C 
ATOM     64  H   UNL     1      66.664 217.927 335.205  0.00  0.00    +0.000 HD
ATOM     65  H   UNL     1      64.155 215.017 340.151  0.00  0.00    +0.000 HD
ATOM     66  H   UNL     1      60.772 215.616 336.438  0.00  0.00    +0.000 HD
ATOM     67  H   UNL     1      61.409 214.926 339.515  0.00  0.00    +0.000 HD
ATOM     68  C   UNL     1      67.703 218.652 331.655  0.00  0.00    +0.000 C 
ATOM     69  C   UNL     1      69.044 219.108 331.512  0.00  0.00    +0.000 C 
ATOM     70  C   UNL     1      69.810 218.710 332.709  0.00  0.00    +0.000 C 
ATOM     71  C   UNL     1      63.789 215.254 329.378  0.00  0.00    +0.000 C 
ATOM     72  C   UNL     1      65.041 214.841 329.193  0.00  0.00    +0.000 C 
ATOM     73  C   UNL     1      62.561 214.616 329.576  0.00  0.00    +0.000 C 
ATOM     74  C   UNL     1      58.187 215.124 332.242  0.00  0.00    +0.000 C 
ATOM     75  C   UNL     1      56.920 215.483 332.682  0.00  0.00    +0.000 C 
ATOM     76  C   UNL     1      55.706 214.551 332.482  0.00  0.00    +0.000 C 
ATOM     77  C   UNL     1      56.934 216.013 333.958  0.00  0.00    +0.000 C 
ATOM     78  C   UNL     1      69.564 214.600 341.106  0.00  0.00    +0.000 C 
ATOM     79  C   UNL     1      70.336 213.711 341.725  0.00  0.00    +0.000 C 
ATOM     80  C   UNL     1      69.222 215.936 341.325  0.00  0.00    +0.000 C 
ATOM     81  C   UNL     1      58.637 212.656 342.600  0.00  0.00    +0.000 C 
ATOM     82  C   UNL     1      57.691 211.789 343.363  0.00  0.00    +0.000 C 
ATOM     83  C   UNL     1      58.185 213.729 341.794  0.00  0.00    +0.000 C 
ENDROOT
BRANCH  69  84
ATOM     84  C   UNL     1      69.491 220.111 330.619  0.00  0.00    +0.000 C 
ATOM     85  C   UNL     1      69.878 220.964 329.867  0.00  0.00    +0.000 C 
BRANCH  85  86
ATOM     86  C   UNL     1      70.373 222.054 328.911  0.00  0.00    +0.000 C 
ATOM     87  C   UNL     1      70.808 222.999 328.080  0.00  0.00    +0.000 C 
ENDBRANCH  85  86
ENDBRANCH  69  84
BRANCH  13  88
ATOM     88  C   UNL     1      64.960 217.001 333.335  0.00  0.00    +0.000 C 
BRANCH  88  89
ATOM     89  O   UNL     1      64.344 216.026 333.991  0.00  0.00    +0.000 OA
ATOM     90  H   UNL     1      64.948 215.630 334.643  0.00  0.00    +0.000 HD
ENDBRANCH  88  89
ENDBRANCH  13  88
TORSDOF 4
ENDMDL
MODEL 7
REMARK VINA RESULT:      -7.8     31.939     35.902
REMARK  Name = Cyclosporin_A.pdbqt.pdb
REMARK  4 active torsions:
REMARK  status: ('A' for Active; 'I' for Inactive)
REMARK    1  A    between atoms: N_13  and  C_36
REMARK    2  A    between atoms: C_36  and  O_70
REMARK    3  A    between atoms: C_72  and  C_73
REMARK    4  A    between atoms: C_75  and  C_76
REMARK                            x       y       z     vdW  Elec       q    Type
REMARK                         _______ _______ _______ _____ _____    ______ ____
ROOT
ATOM      1  O   UNL     1      51.371 249.299 324.246  0.00  0.00    +0.000 OA
ATOM      2  O   UNL     1      48.204 245.786 326.230  0.00  0.00    +0.000 OA
ATOM      3  O   UNL     1      51.162 243.371 329.117  0.00  0.00    +0.000 OA
ATOM      4  O   UNL     1      56.060 248.095 323.490  0.00  0.00    +0.000 OA
ATOM      5  O   UNL     1      48.241 247.399 330.102  0.00  0.00    +0.000 OA
ATOM      6  O   UNL     1      57.012 251.563 335.832  0.00  0.00    +0.000 OA
ATOM      7  O   UNL     1      54.923 253.133 325.591  0.00  0.00    +0.000 OA
ATOM      8  O   UNL     1      59.549 250.571 331.727  0.00  0.00    +0.000 OA
ATOM      9  O   UNL     1      52.768 249.336 336.551  0.00  0.00    +0.000 OA
ATOM     10  O   UNL     1      58.388 252.467 328.274  0.00  0.00    +0.000 OA
ATOM     11  O   UNL     1      50.090 249.807 333.203  0.00  0.00    +0.000 OA
ATOM     12  N   UNL     1      49.916 246.612 325.864  0.00  0.00    +0.000 NA
ATOM     13  N   UNL     1      52.783 247.617 325.230  0.00  0.00    +0.000 NA
ATOM     14  N   UNL     1      49.723 244.283 328.099  0.00  0.00    +0.000 NA
ATOM     15  N   UNL     1      49.886 245.605 330.986  0.00  0.00    +0.000 NA
ATOM     16  N   UNL     1      55.319 249.360 325.439  0.00  0.00    +0.000 NA
ATOM     17  N   UNL     1      56.386 249.361 335.279  0.00  0.00    +0.000 N 
ATOM     18  N   UNL     1      57.350 250.326 332.492  0.00  0.00    +0.000 N 
ATOM     19  N   UNL     1      57.696 251.587 329.898  0.00  0.00    +0.000 NA
ATOM     20  N   UNL     1      54.939 251.701 327.359  0.00  0.00    +0.000 NA
ATOM     21  N   UNL     1      51.266 248.115 331.817  0.00  0.00    +0.000 NA
ATOM     22  N   UNL     1      53.461 249.435 334.239  0.00  0.00    +0.000 NA
ATOM     23  C   UNL     1      50.238 247.891 325.516  0.00  0.00    +0.000 C 
ATOM     24  C   UNL     1      50.360 245.175 327.336  0.00  0.00    +0.000 C 
ATOM     25  C   UNL     1      53.811 247.707 324.312  0.00  0.00    +0.000 C 
ATOM     26  C   UNL     1      49.333 248.780 324.962  0.00  0.00    +0.000 C 
ATOM     27  C   UNL     1      51.352 244.242 326.756  0.00  0.00    +0.000 C 
ATOM     28  C   UNL     1      51.512 248.179 325.073  0.00  0.00    +0.000 C 
ATOM     29  C   UNL     1      49.308 245.893 326.876  0.00  0.00    +0.000 C 
ATOM     30  C   UNL     1      49.394 244.788 330.096  0.00  0.00    +0.000 C 
ATOM     31  C   UNL     1      50.392 244.409 329.248  0.00  0.00    +0.000 C 
ATOM     32  C   UNL     1      55.181 248.217 324.623  0.00  0.00    +0.000 C 
ATOM     33  C   UNL     1      48.205 247.919 324.795  0.00  0.00    +0.000 C 
ATOM     34  C   UNL     1      50.020 249.509 324.049  0.00  0.00    +0.000 C 
ATOM     35  C   UNL     1      48.605 246.767 325.455  0.00  0.00    +0.000 C 
ATOM     36  C   UNL     1      50.576 243.174 327.846  0.00  0.00    +0.000 C 
ATOM     37  C   UNL     1      55.332 250.700 324.976  0.00  0.00    +0.000 C 
ATOM     38  C   UNL     1      57.389 251.026 333.670  0.00  0.00    +0.000 A 
ATOM     39  C   UNL     1      49.450 246.723 330.415  0.00  0.00    +0.000 C 
ATOM     40  C   UNL     1      55.128 249.307 335.932  0.00  0.00    +0.000 C 
ATOM     41  C   UNL     1      58.297 250.403 330.168  0.00  0.00    +0.000 C 
ATOM     42  C   UNL     1      49.018 244.970 332.011  0.00  0.00    +0.000 C 
ATOM     43  C   UNL     1      57.870 252.346 333.926  0.00  0.00    +0.000 A 
ATOM     44  C   UNL     1      55.698 248.920 337.608  0.00  0.00    +0.000 C 
ATOM     45  C   UNL     1      50.242 247.793 331.088  0.00  0.00    +0.000 C 
ATOM     46  C   UNL     1      59.752 250.752 330.325  0.00  0.00    +0.000 C 
ATOM     47  C   UNL     1      55.505 250.812 323.564  0.00  0.00    +0.000 C 
ATOM     48  C   UNL     1      56.889 250.573 334.887  0.00  0.00    +0.000 A 
ATOM     49  C   UNL     1      55.103 251.724 325.836  0.00  0.00    +0.000 C 
ATOM     50  C   UNL     1      58.267 250.400 331.553  0.00  0.00    +0.000 C 
ATOM     51  C   UNL     1      53.803 249.408 335.577  0.00  0.00    +0.000 C 
ATOM     52  C   UNL     1      56.234 251.467 328.003  0.00  0.00    +0.000 C 
ATOM     53  C   UNL     1      58.447 253.350 332.963  0.00  0.00    +0.000 C 
ATOM     54  C   UNL     1      57.616 252.631 335.243  0.00  0.00    +0.000 A 
ATOM     55  C   UNL     1      57.543 251.402 328.549  0.00  0.00    +0.000 C 
ATOM     56  C   UNL     1      52.257 249.520 333.774  0.00  0.00    +0.000 C 
ATOM     57  C   UNL     1      49.012 248.211 330.657  0.00  0.00    +0.000 C 
ATOM     58  C   UNL     1      56.595 249.044 336.578  0.00  0.00    +0.000 C 
ATOM     59  C   UNL     1      55.605 250.175 322.554  0.00  0.00    +0.000 C 
ATOM     60  C   UNL     1      51.233 249.042 332.763  0.00  0.00    +0.000 C 
ATOM     61  C   UNL     1      58.969 252.456 329.616  0.00  0.00    +0.000 C 
ATOM     62  C   UNL     1      54.817 252.890 326.800  0.00  0.00    +0.000 C 
ATOM     63  C   UNL     1      51.035 250.074 333.964  0.00  0.00    +0.000 C 
ATOM     64  H   UNL     1      54.720 249.301 326.263  0.00  0.00    +0.000 HD
ATOM     65  H   UNL     1      56.457 249.904 332.250  0.00  0.00    +0.000 HD
ATOM     66  H   UNL     1      52.046 247.463 331.835  0.00  0.00    +0.000 HD
ATOM     67  H   UNL     1      54.187 249.013 333.667  0.00  0.00    +0.000 HD
ATOM     68  C   UNL     1      53.606 247.727 323.024  0.00  0.00    +0.000 C 
ATOM     69  C   UNL     1      54.308 248.180 321.872  0.00  0.00    +0.000 C 
ATOM     70  C   UNL     1      55.595 248.764 322.302  0.00  0.00    +0.000 C 
ATOM     71  C   UNL     1      51.463 243.119 325.521  0.00  0.00    +0.000 C 
ATOM     72  C   UNL     1      52.529 242.878 324.759  0.00  0.00    +0.000 C 
ATOM     73  C   UNL     1      50.961 242.581 326.709  0.00  0.00    +0.000 C 
ATOM     74  C   UNL     1      48.582 244.013 331.044  0.00  0.00    +0.000 C 
ATOM     75  C   UNL     1      47.642 244.373 332.000  0.00  0.00    +0.000 C 
ATOM     76  C   UNL     1      47.131 243.361 333.047  0.00  0.00    +0.000 C 
ATOM     77  C   UNL     1      47.925 245.593 332.585  0.00  0.00    +0.000 C 
ATOM     78  C   UNL     1      61.106 251.019 329.514  0.00  0.00    +0.000 C 
ATOM     79  C   UNL     1      62.401 250.863 329.773  0.00  0.00    +0.000 C 
ATOM     80  C   UNL     1      60.259 252.112 329.323  0.00  0.00    +0.000 C 
ATOM     81  C   UNL     1      54.607 248.866 338.374  0.00  0.00    +0.000 C 
ATOM     82  C   UNL     1      54.673 248.559 339.834  0.00  0.00    +0.000 C 
ATOM     83  C   UNL     1      53.375 249.088 337.711  0.00  0.00    +0.000 C 
ENDROOT
BRANCH  69  84
ATOM     84  C   UNL     1      53.746 248.430 320.598  0.00  0.00    +0.000 C 
ATOM     85  C   UNL     1      53.264 248.648 319.520  0.00  0.00    +0.000 C 
BRANCH  85  86
ATOM     86  C   UNL     1      52.646 248.927 318.146  0.00  0.00    +0.000 C 
ATOM     87  C   UNL     1      52.111 249.174 316.951  0.00  0.00    +0.000 C 
ENDBRANCH  85  86
ENDBRANCH  69  84
BRANCH  13  88
ATOM     88  C   UNL     1      53.128 247.147 326.561  0.00  0.00    +0.000 C 
BRANCH  88  89
ATOM     89  O   UNL     1      53.429 246.736 327.786  0.00  0.00    +0.000 OA
ATOM     90  H   UNL     1      52.749 246.115 328.105  0.00  0.00    +0.000 HD
ENDBRANCH  88  89
ENDBRANCH  13  88
TORSDOF 4
ENDMDL
MODEL 8
REMARK VINA RESULT:      -7.6     17.041     21.996
REMARK  Name = Cyclosporin_A.pdbqt.pdb
REMARK  4 active torsions:
REMARK  status: ('A' for Active; 'I' for Inactive)
REMARK    1  A    between atoms: N_13  and  C_36
REMARK    2  A    between atoms: C_36  and  O_70
REMARK    3  A    between atoms: C_72  and  C_73
REMARK    4  A    between atoms: C_75  and  C_76
REMARK                            x       y       z     vdW  Elec       q    Type
REMARK                         _______ _______ _______ _____ _____    ______ ____
ROOT
ATOM      1  O   UNL     1      56.330 224.441 357.059  0.00  0.00    +0.000 OA
ATOM      2  O   UNL     1      54.874 219.565 357.708  0.00  0.00    +0.000 OA
ATOM      3  O   UNL     1      57.849 217.288 354.728  0.00  0.00    +0.000 OA
ATOM      4  O   UNL     1      57.911 225.869 352.646  0.00  0.00    +0.000 OA
ATOM      5  O   UNL     1      58.398 218.382 359.651  0.00  0.00    +0.000 OA
ATOM      6  O   UNL     1      69.017 221.249 357.179  0.00  0.00    +0.000 OA
ATOM      7  O   UNL     1      60.638 227.690 357.156  0.00  0.00    +0.000 OA
ATOM      8  O   UNL     1      66.946 224.004 353.659  0.00  0.00    +0.000 OA
ATOM      9  O   UNL     1      66.458 217.617 359.112  0.00  0.00    +0.000 OA
ATOM     10  O   UNL     1      64.346 226.955 354.842  0.00  0.00    +0.000 OA
ATOM     11  O   UNL     1      62.608 218.919 360.555  0.00  0.00    +0.000 OA
ATOM     12  N   UNL     1      55.824 221.027 356.863  0.00  0.00    +0.000 NA
ATOM     13  N   UNL     1      57.266 223.221 355.209  0.00  0.00    +0.000 NA
ATOM     14  N   UNL     1      56.604 217.980 356.110  0.00  0.00    +0.000 NA
ATOM     15  N   UNL     1      59.348 217.233 357.533  0.00  0.00    +0.000 NA
ATOM     16  N   UNL     1      59.425 225.296 354.471  0.00  0.00    +0.000 NA
ATOM     17  N   UNL     1      67.487 219.799 356.131  0.00  0.00    +0.000 N 
ATOM     18  N   UNL     1      66.235 222.521 355.325  0.00  0.00    +0.000 N 
ATOM     19  N   UNL     1      64.893 225.096 355.209  0.00  0.00    +0.000 NA
ATOM     20  N   UNL     1      61.491 225.633 356.691  0.00  0.00    +0.000 NA
ATOM     21  N   UNL     1      61.611 219.024 358.284  0.00  0.00    +0.000 NA
ATOM     22  N   UNL     1      65.116 219.342 358.085  0.00  0.00    +0.000 NA
ATOM     23  C   UNL     1      56.182 222.255 357.337  0.00  0.00    +0.000 C 
ATOM     24  C   UNL     1      56.685 219.309 356.005  0.00  0.00    +0.000 C 
ATOM     25  C   UNL     1      57.165 224.233 354.275  0.00  0.00    +0.000 C 
ATOM     26  C   UNL     1      55.574 222.859 358.423  0.00  0.00    +0.000 C 
ATOM     27  C   UNL     1      56.464 219.389 354.543  0.00  0.00    +0.000 C 
ATOM     28  C   UNL     1      56.645 223.216 356.462  0.00  0.00    +0.000 C 
ATOM     29  C   UNL     1      56.008 219.680 357.117  0.00  0.00    +0.000 C 
ATOM     30  C   UNL     1      58.117 217.006 357.166  0.00  0.00    +0.000 C 
ATOM     31  C   UNL     1      57.889 217.637 355.979  0.00  0.00    +0.000 C 
ATOM     32  C   UNL     1      58.331 224.933 353.656  0.00  0.00    +0.000 C 
ATOM     33  C   UNL     1      54.528 221.920 358.680  0.00  0.00    +0.000 C 
ATOM     34  C   UNL     1      55.512 224.183 358.142  0.00  0.00    +0.000 C 
ATOM     35  C   UNL     1      54.848 220.872 357.830  0.00  0.00    +0.000 C 
ATOM     36  C   UNL     1      56.494 217.687 354.723  0.00  0.00    +0.000 C 
ATOM     37  C   UNL     1      59.547 226.516 355.182  0.00  0.00    +0.000 C 
ATOM     38  C   UNL     1      67.395 222.318 356.027  0.00  0.00    +0.000 A 
ATOM     39  C   UNL     1      59.064 218.190 358.411  0.00  0.00    +0.000 C 
ATOM     40  C   UNL     1      67.273 218.882 357.191  0.00  0.00    +0.000 C 
ATOM     41  C   UNL     1      65.016 224.338 354.093  0.00  0.00    +0.000 C 
ATOM     42  C   UNL     1      59.428 215.837 358.035  0.00  0.00    +0.000 C 
ATOM     43  C   UNL     1      68.314 223.274 356.557  0.00  0.00    +0.000 A 
ATOM     44  C   UNL     1      68.724 217.825 356.945  0.00  0.00    +0.000 C 
ATOM     45  C   UNL     1      60.383 218.841 358.660  0.00  0.00    +0.000 C 
ATOM     46  C   UNL     1      66.055 225.052 353.272  0.00  0.00    +0.000 C 
ATOM     47  C   UNL     1      58.609 227.510 354.772  0.00  0.00    +0.000 C 
ATOM     48  C   UNL     1      67.887 221.077 356.417  0.00  0.00    +0.000 A 
ATOM     49  C   UNL     1      60.432 226.628 356.204  0.00  0.00    +0.000 C 
ATOM     50  C   UNL     1      66.051 223.492 354.458  0.00  0.00    +0.000 C 
ATOM     51  C   UNL     1      66.312 218.652 358.148  0.00  0.00    +0.000 C 
ATOM     52  C   UNL     1      62.610 225.584 355.746  0.00  0.00    +0.000 C 
ATOM     53  C   UNL     1      68.249 224.778 356.517  0.00  0.00    +0.000 C 
ATOM     54  C   UNL     1      69.274 222.584 357.251  0.00  0.00    +0.000 A 
ATOM     55  C   UNL     1      63.720 225.717 354.872  0.00  0.00    +0.000 C 
ATOM     56  C   UNL     1      64.132 219.215 358.914  0.00  0.00    +0.000 C 
ATOM     57  C   UNL     1      59.526 218.915 359.724  0.00  0.00    +0.000 C 
ATOM     58  C   UNL     1      68.477 218.878 356.102  0.00  0.00    +0.000 C 
ATOM     59  C   UNL     1      57.674 227.709 354.049  0.00  0.00    +0.000 C 
ATOM     60  C   UNL     1      62.635 219.091 359.122  0.00  0.00    +0.000 C 
ATOM     61  C   UNL     1      65.681 226.366 354.739  0.00  0.00    +0.000 C 
ATOM     62  C   UNL     1      61.414 226.753 357.384  0.00  0.00    +0.000 C 
ATOM     63  C   UNL     1      63.798 219.015 360.212  0.00  0.00    +0.000 C 
ATOM     64  H   UNL     1      59.701 224.528 355.083  0.00  0.00    +0.000 HD
ATOM     65  H   UNL     1      65.413 222.026 355.663  0.00  0.00    +0.000 HD
ATOM     66  H   UNL     1      61.826 218.860 357.304  0.00  0.00    +0.000 HD
ATOM     67  H   UNL     1      64.933 219.672 357.141  0.00  0.00    +0.000 HD
ATOM     68  C   UNL     1      56.080 224.941 354.119  0.00  0.00    +0.000 C 
ATOM     69  C   UNL     1      55.749 226.222 353.595  0.00  0.00    +0.000 C 
ATOM     70  C   UNL     1      56.985 226.870 353.113  0.00  0.00    +0.000 C 
ATOM     71  C   UNL     1      55.195 219.389 353.453  0.00  0.00    +0.000 C 
ATOM     72  C   UNL     1      55.117 220.091 352.323  0.00  0.00    +0.000 C 
ATOM     73  C   UNL     1      55.634 218.104 353.785  0.00  0.00    +0.000 C 
ATOM     74  C   UNL     1      58.121 215.580 357.519  0.00  0.00    +0.000 C 
ATOM     75  C   UNL     1      58.456 214.894 358.679  0.00  0.00    +0.000 C 
ATOM     76  C   UNL     1      58.618 213.359 358.686  0.00  0.00    +0.000 C 
ATOM     77  C   UNL     1      59.481 215.505 359.376  0.00  0.00    +0.000 C 
ATOM     78  C   UNL     1      66.275 226.250 352.234  0.00  0.00    +0.000 C 
ATOM     79  C   UNL     1      67.130 226.486 351.242  0.00  0.00    +0.000 C 
ATOM     80  C   UNL     1      66.047 226.801 353.496  0.00  0.00    +0.000 C 
ATOM     81  C   UNL     1      68.688 216.904 357.911  0.00  0.00    +0.000 C 
ATOM     82  C   UNL     1      69.727 215.838 358.034  0.00  0.00    +0.000 C 
ATOM     83  C   UNL     1      67.586 216.981 358.797  0.00  0.00    +0.000 C 
ENDROOT
BRANCH  69  84
ATOM     84  C   UNL     1      54.560 226.944 353.849  0.00  0.00    +0.000 C 
ATOM     85  C   UNL     1      53.553 227.561 354.073  0.00  0.00    +0.000 C 
BRANCH  85  86
ATOM     86  C   UNL     1      52.271 228.348 354.362  0.00  0.00    +0.000 C 
ATOM     87  C   UNL     1      51.155 229.029 354.617  0.00  0.00    +0.000 C 
ENDBRANCH  85  86
ENDBRANCH  69  84
BRANCH  13  88
ATOM     88  C   UNL     1      58.304 222.226 354.992  0.00  0.00    +0.000 C 
BRANCH  88  89
ATOM     89  O   UNL     1      59.233 221.303 354.783  0.00  0.00    +0.000 OA
ATOM     90  H   UNL     1      59.964 221.679 354.260  0.00  0.00    +0.000 HD
ENDBRANCH  88  89
ENDBRANCH  13  88
TORSDOF 4
ENDMDL
MODEL 9
REMARK VINA RESULT:      -7.6      5.175     14.056
REMARK  Name = Cyclosporin_A.pdbqt.pdb
REMARK  4 active torsions:
REMARK  status: ('A' for Active; 'I' for Inactive)
REMARK    1  A    between atoms: N_13  and  C_36
REMARK    2  A    between atoms: C_36  and  O_70
REMARK    3  A    between atoms: C_72  and  C_73
REMARK    4  A    between atoms: C_75  and  C_76
REMARK                            x       y       z     vdW  Elec       q    Type
REMARK                         _______ _______ _______ _____ _____    ______ ____
ROOT
ATOM      1  O   UNL     1      61.357 213.848 335.328  0.00  0.00    +0.000 OA
ATOM      2  O   UNL     1      56.341 214.738 335.922  0.00  0.00    +0.000 OA
ATOM      3  O   UNL     1      56.053 219.362 334.714  0.00  0.00    +0.000 OA
ATOM      4  O   UNL     1      64.529 217.455 336.296  0.00  0.00    +0.000 OA
ATOM      5  O   UNL     1      55.563 215.219 331.828  0.00  0.00    +0.000 OA
ATOM      6  O   UNL     1      61.797 220.612 324.137  0.00  0.00    +0.000 OA
ATOM      7  O   UNL     1      65.412 214.286 331.794  0.00  0.00    +0.000 OA
ATOM      8  O   UNL     1      64.906 221.362 327.885  0.00  0.00    +0.000 OA
ATOM      9  O   UNL     1      57.189 219.477 325.116  0.00  0.00    +0.000 OA
ATOM     10  O   UNL     1      66.496 218.052 329.723  0.00  0.00    +0.000 OA
ATOM     11  O   UNL     1      56.869 216.106 327.786  0.00  0.00    +0.000 OA
ATOM     12  N   UNL     1      58.195 215.213 335.631  0.00  0.00    +0.000 NA
ATOM     13  N   UNL     1      61.112 216.241 335.375  0.00  0.00    +0.000 NA
ATOM     14  N   UNL     1      55.893 217.429 335.134  0.00  0.00    +0.000 NA
ATOM     15  N   UNL     1      55.475 217.801 332.004  0.00  0.00    +0.000 NA
ATOM     16  N   UNL     1      63.809 216.901 334.032  0.00  0.00    +0.000 NA
ATOM     17  N   UNL     1      60.424 221.388 325.885  0.00  0.00    +0.000 N 
ATOM     18  N   UNL     1      62.824 220.345 327.554  0.00  0.00    +0.000 N 
ATOM     19  N   UNL     1      64.837 218.776 328.941  0.00  0.00    +0.000 NA
ATOM     20  N   UNL     1      63.929 215.889 331.156  0.00  0.00    +0.000 NA
ATOM     21  N   UNL     1      57.450 217.438 329.798  0.00  0.00    +0.000 NA
ATOM     22  N   UNL     1      58.735 218.990 326.906  0.00  0.00    +0.000 NA
ATOM     23  C   UNL     1      59.246 214.477 335.167  0.00  0.00    +0.000 C 
ATOM     24  C   UNL     1      57.153 216.991 335.207  0.00  0.00    +0.000 C 
ATOM     25  C   UNL     1      62.311 216.517 336.003  0.00  0.00    +0.000 C 
ATOM     26  C   UNL     1      59.273 213.094 335.181  0.00  0.00    +0.000 C 
ATOM     27  C   UNL     1      57.650 218.027 336.141  0.00  0.00    +0.000 C 
ATOM     28  C   UNL     1      60.529 214.974 335.276  0.00  0.00    +0.000 C 
ATOM     29  C   UNL     1      56.941 215.655 335.252  0.00  0.00    +0.000 C 
ATOM     30  C   UNL     1      55.064 217.654 333.233  0.00  0.00    +0.000 C 
ATOM     31  C   UNL     1      55.967 218.236 334.072  0.00  0.00    +0.000 C 
ATOM     32  C   UNL     1      63.460 217.225 335.360  0.00  0.00    +0.000 C 
ATOM     33  C   UNL     1      58.060 212.827 335.888  0.00  0.00    +0.000 C 
ATOM     34  C   UNL     1      60.548 212.737 335.467  0.00  0.00    +0.000 C 
ATOM     35  C   UNL     1      57.477 214.083 335.971  0.00  0.00    +0.000 C 
ATOM     36  C   UNL     1      56.056 218.609 335.909  0.00  0.00    +0.000 C 
ATOM     37  C   UNL     1      64.712 215.876 333.650  0.00  0.00    +0.000 C 
ATOM     38  C   UNL     1      62.716 220.376 326.188  0.00  0.00    +0.000 A 
ATOM     39  C   UNL     1      55.976 216.577 331.869  0.00  0.00    +0.000 C 
ATOM     40  C   UNL     1      59.186 220.833 325.471  0.00  0.00    +0.000 C 
ATOM     41  C   UNL     1      64.552 220.036 329.349  0.00  0.00    +0.000 C 
ATOM     42  C   UNL     1      54.066 218.021 331.586  0.00  0.00    +0.000 C 
ATOM     43  C   UNL     1      63.650 219.953 325.194  0.00  0.00    +0.000 A 
ATOM     44  C   UNL     1      58.697 222.103 324.275  0.00  0.00    +0.000 C 
ATOM     45  C   UNL     1      56.833 216.681 330.653  0.00  0.00    +0.000 C 
ATOM     46  C   UNL     1      65.746 220.844 328.917  0.00  0.00    +0.000 C 
ATOM     47  C   UNL     1      65.498 215.378 334.732  0.00  0.00    +0.000 C 
ATOM     48  C   UNL     1      61.593 220.799 325.483  0.00  0.00    +0.000 A 
ATOM     49  C   UNL     1      64.710 215.400 332.380  0.00  0.00    +0.000 C 
ATOM     50  C   UNL     1      63.940 220.550 328.216  0.00  0.00    +0.000 C 
ATOM     51  C   UNL     1      58.407 219.749 325.799  0.00  0.00    +0.000 C 
ATOM     52  C   UNL     1      64.495 217.150 330.667  0.00  0.00    +0.000 C 
ATOM     53  C   UNL     1      65.008 219.327 325.372  0.00  0.00    +0.000 C 
ATOM     54  C   UNL     1      63.051 220.107 323.970  0.00  0.00    +0.000 A 
ATOM     55  C   UNL     1      65.199 218.274 330.164  0.00  0.00    +0.000 C 
ATOM     56  C   UNL     1      58.084 217.953 327.325  0.00  0.00    +0.000 C 
ATOM     57  C   UNL     1      56.321 215.428 330.857  0.00  0.00    +0.000 C 
ATOM     58  C   UNL     1      59.863 222.227 324.985  0.00  0.00    +0.000 C 
ATOM     59  C   UNL     1      65.669 215.464 335.915  0.00  0.00    +0.000 C 
ATOM     60  C   UNL     1      57.505 217.188 328.499  0.00  0.00    +0.000 C 
ATOM     61  C   UNL     1      66.352 218.962 328.588  0.00  0.00    +0.000 C 
ATOM     62  C   UNL     1      64.694 214.834 330.948  0.00  0.00    +0.000 C 
ATOM     63  C   UNL     1      57.385 216.857 326.942  0.00  0.00    +0.000 C 
ATOM     64  H   UNL     1      62.985 216.854 333.433  0.00  0.00    +0.000 HD
ATOM     65  H   UNL     1      62.045 219.926 328.056  0.00  0.00    +0.000 HD
ATOM     66  H   UNL     1      57.682 218.382 330.098  0.00  0.00    +0.000 HD
ATOM     67  H   UNL     1      59.297 219.524 327.562  0.00  0.00    +0.000 HD
ATOM     68  C   UNL     1      62.716 215.873 337.063  0.00  0.00    +0.000 C 
ATOM     69  C   UNL     1      63.961 215.611 337.699  0.00  0.00    +0.000 C 
ATOM     70  C   UNL     1      65.036 216.261 336.923  0.00  0.00    +0.000 C 
ATOM     71  C   UNL     1      57.672 218.344 337.784  0.00  0.00    +0.000 C 
ATOM     72  C   UNL     1      58.661 218.916 338.469  0.00  0.00    +0.000 C 
ATOM     73  C   UNL     1      56.516 218.808 337.151  0.00  0.00    +0.000 C 
ATOM     74  C   UNL     1      53.656 217.970 332.954  0.00  0.00    +0.000 C 
ATOM     75  C   UNL     1      52.741 217.479 332.033  0.00  0.00    +0.000 C 
ATOM     76  C   UNL     1      51.392 218.187 331.785  0.00  0.00    +0.000 C 
ATOM     77  C   UNL     1      53.336 217.115 330.840  0.00  0.00    +0.000 C 
ATOM     78  C   UNL     1      67.232 221.266 329.334  0.00  0.00    +0.000 C 
ATOM     79  C   UNL     1      68.002 222.329 329.117  0.00  0.00    +0.000 C 
ATOM     80  C   UNL     1      67.254 219.930 328.930  0.00  0.00    +0.000 C 
ATOM     81  C   UNL     1      57.533 221.704 323.755  0.00  0.00    +0.000 C 
ATOM     82  C   UNL     1      56.803 222.504 322.728  0.00  0.00    +0.000 C 
ATOM     83  C   UNL     1      57.017 220.486 324.261  0.00  0.00    +0.000 C 
ENDROOT
BRANCH  69  84
ATOM     84  C   UNL     1      64.215 214.588 338.643  0.00  0.00    +0.000 C 
ATOM     85  C   UNL     1      64.437 213.724 339.447  0.00  0.00    +0.000 C 
BRANCH  85  86
ATOM     86  C   UNL     1      64.724 212.623 340.474  0.00  0.00    +0.000 C 
ATOM     87  C   UNL     1      64.976 211.670 341.369  0.00  0.00    +0.000 C 
ENDBRANCH  85  86
ENDBRANCH  69  84
BRANCH  13  88
ATOM     88  C   UNL     1      60.559 217.282 334.525  0.00  0.00    +0.000 C 
BRANCH  88  89
ATOM     89  O   UNL     1      60.062 218.220 333.729  0.00  0.00    +0.000 OA
ATOM     90  H   UNL     1      60.208 219.100 334.120  0.00  0.00    +0.000 HD
ENDBRANCH  88  89
ENDBRANCH  13  88
TORSDOF 4
ENDMDL
