MODEL 1
REMARK VINA RESULT:      -5.8      0.000      0.000
REMARK  Name = Danazol.pdbqt.pdb
REMARK  2 active torsions:
REMARK  status: ('A' for Active; 'I' for Inactive)
REMARK    1  A    between atoms: C_9  and  O_23
REMARK    2  A    between atoms: C_9  and  C_25
REMARK                            x       y       z     vdW  Elec       q    Type
REMARK                         _______ _______ _______ _____ _____    ______ ____
ROOT
ATOM      1  O   UNL     1      63.940 240.989 338.130  0.00  0.00    +0.000 OA
ATOM      2  N   UNL     1      64.272 239.994 337.185  0.00  0.00    +0.000 NA
ATOM      3  C   UNL     1      65.900 238.538 345.065  0.00  0.00    +0.000 C 
ATOM      4  C   UNL     1      66.808 237.201 345.151  0.00  0.00    +0.000 C 
ATOM      5  C   UNL     1      65.906 239.434 343.892  0.00  0.00    +0.000 C 
ATOM      6  C   UNL     1      66.604 239.181 342.583  0.00  0.00    +0.000 C 
ATOM      7  C   UNL     1      66.691 240.215 341.436  0.00  0.00    +0.000 C 
ATOM      8  C   UNL     1      67.328 237.008 343.789  0.00  0.00    +0.000 C 
ATOM      9  C   UNL     1      65.769 236.063 345.690  0.00  0.00    +0.000 C 
ATOM     10  C   UNL     1      67.260 237.920 342.590  0.00  0.00    +0.000 C 
ATOM     11  C   UNL     1      64.733 238.362 345.860  0.00  0.00    +0.000 C 
ATOM     12  C   UNL     1      65.117 240.606 343.862  0.00  0.00    +0.000 C 
ATOM     13  C   UNL     1      64.690 236.910 346.238  0.00  0.00    +0.000 C 
ATOM     14  C   UNL     1      65.531 241.401 341.474  0.00  0.00    +0.000 C 
ATOM     15  C   UNL     1      67.973 237.539 346.151  0.00  0.00    +0.000 C 
ATOM     16  C   UNL     1      64.905 241.571 342.734  0.00  0.00    +0.000 C 
ATOM     17  C   UNL     1      66.464 239.534 340.111  0.00  0.00    +0.000 C 
ATOM     18  C   UNL     1      68.074 240.925 341.485  0.00  0.00    +0.000 C 
ATOM     19  C   UNL     1      64.797 241.542 340.392  0.00  0.00    +0.000 C 
ATOM     20  C   UNL     1      65.597 239.755 339.002  0.00  0.00    +0.000 A 
ATOM     21  C   UNL     1      64.749 240.813 339.182  0.00  0.00    +0.000 A 
ATOM     22  C   UNL     1      65.273 239.275 337.736  0.00  0.00    +0.000 A 
ENDROOT
BRANCH   9  23
ATOM     23  O   UNL     1      66.284 235.222 346.734  0.00  0.00    +0.000 OA
ATOM     24  H   UNL     1      65.524 234.809 347.180  0.00  0.00    +0.000 HD
ENDBRANCH   9  23
BRANCH   9  25
ATOM     25  C   UNL     1      65.274 235.217 344.576  0.00  0.00    +0.000 C 
ATOM     26  C   UNL     1      64.870 234.557 343.665  0.00  0.00    +0.000 C 
ENDBRANCH   9  25
TORSDOF 2
ENDMDL
MODEL 2
REMARK VINA RESULT:      -5.5     16.727     18.864
REMARK  Name = Danazol.pdbqt.pdb
REMARK  2 active torsions:
REMARK  status: ('A' for Active; 'I' for Inactive)
REMARK    1  A    between atoms: C_9  and  O_23
REMARK    2  A    between atoms: C_9  and  C_25
REMARK                            x       y       z     vdW  Elec       q    Type
REMARK                         _______ _______ _______ _____ _____    ______ ____
ROOT
ATOM      1  O   UNL     1      69.112 218.580 337.702  0.00  0.00    +0.000 OA
ATOM      2  N   UNL     1      69.309 218.152 336.372  0.00  0.00    +0.000 NA
ATOM      3  C   UNL     1      73.993 224.222 339.214  0.00  0.00    +0.000 C 
ATOM      4  C   UNL     1      74.806 224.854 337.967  0.00  0.00    +0.000 C 
ATOM      5  C   UNL     1      72.677 223.573 339.063  0.00  0.00    +0.000 C 
ATOM      6  C   UNL     1      71.979 223.268 337.766  0.00  0.00    +0.000 C 
ATOM      7  C   UNL     1      70.539 222.710 337.667  0.00  0.00    +0.000 C 
ATOM      8  C   UNL     1      74.091 224.384 336.771  0.00  0.00    +0.000 C 
ATOM      9  C   UNL     1      76.323 224.285 338.165  0.00  0.00    +0.000 C 
ATOM     10  C   UNL     1      72.772 223.663 336.654  0.00  0.00    +0.000 C 
ATOM     11  C   UNL     1      74.919 223.802 340.211  0.00  0.00    +0.000 C 
ATOM     12  C   UNL     1      71.984 223.052 340.180  0.00  0.00    +0.000 C 
ATOM     13  C   UNL     1      76.280 223.872 339.584  0.00  0.00    +0.000 C 
ATOM     14  C   UNL     1      69.991 221.947 339.035  0.00  0.00    +0.000 C 
ATOM     15  C   UNL     1      74.676 226.414 338.117  0.00  0.00    +0.000 C 
ATOM     16  C   UNL     1      70.705 222.270 340.215  0.00  0.00    +0.000 C 
ATOM     17  C   UNL     1      70.472 221.641 336.609  0.00  0.00    +0.000 C 
ATOM     18  C   UNL     1      69.554 223.875 337.367  0.00  0.00    +0.000 C 
ATOM     19  C   UNL     1      69.559 220.714 338.889  0.00  0.00    +0.000 C 
ATOM     20  C   UNL     1      70.006 220.294 336.566  0.00  0.00    +0.000 A 
ATOM     21  C   UNL     1      69.531 219.849 337.770  0.00  0.00    +0.000 A 
ATOM     22  C   UNL     1      69.841 219.205 335.716  0.00  0.00    +0.000 A 
ENDROOT
BRANCH   9  23
ATOM     23  O   UNL     1      77.362 225.261 337.991  0.00  0.00    +0.000 OA
ATOM     24  H   UNL     1      76.943 226.088 337.697  0.00  0.00    +0.000 HD
ENDBRANCH   9  23
BRANCH   9  25
ATOM     25  C   UNL     1      76.583 223.125 337.277  0.00  0.00    +0.000 C 
ATOM     26  C   UNL     1      76.816 222.202 336.554  0.00  0.00    +0.000 C 
ENDBRANCH   9  25
TORSDOF 2
ENDMDL
MODEL 3
REMARK VINA RESULT:      -5.5     17.355     20.981
REMARK  Name = Danazol.pdbqt.pdb
REMARK  2 active torsions:
REMARK  status: ('A' for Active; 'I' for Inactive)
REMARK    1  A    between atoms: C_9  and  O_23
REMARK    2  A    between atoms: C_9  and  C_25
REMARK                            x       y       z     vdW  Elec       q    Type
REMARK                         _______ _______ _______ _____ _____    ______ ____
ROOT
ATOM      1  O   UNL     1      69.978 214.392 339.753  0.00  0.00    +0.000 OA
ATOM      2  N   UNL     1      69.982 213.876 338.439  0.00  0.00    +0.000 NA
ATOM      3  C   UNL     1      70.515 221.977 339.415  0.00  0.00    +0.000 C 
ATOM      4  C   UNL     1      70.338 222.670 337.964  0.00  0.00    +0.000 C 
ATOM      5  C   UNL     1      69.911 220.676 339.758  0.00  0.00    +0.000 C 
ATOM      6  C   UNL     1      69.197 219.749 338.812  0.00  0.00    +0.000 C 
ATOM      7  C   UNL     1      68.464 218.460 339.250  0.00  0.00    +0.000 C 
ATOM      8  C   UNL     1      69.744 221.626 337.115  0.00  0.00    +0.000 C 
ATOM      9  C   UNL     1      71.852 223.138 337.572  0.00  0.00    +0.000 C 
ATOM     10  C   UNL     1      69.193 220.273 337.490  0.00  0.00    +0.000 C 
ATOM     11  C   UNL     1      71.750 222.398 339.986  0.00  0.00    +0.000 C 
ATOM     12  C   UNL     1      70.068 220.111 341.045  0.00  0.00    +0.000 C 
ATOM     13  C   UNL     1      72.506 223.099 338.896  0.00  0.00    +0.000 C 
ATOM     14  C   UNL     1      68.951 217.843 340.712  0.00  0.00    +0.000 C 
ATOM     15  C   UNL     1      69.329 223.857 338.176  0.00  0.00    +0.000 C 
ATOM     16  C   UNL     1      69.630 218.767 341.544  0.00  0.00    +0.000 C 
ATOM     17  C   UNL     1      68.752 217.346 338.278  0.00  0.00    +0.000 C 
ATOM     18  C   UNL     1      66.939 218.745 339.359  0.00  0.00    +0.000 C 
ATOM     19  C   UNL     1      69.351 216.590 340.719  0.00  0.00    +0.000 C 
ATOM     20  C   UNL     1      69.229 216.008 338.392  0.00  0.00    +0.000 A 
ATOM     21  C   UNL     1      69.523 215.648 339.678  0.00  0.00    +0.000 A 
ATOM     22  C   UNL     1      69.520 214.869 337.648  0.00  0.00    +0.000 A 
ENDROOT
BRANCH   9  23
ATOM     23  O   UNL     1      71.954 224.466 337.036  0.00  0.00    +0.000 OA
ATOM     24  H   UNL     1      71.077 224.714 336.694  0.00  0.00    +0.000 HD
ENDBRANCH   9  23
BRANCH   9  25
ATOM     25  C   UNL     1      72.485 222.179 336.633  0.00  0.00    +0.000 C 
ATOM     26  C   UNL     1      73.014 221.424 335.872  0.00  0.00    +0.000 C 
ENDBRANCH   9  25
TORSDOF 2
ENDMDL
MODEL 4
REMARK VINA RESULT:      -5.3     23.224     25.818
REMARK  Name = Danazol.pdbqt.pdb
REMARK  2 active torsions:
REMARK  status: ('A' for Active; 'I' for Inactive)
REMARK    1  A    between atoms: C_9  and  O_23
REMARK    2  A    between atoms: C_9  and  C_25
REMARK                            x       y       z     vdW  Elec       q    Type
REMARK                         _______ _______ _______ _____ _____    ______ ____
ROOT
ATOM      1  O   UNL     1      62.185 217.485 335.197  0.00  0.00    +0.000 OA
ATOM      2  N   UNL     1      62.868 216.658 334.280  0.00  0.00    +0.000 NA
ATOM      3  C   UNL     1      54.860 217.873 333.166  0.00  0.00    +0.000 C 
ATOM      4  C   UNL     1      54.351 216.848 332.023  0.00  0.00    +0.000 C 
ATOM      5  C   UNL     1      56.008 217.584 334.045  0.00  0.00    +0.000 C 
ATOM      6  C   UNL     1      56.948 216.414 333.925  0.00  0.00    +0.000 C 
ATOM      7  C   UNL     1      58.053 216.083 334.955  0.00  0.00    +0.000 C 
ATOM      8  C   UNL     1      55.409 215.831 331.928  0.00  0.00    +0.000 C 
ATOM      9  C   UNL     1      54.152 217.800 330.711  0.00  0.00    +0.000 C 
ATOM     10  C   UNL     1      56.611 215.601 332.809  0.00  0.00    +0.000 C 
ATOM     11  C   UNL     1      54.539 219.205 332.776  0.00  0.00    +0.000 C 
ATOM     12  C   UNL     1      56.410 218.494 335.050  0.00  0.00    +0.000 C 
ATOM     13  C   UNL     1      54.101 219.135 331.343  0.00  0.00    +0.000 C 
ATOM     14  C   UNL     1      58.529 217.360 335.904  0.00  0.00    +0.000 C 
ATOM     15  C   UNL     1      53.019 216.219 332.573  0.00  0.00    +0.000 C 
ATOM     16  C   UNL     1      57.603 218.430 335.957  0.00  0.00    +0.000 C 
ATOM     17  C   UNL     1      59.317 215.677 334.242  0.00  0.00    +0.000 C 
ATOM     18  C   UNL     1      57.550 214.964 335.911  0.00  0.00    +0.000 C 
ATOM     19  C   UNL     1      59.812 217.647 335.904  0.00  0.00    +0.000 C 
ATOM     20  C   UNL     1      60.680 216.089 334.295  0.00  0.00    +0.000 A 
ATOM     21  C   UNL     1      60.900 217.112 335.177  0.00  0.00    +0.000 A 
ATOM     22  C   UNL     1      61.938 215.828 333.762  0.00  0.00    +0.000 A 
ENDROOT
BRANCH   9  23
ATOM     23  O   UNL     1      52.934 217.577 329.983  0.00  0.00    +0.000 OA
ATOM     24  H   UNL     1      52.524 216.768 330.335  0.00  0.00    +0.000 HD
ENDBRANCH   9  23
BRANCH   9  25
ATOM     25  C   UNL     1      55.306 217.688 329.785  0.00  0.00    +0.000 C 
ATOM     26  C   UNL     1      56.231 217.623 329.032  0.00  0.00    +0.000 C 
ENDBRANCH   9  25
TORSDOF 2
ENDMDL
MODEL 5
REMARK VINA RESULT:      -5.0     17.130     20.645
REMARK  Name = Danazol.pdbqt.pdb
REMARK  2 active torsions:
REMARK  status: ('A' for Active; 'I' for Inactive)
REMARK    1  A    between atoms: C_9  and  O_23
REMARK    2  A    between atoms: C_9  and  C_25
REMARK                            x       y       z     vdW  Elec       q    Type
REMARK                         _______ _______ _______ _____ _____    ______ ____
ROOT
ATOM      1  O   UNL     1      74.251 216.751 344.046  0.00  0.00    +0.000 OA
ATOM      2  N   UNL     1      73.486 215.603 343.748  0.00  0.00    +0.000 NA
ATOM      3  C   UNL     1      71.867 222.498 339.660  0.00  0.00    +0.000 C 
ATOM      4  C   UNL     1      70.498 222.278 338.828  0.00  0.00    +0.000 C 
ATOM      5  C   UNL     1      72.162 221.785 340.918  0.00  0.00    +0.000 C 
ATOM      6  C   UNL     1      71.346 220.674 341.523  0.00  0.00    +0.000 C 
ATOM      7  C   UNL     1      71.624 220.054 342.912  0.00  0.00    +0.000 C 
ATOM      8  C   UNL     1      69.865 221.101 339.444  0.00  0.00    +0.000 C 
ATOM      9  C   UNL     1      71.006 222.095 337.288  0.00  0.00    +0.000 C 
ATOM     10  C   UNL     1      70.231 220.354 340.701  0.00  0.00    +0.000 C 
ATOM     11  C   UNL     1      72.904 222.878 338.761  0.00  0.00    +0.000 C 
ATOM     12  C   UNL     1      73.360 222.020 341.631  0.00  0.00    +0.000 C 
ATOM     13  C   UNL     1      72.368 222.660 337.377  0.00  0.00    +0.000 C 
ATOM     14  C   UNL     1      73.170 220.271 343.478  0.00  0.00    +0.000 C 
ATOM     15  C   UNL     1      69.634 223.569 339.075  0.00  0.00    +0.000 C 
ATOM     16  C   UNL     1      73.883 221.323 342.851  0.00  0.00    +0.000 C 
ATOM     17  C   UNL     1      71.473 218.556 342.848  0.00  0.00    +0.000 C 
ATOM     18  C   UNL     1      70.661 220.681 343.960  0.00  0.00    +0.000 C 
ATOM     19  C   UNL     1      73.832 219.186 343.813  0.00  0.00    +0.000 C 
ATOM     20  C   UNL     1      72.288 217.446 343.215  0.00  0.00    +0.000 A 
ATOM     21  C   UNL     1      73.505 217.813 343.721  0.00  0.00    +0.000 A 
ATOM     22  C   UNL     1      72.311 216.055 343.258  0.00  0.00    +0.000 A 
ENDROOT
BRANCH   9  23
ATOM     23  O   UNL     1      70.254 222.833 336.312  0.00  0.00    +0.000 OA
ATOM     24  H   UNL     1      69.576 222.236 335.950  0.00  0.00    +0.000 HD
ENDBRANCH   9  23
BRANCH   9  25
ATOM     25  C   UNL     1      71.043 220.663 336.900  0.00  0.00    +0.000 C 
ATOM     26  C   UNL     1      71.073 219.517 336.562  0.00  0.00    +0.000 C 
ENDBRANCH   9  25
TORSDOF 2
ENDMDL
MODEL 6
REMARK VINA RESULT:      -5.0     18.357     20.772
REMARK  Name = Danazol.pdbqt.pdb
REMARK  2 active torsions:
REMARK  status: ('A' for Active; 'I' for Inactive)
REMARK    1  A    between atoms: C_9  and  O_23
REMARK    2  A    between atoms: C_9  and  C_25
REMARK                            x       y       z     vdW  Elec       q    Type
REMARK                         _______ _______ _______ _____ _____    ______ ____
ROOT
ATOM      1  O   UNL     1      75.273 219.692 342.148  0.00  0.00    +0.000 OA
ATOM      2  N   UNL     1      75.517 218.303 342.174  0.00  0.00    +0.000 NA
ATOM      3  C   UNL     1      68.937 221.000 338.137  0.00  0.00    +0.000 C 
ATOM      4  C   UNL     1      68.031 219.719 337.742  0.00  0.00    +0.000 C 
ATOM      5  C   UNL     1      69.822 221.019 339.318  0.00  0.00    +0.000 C 
ATOM      6  C   UNL     1      70.131 219.853 340.217  0.00  0.00    +0.000 C 
ATOM      7  C   UNL     1      70.957 219.960 341.521  0.00  0.00    +0.000 C 
ATOM      8  C   UNL     1      68.515 218.632 338.606  0.00  0.00    +0.000 C 
ATOM      9  C   UNL     1      68.297 219.536 336.142  0.00  0.00    +0.000 C 
ATOM     10  C   UNL     1      69.474 218.675 339.770  0.00  0.00    +0.000 C 
ATOM     11  C   UNL     1      69.258 221.728 336.956  0.00  0.00    +0.000 C 
ATOM     12  C   UNL     1      70.582 222.166 339.646  0.00  0.00    +0.000 C 
ATOM     13  C   UNL     1      68.850 220.863 335.800  0.00  0.00    +0.000 C 
ATOM     14  C   UNL     1      71.949 221.288 341.612  0.00  0.00    +0.000 C 
ATOM     15  C   UNL     1      66.554 220.110 338.111  0.00  0.00    +0.000 C 
ATOM     16  C   UNL     1      71.608 222.339 340.726  0.00  0.00    +0.000 C 
ATOM     17  C   UNL     1      71.907 218.796 341.627  0.00  0.00    +0.000 C 
ATOM     18  C   UNL     1      69.993 220.025 342.739  0.00  0.00    +0.000 C 
ATOM     19  C   UNL     1      73.223 221.057 341.839  0.00  0.00    +0.000 C 
ATOM     20  C   UNL     1      73.308 218.656 341.843  0.00  0.00    +0.000 A 
ATOM     21  C   UNL     1      73.959 219.855 341.957  0.00  0.00    +0.000 A 
ATOM     22  C   UNL     1      74.317 217.710 341.994  0.00  0.00    +0.000 A 
ENDROOT
BRANCH   9  23
ATOM     23  O   UNL     1      67.118 219.301 335.357  0.00  0.00    +0.000 OA
ATOM     24  H   UNL     1      66.894 218.358 335.438  0.00  0.00    +0.000 HD
ENDBRANCH   9  23
BRANCH   9  25
ATOM     25  C   UNL     1      69.285 218.460 335.881  0.00  0.00    +0.000 C 
ATOM     26  C   UNL     1      70.063 217.575 335.679  0.00  0.00    +0.000 C 
ENDBRANCH   9  25
TORSDOF 2
ENDMDL
MODEL 7
REMARK VINA RESULT:      -4.8      8.961     10.961
REMARK  Name = Danazol.pdbqt.pdb
REMARK  2 active torsions:
REMARK  status: ('A' for Active; 'I' for Inactive)
REMARK    1  A    between atoms: C_9  and  O_23
REMARK    2  A    between atoms: C_9  and  C_25
REMARK                            x       y       z     vdW  Elec       q    Type
REMARK                         _______ _______ _______ _____ _____    ______ ____
ROOT
ATOM      1  O   UNL     1      62.047 248.674 337.915  0.00  0.00    +0.000 OA
ATOM      2  N   UNL     1      61.176 249.078 336.882  0.00  0.00    +0.000 NA
ATOM      3  C   UNL     1      66.991 243.607 335.116  0.00  0.00    +0.000 C 
ATOM      4  C   UNL     1      67.031 243.418 333.511  0.00  0.00    +0.000 C 
ATOM      5  C   UNL     1      66.553 244.859 335.763  0.00  0.00    +0.000 C 
ATOM      6  C   UNL     1      65.954 246.054 335.074  0.00  0.00    +0.000 C 
ATOM      7  C   UNL     1      65.639 247.394 335.780  0.00  0.00    +0.000 C 
ATOM      8  C   UNL     1      66.314 244.585 332.974  0.00  0.00    +0.000 C 
ATOM      9  C   UNL     1      66.319 241.968 333.274  0.00  0.00    +0.000 C 
ATOM     10  C   UNL     1      65.822 245.825 333.677  0.00  0.00    +0.000 C 
ATOM     11  C   UNL     1      66.780 242.340 335.731  0.00  0.00    +0.000 C 
ATOM     12  C   UNL     1      66.554 244.996 337.170  0.00  0.00    +0.000 C 
ATOM     13  C   UNL     1      66.414 241.389 334.630  0.00  0.00    +0.000 C 
ATOM     14  C   UNL     1      65.474 247.292 337.429  0.00  0.00    +0.000 C 
ATOM     15  C   UNL     1      68.551 243.465 333.112  0.00  0.00    +0.000 C 
ATOM     16  C   UNL     1      66.048 246.133 338.007  0.00  0.00    +0.000 C 
ATOM     17  C   UNL     1      64.305 247.919 335.318  0.00  0.00    +0.000 C 
ATOM     18  C   UNL     1      66.783 248.408 335.497  0.00  0.00    +0.000 C 
ATOM     19  C   UNL     1      64.350 247.748 337.937  0.00  0.00    +0.000 C 
ATOM     20  C   UNL     1      63.116 248.360 335.969  0.00  0.00    +0.000 A 
ATOM     21  C   UNL     1      63.180 248.264 337.332  0.00  0.00    +0.000 A 
ATOM     22  C   UNL     1      61.849 248.883 335.728  0.00  0.00    +0.000 A 
ENDROOT
BRANCH   9  23
ATOM     23  O   UNL     1      66.998 241.107 332.346  0.00  0.00    +0.000 OA
ATOM     24  H   UNL     1      66.942 240.199 332.693  0.00  0.00    +0.000 HD
ENDBRANCH   9  23
BRANCH   9  25
ATOM     25  C   UNL     1      64.905 242.125 332.855  0.00  0.00    +0.000 C 
ATOM     26  C   UNL     1      63.774 242.257 332.492  0.00  0.00    +0.000 C 
ENDBRANCH   9  25
TORSDOF 2
ENDMDL
MODEL 8
REMARK VINA RESULT:      -4.6     24.333     26.340
REMARK  Name = Danazol.pdbqt.pdb
REMARK  2 active torsions:
REMARK  status: ('A' for Active; 'I' for Inactive)
REMARK    1  A    between atoms: C_9  and  O_23
REMARK    2  A    between atoms: C_9  and  C_25
REMARK                            x       y       z     vdW  Elec       q    Type
REMARK                         _______ _______ _______ _____ _____    ______ ____
ROOT
ATOM      1  O   UNL     1      39.499 232.371 340.465  0.00  0.00    +0.000 OA
ATOM      2  N   UNL     1      38.149 232.216 340.087  0.00  0.00    +0.000 NA
ATOM      3  C   UNL     1      42.720 237.596 335.963  0.00  0.00    +0.000 C 
ATOM      4  C   UNL     1      41.740 238.463 335.012  0.00  0.00    +0.000 C 
ATOM      5  C   UNL     1      42.274 236.991 337.232  0.00  0.00    +0.000 C 
ATOM      6  C   UNL     1      40.861 236.950 337.750  0.00  0.00    +0.000 C 
ATOM      7  C   UNL     1      40.467 236.425 339.150  0.00  0.00    +0.000 C 
ATOM      8  C   UNL     1      40.391 238.241 335.556  0.00  0.00    +0.000 C 
ATOM      9  C   UNL     1      42.019 237.865 333.520  0.00  0.00    +0.000 C 
ATOM     10  C   UNL     1      39.963 237.558 336.831  0.00  0.00    +0.000 C 
ATOM     11  C   UNL     1      43.727 236.986 335.163  0.00  0.00    +0.000 C 
ATOM     12  C   UNL     1      43.165 236.259 338.049  0.00  0.00    +0.000 C 
ATOM     13  C   UNL     1      43.310 237.178 333.734  0.00  0.00    +0.000 C 
ATOM     14  C   UNL     1      41.574 235.405 339.850  0.00  0.00    +0.000 C 
ATOM     15  C   UNL     1      42.176 239.962 335.200  0.00  0.00    +0.000 C 
ATOM     16  C   UNL     1      42.878 235.486 339.302  0.00  0.00    +0.000 C 
ATOM     17  C   UNL     1      39.219 235.587 339.054  0.00  0.00    +0.000 C 
ATOM     18  C   UNL     1      40.276 237.627 340.118  0.00  0.00    +0.000 C 
ATOM     19  C   UNL     1      41.131 234.226 340.228  0.00  0.00    +0.000 C 
ATOM     20  C   UNL     1      38.851 234.276 339.476  0.00  0.00    +0.000 A 
ATOM     21  C   UNL     1      39.870 233.601 340.090  0.00  0.00    +0.000 A 
ATOM     22  C   UNL     1      37.788 233.378 339.503  0.00  0.00    +0.000 A 
ENDROOT
BRANCH   9  23
ATOM     23  O   UNL     1      42.178 238.855 332.492  0.00  0.00    +0.000 OA
ATOM     24  H   UNL     1      43.130 239.034 332.401  0.00  0.00    +0.000 HD
ENDBRANCH   9  23
BRANCH   9  25
ATOM     25  C   UNL     1      40.962 236.904 333.119  0.00  0.00    +0.000 C 
ATOM     26  C   UNL     1      40.119 236.114 332.815  0.00  0.00    +0.000 C 
ENDBRANCH   9  25
TORSDOF 2
ENDMDL
MODEL 9
REMARK VINA RESULT:      -4.5     24.439     28.067
REMARK  Name = Danazol.pdbqt.pdb
REMARK  2 active torsions:
REMARK  status: ('A' for Active; 'I' for Inactive)
REMARK    1  A    between atoms: C_9  and  O_23
REMARK    2  A    between atoms: C_9  and  C_25
REMARK                            x       y       z     vdW  Elec       q    Type
REMARK                         _______ _______ _______ _____ _____    ______ ____
ROOT
ATOM      1  O   UNL     1      54.677 224.241 321.941  0.00  0.00    +0.000 OA
ATOM      2  N   UNL     1      55.706 223.675 322.723  0.00  0.00    +0.000 NA
ATOM      3  C   UNL     1      57.639 229.760 317.614  0.00  0.00    +0.000 C 
ATOM      4  C   UNL     1      59.251 229.870 317.553  0.00  0.00    +0.000 C 
ATOM      5  C   UNL     1      56.934 228.496 317.905  0.00  0.00    +0.000 C 
ATOM      6  C   UNL     1      57.571 227.199 318.325  0.00  0.00    +0.000 C 
ATOM      7  C   UNL     1      56.800 225.868 318.485  0.00  0.00    +0.000 C 
ATOM      8  C   UNL     1      59.739 228.594 318.097  0.00  0.00    +0.000 C 
ATOM      9  C   UNL     1      59.582 231.201 318.438  0.00  0.00    +0.000 C 
ATOM     10  C   UNL     1      58.981 227.338 318.446  0.00  0.00    +0.000 C 
ATOM     11  C   UNL     1      57.099 231.018 318.004  0.00  0.00    +0.000 C 
ATOM     12  C   UNL     1      55.522 228.433 317.927  0.00  0.00    +0.000 C 
ATOM     13  C   UNL     1      58.258 231.856 318.458  0.00  0.00    +0.000 C 
ATOM     14  C   UNL     1      55.163 226.032 318.709  0.00  0.00    +0.000 C 
ATOM     15  C   UNL     1      59.614 230.001 316.028  0.00  0.00    +0.000 C 
ATOM     16  C   UNL     1      54.636 227.283 318.306  0.00  0.00    +0.000 C 
ATOM     17  C   UNL     1      57.262 225.150 319.726  0.00  0.00    +0.000 C 
ATOM     18  C   UNL     1      57.002 224.998 317.212  0.00  0.00    +0.000 C 
ATOM     19  C   UNL     1      54.655 225.460 319.779  0.00  0.00    +0.000 C 
ATOM     20  C   UNL     1      56.613 224.592 320.866  0.00  0.00    +0.000 A 
ATOM     21  C   UNL     1      55.256 224.766 320.855  0.00  0.00    +0.000 A 
ATOM     22  C   UNL     1      56.854 223.896 322.047  0.00  0.00    +0.000 A 
ENDROOT
BRANCH   9  23
ATOM     23  O   UNL     1      60.540 232.094 317.850  0.00  0.00    +0.000 OA
ATOM     24  H   UNL     1      60.745 231.762 316.959  0.00  0.00    +0.000 HD
ENDBRANCH   9  23
BRANCH   9  25
ATOM     25  C   UNL     1      60.023 230.839 319.808  0.00  0.00    +0.000 C 
ATOM     26  C   UNL     1      60.355 230.534 320.915  0.00  0.00    +0.000 C 
ENDBRANCH   9  25
TORSDOF 2
ENDMDL
