MODEL 1
REMARK VINA RESULT:      -4.5      0.000      0.000
REMARK  Name = Decitabine.pdbqt.pdb
REMARK  4 active torsions:
REMARK  status: ('A' for Active; 'I' for Inactive)
REMARK    1  A    between atoms: N_2  and  C1*_8
REMARK    2  A    between atoms: C4*_10  and  C5*_13
REMARK    3  A    between atoms: C3*_11  and  O3*_16
REMARK    4  A    between atoms: C5*_13  and  O5*_14
REMARK                            x       y       z     vdW  Elec       q    Type
REMARK                         _______ _______ _______ _____ _____    ______ ____
ROOT
ATOM      1  O   UNL     1      66.646 243.289 339.810  0.00  0.00    +0.000 OA
ATOM      2  N   UNL     1      64.546 242.315 339.769  0.00  0.00    +0.000 N 
ATOM      3  N   UNL     1      64.850 244.516 340.517  0.00  0.00    +0.000 NA
ATOM      4  N   UNL     1      62.686 243.524 340.502  0.00  0.00    +0.000 NA
ATOM      5  C   UNL     1      65.437 243.356 340.011  0.00  0.00    +0.000 A 
ATOM      6  C   UNL     1      63.289 242.622 340.075  0.00  0.00    +0.000 A 
ATOM      7  C   UNL     1      63.560 244.574 340.726  0.00  0.00    +0.000 A 
ATOM      8  N   UNL     1      63.037 245.727 341.214  0.00  0.00    +0.000 N 
ATOM      9  H   UNL     1      62.175 245.610 341.731  0.00  0.00    +0.000 HD
ATOM     10  H   UNL     1      63.724 246.322 341.661  0.00  0.00    +0.000 HD
ENDROOT
BRANCH   2  11
ATOM     11  C1* UNL     1      64.857 241.086 339.278  0.00  0.00    +0.000 A 
ATOM     12  O4* UNL     1      65.497 240.115 340.055  0.00  0.00    +0.000 OA
ATOM     13  C4* UNL     1      65.653 238.984 339.245  0.00  0.00    +0.000 A 
ATOM     14  C3* UNL     1      65.107 239.257 337.940  0.00  0.00    +0.000 A 
ATOM     15  C2* UNL     1      64.604 240.569 337.991  0.00  0.00    +0.000 A 
BRANCH  14  16
ATOM     16  O3* UNL     1      64.571 238.258 337.178  0.00  0.00    +0.000 OA
ATOM     17  H3* UNL     1      63.810 238.581 336.665  0.00  0.00    +0.000 HD
ENDBRANCH  14  16
BRANCH  13  18
ATOM     18  C5* UNL     1      66.107 237.748 339.747  0.00  0.00    +0.000 C 
BRANCH  18  19
ATOM     19  O5* UNL     1      66.532 236.582 340.225  0.00  0.00    +0.000 OA
ATOM     20  H5* UNL     1      67.075 236.722 341.020  0.00  0.00    +0.000 HD
ENDBRANCH  18  19
ENDBRANCH  13  18
ENDBRANCH   2  11
TORSDOF 4
ENDMDL
MODEL 2
REMARK VINA RESULT:      -4.5     22.803     24.418
REMARK  Name = Decitabine.pdbqt.pdb
REMARK  4 active torsions:
REMARK  status: ('A' for Active; 'I' for Inactive)
REMARK    1  A    between atoms: N_2  and  C1*_8
REMARK    2  A    between atoms: C4*_10  and  C5*_13
REMARK    3  A    between atoms: C3*_11  and  O3*_16
REMARK    4  A    between atoms: C5*_13  and  O5*_14
REMARK                            x       y       z     vdW  Elec       q    Type
REMARK                         _______ _______ _______ _____ _____    ______ ____
ROOT
ATOM      1  O   UNL     1      45.186 235.628 323.871  0.00  0.00    +0.000 OA
ATOM      2  N   UNL     1      47.320 234.734 323.777  0.00  0.00    +0.000 N 
ATOM      3  N   UNL     1      45.424 233.356 323.763  0.00  0.00    +0.000 NA
ATOM      4  N   UNL     1      47.610 232.417 323.687  0.00  0.00    +0.000 NA
ATOM      5  C   UNL     1      45.931 234.655 323.807  0.00  0.00    +0.000 A 
ATOM      6  C   UNL     1      47.909 233.544 323.718  0.00  0.00    +0.000 A 
ATOM      7  C   UNL     1      46.228 232.327 323.694  0.00  0.00    +0.000 A 
ATOM      8  N   UNL     1      45.685 231.084 323.648  0.00  0.00    +0.000 N 
ATOM      9  H   UNL     1      46.285 230.352 324.004  0.00  0.00    +0.000 HD
ATOM     10  H   UNL     1      44.729 231.052 323.983  0.00  0.00    +0.000 HD
ENDROOT
BRANCH   2  11
ATOM     11  C1* UNL     1      48.063 235.872 323.807  0.00  0.00    +0.000 A 
ATOM     12  O4* UNL     1      48.364 236.531 325.004  0.00  0.00    +0.000 OA
ATOM     13  C4* UNL     1      49.141 237.647 324.668  0.00  0.00    +0.000 A 
ATOM     14  C3* UNL     1      49.322 237.686 323.239  0.00  0.00    +0.000 A 
ATOM     15  C2* UNL     1      48.651 236.561 322.728  0.00  0.00    +0.000 A 
BRANCH  14  16
ATOM     16  O3* UNL     1      50.447 238.227 322.686  0.00  0.00    +0.000 OA
ATOM     17  H3* UNL     1      51.223 237.663 322.851  0.00  0.00    +0.000 HD
ENDBRANCH  14  16
BRANCH  13  18
ATOM     18  C5* UNL     1      49.771 238.451 325.638  0.00  0.00    +0.000 C 
BRANCH  18  19
ATOM     19  O5* UNL     1      50.361 239.213 326.555  0.00  0.00    +0.000 OA
ATOM     20  H5* UNL     1      50.896 238.664 327.154  0.00  0.00    +0.000 HD
ENDBRANCH  18  19
ENDBRANCH  13  18
ENDBRANCH   2  11
TORSDOF 4
ENDMDL
MODEL 3
REMARK VINA RESULT:      -4.4     17.234     18.111
REMARK  Name = Decitabine.pdbqt.pdb
REMARK  4 active torsions:
REMARK  status: ('A' for Active; 'I' for Inactive)
REMARK    1  A    between atoms: N_2  and  C1*_8
REMARK    2  A    between atoms: C4*_10  and  C5*_13
REMARK    3  A    between atoms: C3*_11  and  O3*_16
REMARK    4  A    between atoms: C5*_13  and  O5*_14
REMARK                            x       y       z     vdW  Elec       q    Type
REMARK                         _______ _______ _______ _____ _____    ______ ____
ROOT
ATOM      1  O   UNL     1      51.131 246.527 327.697  0.00  0.00    +0.000 OA
ATOM      2  N   UNL     1      51.591 244.479 328.674  0.00  0.00    +0.000 N 
ATOM      3  N   UNL     1      52.563 245.097 326.632  0.00  0.00    +0.000 NA
ATOM      4  N   UNL     1      53.032 242.978 327.611  0.00  0.00    +0.000 NA
ATOM      5  C   UNL     1      51.713 245.447 327.682  0.00  0.00    +0.000 A 
ATOM      6  C   UNL     1      52.310 243.388 328.430  0.00  0.00    +0.000 A 
ATOM      7  C   UNL     1      53.179 243.943 326.629  0.00  0.00    +0.000 A 
ATOM      8  N   UNL     1      54.000 243.653 325.588  0.00  0.00    +0.000 N 
ATOM      9  H   UNL     1      54.114 242.664 325.408  0.00  0.00    +0.000 HD
ATOM     10  H   UNL     1      53.820 244.217 324.766  0.00  0.00    +0.000 HD
ENDROOT
BRANCH   2  11
ATOM     11  C1* UNL     1      50.831 244.568 329.798  0.00  0.00    +0.000 A 
ATOM     12  O4* UNL     1      49.880 243.598 330.131  0.00  0.00    +0.000 OA
ATOM     13  C4* UNL     1      49.296 243.999 331.339  0.00  0.00    +0.000 A 
ATOM     14  C3* UNL     1      49.889 245.242 331.761  0.00  0.00    +0.000 A 
ATOM     15  C2* UNL     1      50.852 245.568 330.790  0.00  0.00    +0.000 A 
BRANCH  14  16
ATOM     16  O3* UNL     1      49.997 245.557 333.086  0.00  0.00    +0.000 OA
ATOM     17  H3* UNL     1      49.218 245.251 333.582  0.00  0.00    +0.000 HD
ENDBRANCH  14  16
BRANCH  13  18
ATOM     18  C5* UNL     1      48.414 243.175 332.065  0.00  0.00    +0.000 C 
BRANCH  18  19
ATOM     19  O5* UNL     1      47.584 242.397 332.754  0.00  0.00    +0.000 OA
ATOM     20  H5* UNL     1      47.997 242.123 333.591  0.00  0.00    +0.000 HD
ENDBRANCH  18  19
ENDBRANCH  13  18
ENDBRANCH   2  11
TORSDOF 4
ENDMDL
MODEL 4
REMARK VINA RESULT:      -4.3     19.281     20.374
REMARK  Name = Decitabine.pdbqt.pdb
REMARK  4 active torsions:
REMARK  status: ('A' for Active; 'I' for Inactive)
REMARK    1  A    between atoms: N_2  and  C1*_8
REMARK    2  A    between atoms: C4*_10  and  C5*_13
REMARK    3  A    between atoms: C3*_11  and  O3*_16
REMARK    4  A    between atoms: C5*_13  and  O5*_14
REMARK                            x       y       z     vdW  Elec       q    Type
REMARK                         _______ _______ _______ _____ _____    ______ ____
ROOT
ATOM      1  O   UNL     1      69.574 224.134 336.953  0.00  0.00    +0.000 OA
ATOM      2  N   UNL     1      71.237 222.540 337.180  0.00  0.00    +0.000 N 
ATOM      3  N   UNL     1      69.020 221.926 336.729  0.00  0.00    +0.000 NA
ATOM      4  N   UNL     1      70.713 220.271 336.980  0.00  0.00    +0.000 NA
ATOM      5  C   UNL     1      69.930 222.960 336.955  0.00  0.00    +0.000 A 
ATOM      6  C   UNL     1      71.374 221.218 337.144  0.00  0.00    +0.000 A 
ATOM      7  C   UNL     1      69.413 220.679 336.733  0.00  0.00    +0.000 A 
ATOM      8  N   UNL     1      68.490 219.711 336.502  0.00  0.00    +0.000 N 
ATOM      9  H   UNL     1      68.716 218.812 336.907  0.00  0.00    +0.000 HD
ATOM     10  H   UNL     1      67.538 220.019 336.658  0.00  0.00    +0.000 HD
ENDROOT
BRANCH   2  11
ATOM     11  C1* UNL     1      72.310 223.339 337.422  0.00  0.00    +0.000 A 
ATOM     12  O4* UNL     1      72.937 224.069 336.407  0.00  0.00    +0.000 OA
ATOM     13  C4* UNL     1      73.986 224.779 337.006  0.00  0.00    +0.000 A 
ATOM     14  C3* UNL     1      74.015 224.480 338.415  0.00  0.00    +0.000 A 
ATOM     15  C2* UNL     1      72.952 223.592 338.651  0.00  0.00    +0.000 A 
BRANCH  14  16
ATOM     16  O3* UNL     1      74.463 225.400 339.320  0.00  0.00    +0.000 OA
ATOM     17  H3* UNL     1      74.657 226.250 338.888  0.00  0.00    +0.000 HD
ENDBRANCH  14  16
BRANCH  13  18
ATOM     18  C5* UNL     1      74.732 225.755 336.316  0.00  0.00    +0.000 C 
BRANCH  18  19
ATOM     19  O5* UNL     1      75.432 226.680 335.666  0.00  0.00    +0.000 OA
ATOM     20  H5* UNL     1      76.257 226.874 336.143  0.00  0.00    +0.000 HD
ENDBRANCH  18  19
ENDBRANCH  13  18
ENDBRANCH   2  11
TORSDOF 4
ENDMDL
MODEL 5
REMARK VINA RESULT:      -4.2     12.080     13.328
REMARK  Name = Decitabine.pdbqt.pdb
REMARK  4 active torsions:
REMARK  status: ('A' for Active; 'I' for Inactive)
REMARK    1  A    between atoms: N_2  and  C1*_8
REMARK    2  A    between atoms: C4*_10  and  C5*_13
REMARK    3  A    between atoms: C3*_11  and  O3*_16
REMARK    4  A    between atoms: C5*_13  and  O5*_14
REMARK                            x       y       z     vdW  Elec       q    Type
REMARK                         _______ _______ _______ _____ _____    ______ ____
ROOT
ATOM      1  O   UNL     1      53.377 244.250 348.792  0.00  0.00    +0.000 OA
ATOM      2  N   UNL     1      54.807 243.172 347.323  0.00  0.00    +0.000 N 
ATOM      3  N   UNL     1      54.492 245.494 347.230  0.00  0.00    +0.000 NA
ATOM      4  N   UNL     1      55.950 244.402 345.697  0.00  0.00    +0.000 NA
ATOM      5  C   UNL     1      54.169 244.289 347.855  0.00  0.00    +0.000 A 
ATOM      6  C   UNL     1      55.609 243.466 346.304  0.00  0.00    +0.000 A 
ATOM      7  C   UNL     1      55.338 245.522 346.232  0.00  0.00    +0.000 A 
ATOM      8  N   UNL     1      55.624 246.720 345.662  0.00  0.00    +0.000 N 
ATOM      9  H   UNL     1      55.920 246.664 344.697  0.00  0.00    +0.000 HD
ATOM     10  H   UNL     1      54.929 247.431 345.854  0.00  0.00    +0.000 HD
ENDROOT
BRANCH   2  11
ATOM     11  C1* UNL     1      54.669 241.888 347.746  0.00  0.00    +0.000 A 
ATOM     12  O4* UNL     1      53.455 241.199 347.644  0.00  0.00    +0.000 OA
ATOM     13  C4* UNL     1      53.673 239.915 348.161  0.00  0.00    +0.000 A 
ATOM     14  C3* UNL     1      55.041 239.806 348.597  0.00  0.00    +0.000 A 
ATOM     15  C2* UNL     1      55.644 241.045 348.314  0.00  0.00    +0.000 A 
BRANCH  14  16
ATOM     16  O3* UNL     1      55.697 238.608 348.566  0.00  0.00    +0.000 OA
ATOM     17  H3* UNL     1      56.249 238.533 347.769  0.00  0.00    +0.000 HD
ENDBRANCH  14  16
BRANCH  13  18
ATOM     18  C5* UNL     1      52.715 238.887 348.064  0.00  0.00    +0.000 C 
BRANCH  18  19
ATOM     19  O5* UNL     1      51.814 237.913 347.975  0.00  0.00    +0.000 OA
ATOM     20  H5* UNL     1      50.959 238.213 348.328  0.00  0.00    +0.000 HD
ENDBRANCH  18  19
ENDBRANCH  13  18
ENDBRANCH   2  11
TORSDOF 4
ENDMDL
MODEL 6
REMARK VINA RESULT:      -4.2     20.330     21.896
REMARK  Name = Decitabine.pdbqt.pdb
REMARK  4 active torsions:
REMARK  status: ('A' for Active; 'I' for Inactive)
REMARK    1  A    between atoms: N_2  and  C1*_8
REMARK    2  A    between atoms: C4*_10  and  C5*_13
REMARK    3  A    between atoms: C3*_11  and  O3*_16
REMARK    4  A    between atoms: C5*_13  and  O5*_14
REMARK                            x       y       z     vdW  Elec       q    Type
REMARK                         _______ _______ _______ _____ _____    ______ ____
ROOT
ATOM      1  O   UNL     1      62.470 223.012 325.180  0.00  0.00    +0.000 OA
ATOM      2  N   UNL     1      61.405 224.800 326.194  0.00  0.00    +0.000 N 
ATOM      3  N   UNL     1      60.587 222.614 326.416  0.00  0.00    +0.000 NA
ATOM      4  N   UNL     1      59.466 224.442 327.449  0.00  0.00    +0.000 NA
ATOM      5  C   UNL     1      61.562 223.454 325.877  0.00  0.00    +0.000 A 
ATOM      6  C   UNL     1      60.340 225.036 326.954  0.00  0.00    +0.000 A 
ATOM      7  C   UNL     1      59.625 223.098 327.158  0.00  0.00    +0.000 A 
ATOM      8  N   UNL     1      58.705 222.238 327.663  0.00  0.00    +0.000 N 
ATOM      9  H   UNL     1      57.804 222.655 327.856  0.00  0.00    +0.000 HD
ATOM     10  H   UNL     1      58.667 221.355 327.169  0.00  0.00    +0.000 HD
ENDROOT
BRANCH   2  11
ATOM     11  C1* UNL     1      62.212 225.820 325.800  0.00  0.00    +0.000 A 
ATOM     12  O4* UNL     1      61.883 226.656 324.728  0.00  0.00    +0.000 OA
ATOM     13  C4* UNL     1      62.920 227.589 324.607  0.00  0.00    +0.000 A 
ATOM     14  C3* UNL     1      63.914 227.325 325.616  0.00  0.00    +0.000 A 
ATOM     15  C2* UNL     1      63.442 226.227 326.355  0.00  0.00    +0.000 A 
BRANCH  14  16
ATOM     16  O3* UNL     1      64.672 228.334 326.139  0.00  0.00    +0.000 OA
ATOM     17  H3* UNL     1      64.276 228.680 326.958  0.00  0.00    +0.000 HD
ENDBRANCH  14  16
BRANCH  13  18
ATOM     18  C5* UNL     1      62.847 228.696 323.739  0.00  0.00    +0.000 C 
BRANCH  18  19
ATOM     19  O5* UNL     1      62.780 229.744 322.923  0.00  0.00    +0.000 OA
ATOM     20  H5* UNL     1      62.965 230.564 323.412  0.00  0.00    +0.000 HD
ENDBRANCH  18  19
ENDBRANCH  13  18
ENDBRANCH   2  11
TORSDOF 4
ENDMDL
MODEL 7
REMARK VINA RESULT:      -4.1     13.340     14.304
REMARK  Name = Decitabine.pdbqt.pdb
REMARK  4 active torsions:
REMARK  status: ('A' for Active; 'I' for Inactive)
REMARK    1  A    between atoms: N_2  and  C1*_8
REMARK    2  A    between atoms: C4*_10  and  C5*_13
REMARK    3  A    between atoms: C3*_11  and  O3*_16
REMARK    4  A    between atoms: C5*_13  and  O5*_14
REMARK                            x       y       z     vdW  Elec       q    Type
REMARK                         _______ _______ _______ _____ _____    ______ ____
ROOT
ATOM      1  O   UNL     1      51.693 243.257 348.958  0.00  0.00    +0.000 OA
ATOM      2  N   UNL     1      52.997 242.350 347.274  0.00  0.00    +0.000 N 
ATOM      3  N   UNL     1      51.944 244.428 347.010  0.00  0.00    +0.000 NA
ATOM      4  N   UNL     1      53.263 243.502 345.258  0.00  0.00    +0.000 NA
ATOM      5  C   UNL     1      52.182 243.328 347.835  0.00  0.00    +0.000 A 
ATOM      6  C   UNL     1      53.395 242.647 346.040  0.00  0.00    +0.000 A 
ATOM      7  C   UNL     1      52.471 244.492 345.815  0.00  0.00    +0.000 A 
ATOM      8  N   UNL     1      52.214 245.586 345.054  0.00  0.00    +0.000 N 
ATOM      9  H   UNL     1      52.272 245.425 344.057  0.00  0.00    +0.000 HD
ATOM     10  H   UNL     1      51.395 246.100 345.355  0.00  0.00    +0.000 HD
ENDROOT
BRANCH   2  11
ATOM     11  C1* UNL     1      53.382 241.187 347.862  0.00  0.00    +0.000 A 
ATOM     12  O4* UNL     1      54.653 241.023 348.422  0.00  0.00    +0.000 OA
ATOM     13  C4* UNL     1      54.705 239.722 348.940  0.00  0.00    +0.000 A 
ATOM     14  C3* UNL     1      53.447 239.065 348.694  0.00  0.00    +0.000 A 
ATOM     15  C2* UNL     1      52.635 240.004 348.033  0.00  0.00    +0.000 A 
BRANCH  14  16
ATOM     16  O3* UNL     1      52.975 238.105 349.543  0.00  0.00    +0.000 OA
ATOM     17  H3* UNL     1      52.357 237.508 349.088  0.00  0.00    +0.000 HD
ENDBRANCH  14  16
BRANCH  13  18
ATOM     18  C5* UNL     1      55.776 239.263 349.731  0.00  0.00    +0.000 C 
BRANCH  18  19
ATOM     19  O5* UNL     1      56.785 238.826 350.479  0.00  0.00    +0.000 OA
ATOM     20  H5* UNL     1      57.217 238.067 350.052  0.00  0.00    +0.000 HD
ENDBRANCH  18  19
ENDBRANCH  13  18
ENDBRANCH   2  11
TORSDOF 4
ENDMDL
MODEL 8
REMARK VINA RESULT:      -4.1     12.844     14.342
REMARK  Name = Decitabine.pdbqt.pdb
REMARK  4 active torsions:
REMARK  status: ('A' for Active; 'I' for Inactive)
REMARK    1  A    between atoms: N_2  and  C1*_8
REMARK    2  A    between atoms: C4*_10  and  C5*_13
REMARK    3  A    between atoms: C3*_11  and  O3*_16
REMARK    4  A    between atoms: C5*_13  and  O5*_14
REMARK                            x       y       z     vdW  Elec       q    Type
REMARK                         _______ _______ _______ _____ _____    ______ ____
ROOT
ATOM      1  O   UNL     1      53.952 241.289 346.808  0.00  0.00    +0.000 OA
ATOM      2  N   UNL     1      54.224 240.137 348.798  0.00  0.00    +0.000 N 
ATOM      3  N   UNL     1      52.482 239.613 347.318  0.00  0.00    +0.000 NA
ATOM      4  N   UNL     1      52.732 238.432 349.370  0.00  0.00    +0.000 NA
ATOM      5  C   UNL     1      53.592 240.415 347.590  0.00  0.00    +0.000 A 
ATOM      6  C   UNL     1      53.642 239.154 349.478  0.00  0.00    +0.000 A 
ATOM      7  C   UNL     1      52.108 238.684 348.160  0.00  0.00    +0.000 A 
ATOM      8  N   UNL     1      51.026 237.927 347.847  0.00  0.00    +0.000 N 
ATOM      9  H   UNL     1      50.540 237.542 348.646  0.00  0.00    +0.000 HD
ATOM     10  H   UNL     1      50.428 238.352 347.149  0.00  0.00    +0.000 HD
ENDROOT
BRANCH   2  11
ATOM     11  C1* UNL     1      55.320 240.767 349.297  0.00  0.00    +0.000 A 
ATOM     12  O4* UNL     1      56.490 240.929 348.546  0.00  0.00    +0.000 OA
ATOM     13  C4* UNL     1      57.400 241.618 349.357  0.00  0.00    +0.000 A 
ATOM     14  C3* UNL     1      56.789 241.885 350.634  0.00  0.00    +0.000 A 
ATOM     15  C2* UNL     1      55.488 241.356 350.566  0.00  0.00    +0.000 A 
BRANCH  14  16
ATOM     16  O3* UNL     1      57.133 242.988 351.363  0.00  0.00    +0.000 OA
ATOM     17  H3* UNL     1      56.755 242.946 352.258  0.00  0.00    +0.000 HD
ENDBRANCH  14  16
BRANCH  13  18
ATOM     18  C5* UNL     1      58.629 242.107 348.871  0.00  0.00    +0.000 C 
BRANCH  18  19
ATOM     19  O5* UNL     1      59.791 242.567 348.416  0.00  0.00    +0.000 OA
ATOM     20  H5* UNL     1      59.643 243.309 347.805  0.00  0.00    +0.000 HD
ENDBRANCH  18  19
ENDBRANCH  13  18
ENDBRANCH   2  11
TORSDOF 4
ENDMDL
MODEL 9
REMARK VINA RESULT:      -4.1     21.631     22.616
REMARK  Name = Decitabine.pdbqt.pdb
REMARK  4 active torsions:
REMARK  status: ('A' for Active; 'I' for Inactive)
REMARK    1  A    between atoms: N_2  and  C1*_8
REMARK    2  A    between atoms: C4*_10  and  C5*_13
REMARK    3  A    between atoms: C3*_11  and  O3*_16
REMARK    4  A    between atoms: C5*_13  and  O5*_14
REMARK                            x       y       z     vdW  Elec       q    Type
REMARK                         _______ _______ _______ _____ _____    ______ ____
ROOT
ATOM      1  O   UNL     1      64.097 223.761 328.281  0.00  0.00    +0.000 OA
ATOM      2  N   UNL     1      62.048 222.693 328.425  0.00  0.00    +0.000 N 
ATOM      3  N   UNL     1      63.921 221.891 329.585  0.00  0.00    +0.000 NA
ATOM      4  N   UNL     1      61.828 220.765 329.728  0.00  0.00    +0.000 NA
ATOM      5  C   UNL     1      63.397 222.856 328.724  0.00  0.00    +0.000 A 
ATOM      6  C   UNL     1      61.507 221.631 329.016  0.00  0.00    +0.000 A 
ATOM      7  C   UNL     1      63.164 220.931 330.051  0.00  0.00    +0.000 A 
ATOM      8  N   UNL     1      63.720 220.020 330.889  0.00  0.00    +0.000 N 
ATOM      9  H   UNL     1      63.263 219.118 330.889  0.00  0.00    +0.000 HD
ATOM     10  H   UNL     1      64.731 219.984 330.829  0.00  0.00    +0.000 HD
ENDROOT
BRANCH   2  11
ATOM     11  C1* UNL     1      61.300 223.490 327.618  0.00  0.00    +0.000 A 
ATOM     12  O4* UNL     1      61.619 223.694 326.271  0.00  0.00    +0.000 OA
ATOM     13  C4* UNL     1      60.645 224.553 325.747  0.00  0.00    +0.000 A 
ATOM     14  C3* UNL     1      59.707 224.893 326.787  0.00  0.00    +0.000 A 
ATOM     15  C2* UNL     1      60.130 224.207 327.939  0.00  0.00    +0.000 A 
BRANCH  14  16
ATOM     16  O3* UNL     1      58.402 225.172 326.494  0.00  0.00    +0.000 OA
ATOM     17  H3* UNL     1      57.826 224.980 327.254  0.00  0.00    +0.000 HD
ENDBRANCH  14  16
BRANCH  13  18
ATOM     18  C5* UNL     1      60.550 224.843 324.372  0.00  0.00    +0.000 C 
BRANCH  18  19
ATOM     19  O5* UNL     1      60.459 225.121 323.075  0.00  0.00    +0.000 OA
ATOM     20  H5* UNL     1      60.792 224.375 322.547  0.00  0.00    +0.000 HD
ENDBRANCH  18  19
ENDBRANCH  13  18
ENDBRANCH   2  11
TORSDOF 4
ENDMDL
