MODEL 1
REMARK VINA RESULT:      -5.0      0.000      0.000
REMARK  Name = Deferoxamine.pdbqt.pdb
REMARK  19 active torsions:
REMARK  status: ('A' for Active; 'I' for Inactive)
REMARK    1  A    between atoms: C_1  and  C_2
REMARK    2  A    between atoms: C_3  and  C_4
REMARK    3  A    between atoms: C_4  and  N_5
REMARK    4  A    between atoms: C_6  and  C_9
REMARK    5  A    between atoms: C_10  and  C_11
REMARK    6  A    between atoms: N_13  and  O_14
REMARK    7  A    between atoms: N_13  and  C_16
REMARK    8  A    between atoms: C_17  and  C_18
REMARK    9  A    between atoms: C_19  and  C_20
REMARK   10  A    between atoms: C_20  and  N_21
REMARK   11  A    between atoms: C_24  and  N_25
REMARK   12  A    between atoms: N_25  and  O_28
REMARK   13  A    between atoms: C_26  and  C_30
REMARK   14  A    between atoms: C_31  and  C_32
REMARK   15  A    between atoms: N_34  and  C_36
REMARK   16  A    between atoms: C_37  and  C_38
REMARK   17  A    between atoms: C_38  and  C_39
REMARK   18  A    between atoms: C_40  and  N_41
REMARK   19  A    between atoms: N_41  and  O_45
REMARK                            x       y       z     vdW  Elec       q    Type
REMARK                         _______ _______ _______ _____ _____    ______ ____
ROOT
ATOM      1  C   UNL     1      60.704 222.114 327.966  0.00  0.00    +0.000 C 
ATOM      2  C   UNL     1      61.352 221.657 328.870  0.00  0.00    +0.000 C 
ENDROOT
BRANCH   2   3
ATOM      3  N   UNL     1      62.077 221.143 329.884  0.00  0.00    +0.000 N 
ATOM      4  C   UNL     1      62.158 219.850 330.372  0.00  0.00    +0.000 C 
ATOM      5  O   UNL     1      61.412 218.931 330.048  0.00  0.00    +0.000 OA
BRANCH   4   6
ATOM      6  C   UNL     1      63.176 219.573 331.363  0.00  0.00    +0.000 C 
ATOM      7  C   UNL     1      64.022 219.357 332.189  0.00  0.00    +0.000 C 
BRANCH   7   8
ATOM      8  C   UNL     1      65.047 219.119 333.175  0.00  0.00    +0.000 C 
ATOM      9  O   UNL     1      65.776 218.146 333.049  0.00  0.00    +0.000 OA
ATOM     10  N   UNL     1      65.106 220.042 334.194  0.00  0.00    +0.000 N 
ATOM     11  H   UNL     1      64.433 220.797 334.153  0.00  0.00    +0.000 HD
BRANCH  10  12
ATOM     12  C   UNL     1      65.945 220.090 335.252  0.00  0.00    +0.000 C 
ATOM     13  C   UNL     1      66.687 220.129 336.194  0.00  0.00    +0.000 C 
BRANCH  13  14
ATOM     14  C   UNL     1      67.629 220.172 337.401  0.00  0.00    +0.000 C 
BRANCH  14  15
ATOM     15  C   UNL     1      68.575 220.222 338.604  0.00  0.00    +0.000 C 
ATOM     16  C   UNL     1      69.319 220.261 339.545  0.00  0.00    +0.000 C 
BRANCH  16  17
ATOM     17  N   UNL     1      70.158 220.310 340.598  0.00  0.00    +0.000 N 
ATOM     18  C   UNL     1      71.217 221.143 340.875  0.00  0.00    +0.000 C 
ATOM     19  O   UNL     1      71.675 222.070 340.231  0.00  0.00    +0.000 OA
ATOM     20  C   UNL     1      71.988 220.951 342.157  0.00  0.00    +0.000 C 
BRANCH  17  21
ATOM     21  O   UNL     1      69.813 219.289 341.521  0.00  0.00    +0.000 OA
ATOM     22  H   UNL     1      69.297 219.769 342.200  0.00  0.00    +0.000 HD
ENDBRANCH  17  21
ENDBRANCH  16  17
ENDBRANCH  14  15
ENDBRANCH  13  14
ENDBRANCH  10  12
ENDBRANCH   7   8
ENDBRANCH   4   6
BRANCH   3  23
ATOM     23  O   UNL     1      63.137 222.024 330.195  0.00  0.00    +0.000 OA
ATOM     24  H   UNL     1      62.854 222.370 331.062  0.00  0.00    +0.000 HD
ENDBRANCH   3  23
ENDBRANCH   2   3
BRANCH   1  25
ATOM     25  C   UNL     1      59.868 222.699 326.826  0.00  0.00    +0.000 C 
ATOM     26  C   UNL     1      59.216 223.147 325.924  0.00  0.00    +0.000 C 
BRANCH  26  27
ATOM     27  C   UNL     1      58.387 223.709 324.764  0.00  0.00    +0.000 C 
BRANCH  27  28
ATOM     28  N   UNL     1      57.660 224.188 323.731  0.00  0.00    +0.000 N 
ATOM     29  C   UNL     1      56.733 223.540 322.950  0.00  0.00    +0.000 C 
ATOM     30  O   UNL     1      56.396 222.370 323.062  0.00  0.00    +0.000 OA
ATOM     31  H   UNL     1      57.828 225.164 323.521  0.00  0.00    +0.000 HD
BRANCH  29  32
ATOM     32  C   UNL     1      56.124 224.346 321.920  0.00  0.00    +0.000 C 
ATOM     33  C   UNL     1      55.640 225.024 321.055  0.00  0.00    +0.000 C 
BRANCH  33  34
ATOM     34  C   UNL     1      55.073 225.838 319.999  0.00  0.00    +0.000 C 
ATOM     35  O   UNL     1      54.141 225.367 319.355  0.00  0.00    +0.000 OA
ATOM     36  N   UNL     1      55.651 227.075 319.767  0.00  0.00    +0.000 N 
BRANCH  36  37
ATOM     37  C   UNL     1      55.263 228.092 318.970  0.00  0.00    +0.000 C 
ATOM     38  C   UNL     1      54.916 228.997 318.263  0.00  0.00    +0.000 C 
BRANCH  38  39
ATOM     39  C   UNL     1      54.466 230.152 317.362  0.00  0.00    +0.000 C 
ATOM     40  C   UNL     1      54.118 231.055 316.652  0.00  0.00    +0.000 C 
BRANCH  40  41
ATOM     41  C   UNL     1      53.676 232.206 315.745  0.00  0.00    +0.000 C 
BRANCH  41  42
ATOM     42  N   UNL     1      53.257 233.299 314.883  0.00  0.00    +0.000 NA
ATOM     43  H   UNL     1      53.850 233.348 314.057  0.00  0.00    +0.000 HD
ATOM     44  H   UNL     1      52.310 233.139 314.541  0.00  0.00    +0.000 HD
ENDBRANCH  41  42
ENDBRANCH  40  41
ENDBRANCH  38  39
ENDBRANCH  36  37
BRANCH  36  45
ATOM     45  O   UNL     1      56.573 227.554 320.726  0.00  0.00    +0.000 OA
ATOM     46  H   UNL     1      56.145 228.384 321.007  0.00  0.00    +0.000 HD
ENDBRANCH  36  45
ENDBRANCH  33  34
ENDBRANCH  29  32
ENDBRANCH  27  28
ENDBRANCH  26  27
ENDBRANCH   1  25
TORSDOF 19
ENDMDL
MODEL 2
REMARK VINA RESULT:      -4.8      2.675     21.514
REMARK  Name = Deferoxamine.pdbqt.pdb
REMARK  19 active torsions:
REMARK  status: ('A' for Active; 'I' for Inactive)
REMARK    1  A    between atoms: C_1  and  C_2
REMARK    2  A    between atoms: C_3  and  C_4
REMARK    3  A    between atoms: C_4  and  N_5
REMARK    4  A    between atoms: C_6  and  C_9
REMARK    5  A    between atoms: C_10  and  C_11
REMARK    6  A    between atoms: N_13  and  O_14
REMARK    7  A    between atoms: N_13  and  C_16
REMARK    8  A    between atoms: C_17  and  C_18
REMARK    9  A    between atoms: C_19  and  C_20
REMARK   10  A    between atoms: C_20  and  N_21
REMARK   11  A    between atoms: C_24  and  N_25
REMARK   12  A    between atoms: N_25  and  O_28
REMARK   13  A    between atoms: C_26  and  C_30
REMARK   14  A    between atoms: C_31  and  C_32
REMARK   15  A    between atoms: N_34  and  C_36
REMARK   16  A    between atoms: C_37  and  C_38
REMARK   17  A    between atoms: C_38  and  C_39
REMARK   18  A    between atoms: C_40  and  N_41
REMARK   19  A    between atoms: N_41  and  O_45
REMARK                            x       y       z     vdW  Elec       q    Type
REMARK                         _______ _______ _______ _____ _____    ______ ____
ROOT
ATOM      1  C   UNL     1      61.345 222.928 327.531  0.00  0.00    +0.000 C 
ATOM      2  C   UNL     1      60.566 223.213 326.662  0.00  0.00    +0.000 C 
ENDROOT
BRANCH   2   3
ATOM      3  N   UNL     1      59.690 223.532 325.687  0.00  0.00    +0.000 N 
ATOM      4  C   UNL     1      58.725 222.767 325.054  0.00  0.00    +0.000 C 
ATOM      5  O   UNL     1      58.610 221.551 325.166  0.00  0.00    +0.000 OA
BRANCH   4   6
ATOM      6  C   UNL     1      57.807 223.452 324.168  0.00  0.00    +0.000 C 
ATOM      7  C   UNL     1      57.055 224.020 323.422  0.00  0.00    +0.000 C 
BRANCH   7   8
ATOM      8  C   UNL     1      56.171 224.713 322.518  0.00  0.00    +0.000 C 
ATOM      9  O   UNL     1      54.965 224.532 322.613  0.00  0.00    +0.000 OA
ATOM     10  N   UNL     1      56.792 225.537 321.607  0.00  0.00    +0.000 N 
ATOM     11  H   UNL     1      57.802 225.582 321.661  0.00  0.00    +0.000 HD
BRANCH  10  12
ATOM     12  C   UNL     1      56.243 226.308 320.644  0.00  0.00    +0.000 C 
ATOM     13  C   UNL     1      55.757 226.990 319.784  0.00  0.00    +0.000 C 
BRANCH  13  14
ATOM     14  C   UNL     1      55.141 227.854 318.679  0.00  0.00    +0.000 C 
BRANCH  14  15
ATOM     15  C   UNL     1      54.524 228.710 317.570  0.00  0.00    +0.000 C 
ATOM     16  C   UNL     1      54.041 229.379 316.698  0.00  0.00    +0.000 C 
BRANCH  16  17
ATOM     17  N   UNL     1      53.495 230.124 315.717  0.00  0.00    +0.000 N 
ATOM     18  C   UNL     1      52.469 229.859 314.842  0.00  0.00    +0.000 C 
ATOM     19  O   UNL     1      51.773 228.866 314.727  0.00  0.00    +0.000 OA
ATOM     20  C   UNL     1      52.075 230.907 313.830  0.00  0.00    +0.000 C 
BRANCH  17  21
ATOM     21  O   UNL     1      54.163 231.375 315.653  0.00  0.00    +0.000 OA
ATOM     22  H   UNL     1      55.109 231.123 315.678  0.00  0.00    +0.000 HD
ENDBRANCH  17  21
ENDBRANCH  16  17
ENDBRANCH  14  15
ENDBRANCH  13  14
ENDBRANCH  10  12
ENDBRANCH   7   8
ENDBRANCH   4   6
BRANCH   3  23
ATOM     23  O   UNL     1      59.555 224.937 325.621  0.00  0.00    +0.000 OA
ATOM     24  H   UNL     1      58.616 225.030 325.371  0.00  0.00    +0.000 HD
ENDBRANCH   3  23
ENDBRANCH   2   3
BRANCH   1  25
ATOM     25  C   UNL     1      62.333 222.549 328.638  0.00  0.00    +0.000 C 
ATOM     26  C   UNL     1      63.113 222.265 329.503  0.00  0.00    +0.000 C 
BRANCH  26  27
ATOM     27  C   UNL     1      64.117 221.914 330.607  0.00  0.00    +0.000 C 
BRANCH  27  28
ATOM     28  N   UNL     1      64.997 221.587 331.577  0.00  0.00    +0.000 N 
ATOM     29  C   UNL     1      65.267 220.354 332.122  0.00  0.00    +0.000 C 
ATOM     30  O   UNL     1      64.733 219.300 331.807  0.00  0.00    +0.000 OA
ATOM     31  H   UNL     1      65.529 222.369 331.939  0.00  0.00    +0.000 HD
BRANCH  29  32
ATOM     32  C   UNL     1      66.278 220.344 333.152  0.00  0.00    +0.000 C 
ATOM     33  C   UNL     1      67.113 220.313 334.015  0.00  0.00    +0.000 C 
BRANCH  33  34
ATOM     34  C   UNL     1      68.122 220.253 335.052  0.00  0.00    +0.000 C 
ATOM     35  O   UNL     1      69.298 220.271 334.703  0.00  0.00    +0.000 OA
ATOM     36  N   UNL     1      67.686 220.141 336.362  0.00  0.00    +0.000 N 
BRANCH  36  37
ATOM     37  C   UNL     1      68.366 220.207 337.524  0.00  0.00    +0.000 C 
ATOM     38  C   UNL     1      68.973 220.263 338.559  0.00  0.00    +0.000 C 
BRANCH  38  39
ATOM     39  C   UNL     1      69.744 220.327 339.881  0.00  0.00    +0.000 C 
ATOM     40  C   UNL     1      70.343 220.378 340.919  0.00  0.00    +0.000 C 
BRANCH  40  41
ATOM     41  C   UNL     1      71.104 220.443 342.246  0.00  0.00    +0.000 C 
BRANCH  41  42
ATOM     42  N   UNL     1      71.827 220.503 343.506  0.00  0.00    +0.000 NA
ATOM     43  H   UNL     1      71.847 221.459 343.858  0.00  0.00    +0.000 HD
ATOM     44  H   UNL     1      71.349 219.951 344.217  0.00  0.00    +0.000 HD
ENDBRANCH  41  42
ENDBRANCH  40  41
ENDBRANCH  38  39
ENDBRANCH  36  37
BRANCH  36  45
ATOM     45  O   UNL     1      66.309 220.344 336.610  0.00  0.00    +0.000 OA
ATOM     46  H   UNL     1      66.282 221.306 336.770  0.00  0.00    +0.000 HD
ENDBRANCH  36  45
ENDBRANCH  33  34
ENDBRANCH  29  32
ENDBRANCH  27  28
ENDBRANCH  26  27
ENDBRANCH   1  25
TORSDOF 19
ENDMDL
MODEL 3
REMARK VINA RESULT:      -4.6      5.648     13.025
REMARK  Name = Deferoxamine.pdbqt.pdb
REMARK  19 active torsions:
REMARK  status: ('A' for Active; 'I' for Inactive)
REMARK    1  A    between atoms: C_1  and  C_2
REMARK    2  A    between atoms: C_3  and  C_4
REMARK    3  A    between atoms: C_4  and  N_5
REMARK    4  A    between atoms: C_6  and  C_9
REMARK    5  A    between atoms: C_10  and  C_11
REMARK    6  A    between atoms: N_13  and  O_14
REMARK    7  A    between atoms: N_13  and  C_16
REMARK    8  A    between atoms: C_17  and  C_18
REMARK    9  A    between atoms: C_19  and  C_20
REMARK   10  A    between atoms: C_20  and  N_21
REMARK   11  A    between atoms: C_24  and  N_25
REMARK   12  A    between atoms: N_25  and  O_28
REMARK   13  A    between atoms: C_26  and  C_30
REMARK   14  A    between atoms: C_31  and  C_32
REMARK   15  A    between atoms: N_34  and  C_36
REMARK   16  A    between atoms: C_37  and  C_38
REMARK   17  A    between atoms: C_38  and  C_39
REMARK   18  A    between atoms: C_40  and  N_41
REMARK   19  A    between atoms: N_41  and  O_45
REMARK                            x       y       z     vdW  Elec       q    Type
REMARK                         _______ _______ _______ _____ _____    ______ ____
ROOT
ATOM      1  C   UNL     1      68.325 220.172 337.923  0.00  0.00    +0.000 C 
ATOM      2  C   UNL     1      68.909 220.097 338.969  0.00  0.00    +0.000 C 
ENDROOT
BRANCH   2   3
ATOM      3  N   UNL     1      69.567 220.014 340.145  0.00  0.00    +0.000 N 
ATOM      4  C   UNL     1      70.597 220.782 340.658  0.00  0.00    +0.000 C 
ATOM      5  O   UNL     1      71.235 221.614 340.022  0.00  0.00    +0.000 OA
BRANCH   4   6
ATOM      6  C   UNL     1      70.971 220.558 342.040  0.00  0.00    +0.000 C 
ATOM      7  C   UNL     1      71.271 220.383 343.190  0.00  0.00    +0.000 C 
BRANCH   7   8
ATOM      8  C   UNL     1      71.626 220.194 344.575  0.00  0.00    +0.000 C 
ATOM      9  O   UNL     1      72.527 219.416 344.855  0.00  0.00    +0.000 OA
ATOM     10  N   UNL     1      70.891 220.933 345.474  0.00  0.00    +0.000 N 
ATOM     11  H   UNL     1      70.181 221.537 345.081  0.00  0.00    +0.000 HD
BRANCH  10  12
ATOM     12  C   UNL     1      70.986 220.973 346.821  0.00  0.00    +0.000 C 
ATOM     13  C   UNL     1      71.069 221.014 348.017  0.00  0.00    +0.000 C 
BRANCH  13  14
ATOM     14  C   UNL     1      71.173 221.076 349.544  0.00  0.00    +0.000 C 
BRANCH  14  15
ATOM     15  C   UNL     1      71.271 221.131 351.071  0.00  0.00    +0.000 C 
ATOM     16  C   UNL     1      71.351 221.174 352.269  0.00  0.00    +0.000 C 
BRANCH  16  17
ATOM     17  N   UNL     1      71.447 221.226 353.611  0.00  0.00    +0.000 N 
ATOM     18  C   UNL     1      71.366 220.238 354.564  0.00  0.00    +0.000 C 
ATOM     19  O   UNL     1      71.188 219.039 354.438  0.00  0.00    +0.000 OA
ATOM     20  C   UNL     1      71.511 220.606 356.020  0.00  0.00    +0.000 C 
BRANCH  17  21
ATOM     21  O   UNL     1      71.663 222.569 354.014  0.00  0.00    +0.000 OA
ATOM     22  H   UNL     1      71.247 223.086 353.294  0.00  0.00    +0.000 HD
ENDBRANCH  17  21
ENDBRANCH  16  17
ENDBRANCH  14  15
ENDBRANCH  13  14
ENDBRANCH  10  12
ENDBRANCH   7   8
ENDBRANCH   4   6
BRANCH   3  23
ATOM     23  O   UNL     1      68.798 219.258 341.059  0.00  0.00    +0.000 OA
ATOM     24  H   UNL     1      69.494 218.859 341.614  0.00  0.00    +0.000 HD
ENDBRANCH   3  23
ENDBRANCH   2   3
BRANCH   1  25
ATOM     25  C   UNL     1      67.593 220.264 336.581  0.00  0.00    +0.000 C 
ATOM     26  C   UNL     1      67.008 220.338 335.536  0.00  0.00    +0.000 C 
BRANCH  26  27
ATOM     27  C   UNL     1      66.249 220.433 334.209  0.00  0.00    +0.000 C 
BRANCH  27  28
ATOM     28  N   UNL     1      65.564 220.512 333.047  0.00  0.00    +0.000 N 
ATOM     29  C   UNL     1      64.963 219.508 332.325  0.00  0.00    +0.000 C 
ATOM     30  O   UNL     1      64.948 218.323 332.625  0.00  0.00    +0.000 OA
ATOM     31  H   UNL     1      65.485 221.449 332.673  0.00  0.00    +0.000 HD
BRANCH  29  32
ATOM     32  C   UNL     1      64.302 219.930 331.115  0.00  0.00    +0.000 C 
ATOM     33  C   UNL     1      63.765 220.267 330.094  0.00  0.00    +0.000 C 
BRANCH  33  34
ATOM     34  C   UNL     1      63.122 220.653 328.855  0.00  0.00    +0.000 C 
ATOM     35  O   UNL     1      63.687 220.362 327.806  0.00  0.00    +0.000 OA
ATOM     36  N   UNL     1      61.932 221.356 328.946  0.00  0.00    +0.000 N 
BRANCH  36  37
ATOM     37  C   UNL     1      61.049 221.717 327.993  0.00  0.00    +0.000 C 
ATOM     38  C   UNL     1      60.263 222.035 327.143  0.00  0.00    +0.000 C 
BRANCH  38  39
ATOM     39  C   UNL     1      59.265 222.439 326.053  0.00  0.00    +0.000 C 
ATOM     40  C   UNL     1      58.487 222.756 325.196  0.00  0.00    +0.000 C 
BRANCH  40  41
ATOM     41  C   UNL     1      57.498 223.162 324.100  0.00  0.00    +0.000 C 
BRANCH  41  42
ATOM     42  N   UNL     1      56.559 223.547 323.060  0.00  0.00    +0.000 NA
ATOM     43  H   UNL     1      56.367 224.547 323.107  0.00  0.00    +0.000 HD
ATOM     44  H   UNL     1      56.961 223.381 322.138  0.00  0.00    +0.000 HD
ENDBRANCH  41  42
ENDBRANCH  40  41
ENDBRANCH  38  39
ENDBRANCH  36  37
BRANCH  36  45
ATOM     45  O   UNL     1      61.311 221.426 330.214  0.00  0.00    +0.000 OA
ATOM     46  H   UNL     1      60.472 221.872 329.994  0.00  0.00    +0.000 HD
ENDBRANCH  36  45
ENDBRANCH  33  34
ENDBRANCH  29  32
ENDBRANCH  27  28
ENDBRANCH  26  27
ENDBRANCH   1  25
TORSDOF 19
ENDMDL
MODEL 4
REMARK VINA RESULT:      -4.5      3.631     21.695
REMARK  Name = Deferoxamine.pdbqt.pdb
REMARK  19 active torsions:
REMARK  status: ('A' for Active; 'I' for Inactive)
REMARK    1  A    between atoms: C_1  and  C_2
REMARK    2  A    between atoms: C_3  and  C_4
REMARK    3  A    between atoms: C_4  and  N_5
REMARK    4  A    between atoms: C_6  and  C_9
REMARK    5  A    between atoms: C_10  and  C_11
REMARK    6  A    between atoms: N_13  and  O_14
REMARK    7  A    between atoms: N_13  and  C_16
REMARK    8  A    between atoms: C_17  and  C_18
REMARK    9  A    between atoms: C_19  and  C_20
REMARK   10  A    between atoms: C_20  and  N_21
REMARK   11  A    between atoms: C_24  and  N_25
REMARK   12  A    between atoms: N_25  and  O_28
REMARK   13  A    between atoms: C_26  and  C_30
REMARK   14  A    between atoms: C_31  and  C_32
REMARK   15  A    between atoms: N_34  and  C_36
REMARK   16  A    between atoms: C_37  and  C_38
REMARK   17  A    between atoms: C_38  and  C_39
REMARK   18  A    between atoms: C_40  and  N_41
REMARK   19  A    between atoms: N_41  and  O_45
REMARK                            x       y       z     vdW  Elec       q    Type
REMARK                         _______ _______ _______ _____ _____    ______ ____
ROOT
ATOM      1  C   UNL     1      61.205 222.934 327.292  0.00  0.00    +0.000 C 
ATOM      2  C   UNL     1      60.432 223.227 326.421  0.00  0.00    +0.000 C 
ENDROOT
BRANCH   2   3
ATOM      3  N   UNL     1      59.562 223.556 325.443  0.00  0.00    +0.000 N 
ATOM      4  C   UNL     1      58.632 222.786 324.766  0.00  0.00    +0.000 C 
ATOM      5  O   UNL     1      58.554 221.564 324.831  0.00  0.00    +0.000 OA
BRANCH   4   6
ATOM      6  C   UNL     1      57.707 223.475 323.890  0.00  0.00    +0.000 C 
ATOM      7  C   UNL     1      56.930 224.043 323.171  0.00  0.00    +0.000 C 
BRANCH   7   8
ATOM      8  C   UNL     1      55.980 224.709 322.315  0.00  0.00    +0.000 C 
ATOM      9  O   UNL     1      56.104 225.909 322.112  0.00  0.00    +0.000 OA
ATOM     10  N   UNL     1      54.993 223.903 321.794  0.00  0.00    +0.000 N 
ATOM     11  H   UNL     1      55.031 222.925 322.055  0.00  0.00    +0.000 HD
BRANCH  10  12
ATOM     12  C   UNL     1      53.973 224.229 320.971  0.00  0.00    +0.000 C 
ATOM     13  C   UNL     1      53.064 224.515 320.242  0.00  0.00    +0.000 C 
BRANCH  13  14
ATOM     14  C   UNL     1      51.897 224.875 319.317  0.00  0.00    +0.000 C 
BRANCH  14  15
ATOM     15  C   UNL     1      50.727 225.227 318.394  0.00  0.00    +0.000 C 
ATOM     16  C   UNL     1      49.812 225.503 317.668  0.00  0.00    +0.000 C 
BRANCH  16  17
ATOM     17  N   UNL     1      48.789 225.810 316.847  0.00  0.00    +0.000 N 
ATOM     18  C   UNL     1      47.592 226.442 317.088  0.00  0.00    +0.000 C 
ATOM     19  O   UNL     1      47.142 226.900 318.124  0.00  0.00    +0.000 OA
ATOM     20  C   UNL     1      46.624 226.645 315.950  0.00  0.00    +0.000 C 
BRANCH  17  21
ATOM     21  O   UNL     1      49.089 225.360 315.535  0.00  0.00    +0.000 OA
ATOM     22  H   UNL     1      49.978 224.961 315.635  0.00  0.00    +0.000 HD
ENDBRANCH  17  21
ENDBRANCH  16  17
ENDBRANCH  14  15
ENDBRANCH  13  14
ENDBRANCH  10  12
ENDBRANCH   7   8
ENDBRANCH   4   6
BRANCH   3  23
ATOM     23  O   UNL     1      59.384 224.958 325.427  0.00  0.00    +0.000 OA
ATOM     24  H   UNL     1      58.447 225.031 325.164  0.00  0.00    +0.000 HD
ENDBRANCH   3  23
ENDBRANCH   2   3
BRANCH   1  25
ATOM     25  C   UNL     1      62.186 222.545 328.401  0.00  0.00    +0.000 C 
ATOM     26  C   UNL     1      62.961 222.252 329.269  0.00  0.00    +0.000 C 
BRANCH  26  27
ATOM     27  C   UNL     1      63.957 221.891 330.376  0.00  0.00    +0.000 C 
BRANCH  27  28
ATOM     28  N   UNL     1      64.832 221.555 331.349  0.00  0.00    +0.000 N 
ATOM     29  C   UNL     1      65.106 220.316 331.877  0.00  0.00    +0.000 C 
ATOM     30  O   UNL     1      64.582 219.263 331.541  0.00  0.00    +0.000 OA
ATOM     31  H   UNL     1      65.355 222.335 331.727  0.00  0.00    +0.000 HD
BRANCH  29  32
ATOM     32  C   UNL     1      66.107 220.296 332.915  0.00  0.00    +0.000 C 
ATOM     33  C   UNL     1      66.935 220.258 333.785  0.00  0.00    +0.000 C 
BRANCH  33  34
ATOM     34  C   UNL     1      67.936 220.189 334.830  0.00  0.00    +0.000 C 
ATOM     35  O   UNL     1      69.115 220.200 334.490  0.00  0.00    +0.000 OA
ATOM     36  N   UNL     1      67.488 220.076 336.135  0.00  0.00    +0.000 N 
BRANCH  36  37
ATOM     37  C   UNL     1      68.160 220.135 337.304  0.00  0.00    +0.000 C 
ATOM     38  C   UNL     1      68.759 220.191 338.342  0.00  0.00    +0.000 C 
BRANCH  38  39
ATOM     39  C   UNL     1      69.529 220.264 339.665  0.00  0.00    +0.000 C 
ATOM     40  C   UNL     1      70.136 220.318 340.698  0.00  0.00    +0.000 C 
BRANCH  40  41
ATOM     41  C   UNL     1      70.913 220.384 342.016  0.00  0.00    +0.000 C 
BRANCH  41  42
ATOM     42  N   UNL     1      71.650 220.448 343.267  0.00  0.00    +0.000 NA
ATOM     43  H   UNL     1      72.527 220.951 343.138  0.00  0.00    +0.000 HD
ATOM     44  H   UNL     1      71.124 220.973 343.964  0.00  0.00    +0.000 HD
ENDBRANCH  41  42
ENDBRANCH  40  41
ENDBRANCH  38  39
ENDBRANCH  36  37
BRANCH  36  45
ATOM     45  O   UNL     1      66.111 220.288 336.373  0.00  0.00    +0.000 OA
ATOM     46  H   UNL     1      66.089 221.249 336.535  0.00  0.00    +0.000 HD
ENDBRANCH  36  45
ENDBRANCH  33  34
ENDBRANCH  29  32
ENDBRANCH  27  28
ENDBRANCH  26  27
ENDBRANCH   1  25
TORSDOF 19
ENDMDL
MODEL 5
REMARK VINA RESULT:      -4.3     11.074     22.361
REMARK  Name = Deferoxamine.pdbqt.pdb
REMARK  19 active torsions:
REMARK  status: ('A' for Active; 'I' for Inactive)
REMARK    1  A    between atoms: C_1  and  C_2
REMARK    2  A    between atoms: C_3  and  C_4
REMARK    3  A    between atoms: C_4  and  N_5
REMARK    4  A    between atoms: C_6  and  C_9
REMARK    5  A    between atoms: C_10  and  C_11
REMARK    6  A    between atoms: N_13  and  O_14
REMARK    7  A    between atoms: N_13  and  C_16
REMARK    8  A    between atoms: C_17  and  C_18
REMARK    9  A    between atoms: C_19  and  C_20
REMARK   10  A    between atoms: C_20  and  N_21
REMARK   11  A    between atoms: C_24  and  N_25
REMARK   12  A    between atoms: N_25  and  O_28
REMARK   13  A    between atoms: C_26  and  C_30
REMARK   14  A    between atoms: C_31  and  C_32
REMARK   15  A    between atoms: N_34  and  C_36
REMARK   16  A    between atoms: C_37  and  C_38
REMARK   17  A    between atoms: C_38  and  C_39
REMARK   18  A    between atoms: C_40  and  N_41
REMARK   19  A    between atoms: N_41  and  O_45
REMARK                            x       y       z     vdW  Elec       q    Type
REMARK                         _______ _______ _______ _____ _____    ______ ____
ROOT
ATOM      1  C   UNL     1      67.629 220.066 337.518  0.00  0.00    +0.000 C 
ATOM      2  C   UNL     1      66.671 219.510 337.053  0.00  0.00    +0.000 C 
ENDROOT
BRANCH   2   3
ATOM      3  N   UNL     1      65.596 218.885 336.530  0.00  0.00    +0.000 N 
ATOM      4  C   UNL     1      65.013 217.671 336.851  0.00  0.00    +0.000 C 
ATOM      5  O   UNL     1      65.504 216.835 337.602  0.00  0.00    +0.000 OA
BRANCH   4   6
ATOM      6  C   UNL     1      63.745 217.354 336.227  0.00  0.00    +0.000 C 
ATOM      7  C   UNL     1      62.695 217.102 335.700  0.00  0.00    +0.000 C 
BRANCH   7   8
ATOM      8  C   UNL     1      61.432 216.822 335.063  0.00  0.00    +0.000 C 
ATOM      9  O   UNL     1      61.308 215.789 334.420  0.00  0.00    +0.000 OA
ATOM     10  N   UNL     1      60.458 217.777 335.248  0.00  0.00    +0.000 N 
ATOM     11  H   UNL     1      60.717 218.576 335.813  0.00  0.00    +0.000 HD
BRANCH  10  12
ATOM     12  C   UNL     1      59.190 217.800 334.784  0.00  0.00    +0.000 C 
ATOM     13  C   UNL     1      58.065 217.823 334.367  0.00  0.00    +0.000 C 
BRANCH  13  14
ATOM     14  C   UNL     1      56.632 217.858 333.827  0.00  0.00    +0.000 C 
BRANCH  14  15
ATOM     15  C   UNL     1      55.198 217.884 333.289  0.00  0.00    +0.000 C 
ATOM     16  C   UNL     1      54.074 217.902 332.867  0.00  0.00    +0.000 C 
BRANCH  16  17
ATOM     17  N   UNL     1      52.812 217.915 332.398  0.00  0.00    +0.000 N 
ATOM     18  C   UNL     1      51.737 217.101 332.665  0.00  0.00    +0.000 C 
ATOM     19  O   UNL     1      51.646 216.142 333.411  0.00  0.00    +0.000 OA
ATOM     20  C   UNL     1      50.423 217.364 331.971  0.00  0.00    +0.000 C 
BRANCH  17  21
ATOM     21  O   UNL     1      52.666 218.985 331.476  0.00  0.00    +0.000 OA
ATOM     22  H   UNL     1      52.102 219.621 331.962  0.00  0.00    +0.000 HD
ENDBRANCH  17  21
ENDBRANCH  16  17
ENDBRANCH  14  15
ENDBRANCH  13  14
ENDBRANCH  10  12
ENDBRANCH   7   8
ENDBRANCH   4   6
BRANCH   3  23
ATOM     23  O   UNL     1      64.807 219.821 335.824  0.00  0.00    +0.000 OA
ATOM     24  H   UNL     1      65.247 220.659 336.056  0.00  0.00    +0.000 HD
ENDBRANCH   3  23
ENDBRANCH   2   3
BRANCH   1  25
ATOM     25  C   UNL     1      68.858 220.770 338.099  0.00  0.00    +0.000 C 
ATOM     26  C   UNL     1      69.826 221.309 338.560  0.00  0.00    +0.000 C 
BRANCH  26  27
ATOM     27  C   UNL     1      71.065 221.986 339.154  0.00  0.00    +0.000 C 
BRANCH  27  28
ATOM     28  N   UNL     1      72.165 222.566 339.683  0.00  0.00    +0.000 N 
ATOM     29  C   UNL     1      72.925 222.164 340.756  0.00  0.00    +0.000 C 
ATOM     30  O   UNL     1      72.726 221.171 341.441  0.00  0.00    +0.000 OA
ATOM     31  H   UNL     1      72.460 223.409 339.208  0.00  0.00    +0.000 HD
BRANCH  29  32
ATOM     32  C   UNL     1      74.049 223.013 341.066  0.00  0.00    +0.000 C 
ATOM     33  C   UNL     1      74.984 223.729 341.303  0.00  0.00    +0.000 C 
BRANCH  33  34
ATOM     34  C   UNL     1      76.102 224.609 341.574  0.00  0.00    +0.000 C 
ATOM     35  O   UNL     1      77.048 224.586 340.792  0.00  0.00    +0.000 OA
ATOM     36  N   UNL     1      76.040 225.386 342.719  0.00  0.00    +0.000 N 
BRANCH  36  37
ATOM     37  C   UNL     1      76.842 226.381 343.152  0.00  0.00    +0.000 C 
ATOM     38  C   UNL     1      77.553 227.266 343.540  0.00  0.00    +0.000 C 
BRANCH  38  39
ATOM     39  C   UNL     1      78.456 228.399 344.039  0.00  0.00    +0.000 C 
ATOM     40  C   UNL     1      79.166 229.282 344.433  0.00  0.00    +0.000 C 
BRANCH  40  41
ATOM     41  C   UNL     1      80.072 230.407 344.940  0.00  0.00    +0.000 C 
BRANCH  41  42
ATOM     42  N   UNL     1      80.933 231.476 345.421  0.00  0.00    +0.000 NA
ATOM     43  H   UNL     1      80.374 232.250 345.776  0.00  0.00    +0.000 HD
ATOM     44  H   UNL     1      81.496 231.152 346.205  0.00  0.00    +0.000 HD
ENDBRANCH  41  42
ENDBRANCH  40  41
ENDBRANCH  38  39
ENDBRANCH  36  37
BRANCH  36  45
ATOM     45  O   UNL     1      74.802 225.451 343.396  0.00  0.00    +0.000 OA
ATOM     46  H   UNL     1      74.255 225.939 342.752  0.00  0.00    +0.000 HD
ENDBRANCH  36  45
ENDBRANCH  33  34
ENDBRANCH  29  32
ENDBRANCH  27  28
ENDBRANCH  26  27
ENDBRANCH   1  25
TORSDOF 19
ENDMDL
MODEL 6
REMARK VINA RESULT:      -4.2      5.657     24.393
REMARK  Name = Deferoxamine.pdbqt.pdb
REMARK  19 active torsions:
REMARK  status: ('A' for Active; 'I' for Inactive)
REMARK    1  A    between atoms: C_1  and  C_2
REMARK    2  A    between atoms: C_3  and  C_4
REMARK    3  A    between atoms: C_4  and  N_5
REMARK    4  A    between atoms: C_6  and  C_9
REMARK    5  A    between atoms: C_10  and  C_11
REMARK    6  A    between atoms: N_13  and  O_14
REMARK    7  A    between atoms: N_13  and  C_16
REMARK    8  A    between atoms: C_17  and  C_18
REMARK    9  A    between atoms: C_19  and  C_20
REMARK   10  A    between atoms: C_20  and  N_21
REMARK   11  A    between atoms: C_24  and  N_25
REMARK   12  A    between atoms: N_25  and  O_28
REMARK   13  A    between atoms: C_26  and  C_30
REMARK   14  A    between atoms: C_31  and  C_32
REMARK   15  A    between atoms: N_34  and  C_36
REMARK   16  A    between atoms: C_37  and  C_38
REMARK   17  A    between atoms: C_38  and  C_39
REMARK   18  A    between atoms: C_40  and  N_41
REMARK   19  A    between atoms: N_41  and  O_45
REMARK                            x       y       z     vdW  Elec       q    Type
REMARK                         _______ _______ _______ _____ _____    ______ ____
ROOT
ATOM      1  C   UNL     1      68.546 220.119 338.434  0.00  0.00    +0.000 C 
ATOM      2  C   UNL     1      68.030 220.188 337.352  0.00  0.00    +0.000 C 
ENDROOT
BRANCH   2   3
ATOM      3  N   UNL     1      67.451 220.268 336.136  0.00  0.00    +0.000 N 
ATOM      4  C   UNL     1      67.995 220.152 334.868  0.00  0.00    +0.000 C 
ATOM      5  O   UNL     1      69.196 220.120 334.621  0.00  0.00    +0.000 OA
BRANCH   4   6
ATOM      6  C   UNL     1      67.076 220.101 333.750  0.00  0.00    +0.000 C 
ATOM      7  C   UNL     1      66.314 220.073 332.821  0.00  0.00    +0.000 C 
BRANCH   7   8
ATOM      8  C   UNL     1      65.391 220.059 331.713  0.00  0.00    +0.000 C 
ATOM      9  O   UNL     1      65.407 219.113 330.939  0.00  0.00    +0.000 OA
ATOM     10  N   UNL     1      64.555 221.150 331.633  0.00  0.00    +0.000 N 
ATOM     11  H   UNL     1      64.663 221.850 332.357  0.00  0.00    +0.000 HD
BRANCH  10  12
ATOM     12  C   UNL     1      63.596 221.422 330.722  0.00  0.00    +0.000 C 
ATOM     13  C   UNL     1      62.744 221.659 329.910  0.00  0.00    +0.000 C 
BRANCH  13  14
ATOM     14  C   UNL     1      61.655 221.951 328.874  0.00  0.00    +0.000 C 
BRANCH  14  15
ATOM     15  C   UNL     1      60.560 222.243 327.844  0.00  0.00    +0.000 C 
ATOM     16  C   UNL     1      59.701 222.468 327.036  0.00  0.00    +0.000 C 
BRANCH  16  17
ATOM     17  N   UNL     1      58.735 222.715 326.130  0.00  0.00    +0.000 N 
ATOM     18  C   UNL     1      58.762 223.408 324.943  0.00  0.00    +0.000 C 
ATOM     19  O   UNL     1      59.683 223.985 324.392  0.00  0.00    +0.000 OA
ATOM     20  C   UNL     1      57.498 223.521 324.128  0.00  0.00    +0.000 C 
BRANCH  17  21
ATOM     21  O   UNL     1      57.522 222.121 326.565  0.00  0.00    +0.000 OA
ATOM     22  H   UNL     1      57.669 221.167 326.398  0.00  0.00    +0.000 HD
ENDBRANCH  17  21
ENDBRANCH  16  17
ENDBRANCH  14  15
ENDBRANCH  13  14
ENDBRANCH  10  12
ENDBRANCH   7   8
ENDBRANCH   4   6
BRANCH   3  23
ATOM     23  O   UNL     1      66.057 220.077 336.267  0.00  0.00    +0.000 OA
ATOM     24  H   UNL     1      65.849 220.673 337.010  0.00  0.00    +0.000 HD
ENDBRANCH   3  23
ENDBRANCH   2   3
BRANCH   1  25
ATOM     25  C   UNL     1      69.197 220.044 339.818  0.00  0.00    +0.000 C 
ATOM     26  C   UNL     1      69.703 219.998 340.905  0.00  0.00    +0.000 C 
BRANCH  26  27
ATOM     27  C   UNL     1      70.344 219.953 342.296  0.00  0.00    +0.000 C 
BRANCH  27  28
ATOM     28  N   UNL     1      70.894 219.919 343.529  0.00  0.00    +0.000 N 
ATOM     29  C   UNL     1      72.175 220.235 343.915  0.00  0.00    +0.000 C 
ATOM     30  O   UNL     1      73.071 220.614 343.176  0.00  0.00    +0.000 OA
ATOM     31  H   UNL     1      70.259 219.625 344.261  0.00  0.00    +0.000 HD
BRANCH  29  32
ATOM     32  C   UNL     1      72.445 220.095 345.325  0.00  0.00    +0.000 C 
ATOM     33  C   UNL     1      72.656 219.997 346.504  0.00  0.00    +0.000 C 
BRANCH  33  34
ATOM     34  C   UNL     1      72.889 219.887 347.929  0.00  0.00    +0.000 C 
ATOM     35  O   UNL     1      74.019 219.583 348.299  0.00  0.00    +0.000 OA
ATOM     36  N   UNL     1      71.809 220.095 348.770  0.00  0.00    +0.000 N 
BRANCH  36  37
ATOM     37  C   UNL     1      71.748 220.201 350.114  0.00  0.00    +0.000 C 
ATOM     38  C   UNL     1      71.696 220.292 351.309  0.00  0.00    +0.000 C 
BRANCH  38  39
ATOM     39  C   UNL     1      71.632 220.403 352.836  0.00  0.00    +0.000 C 
ATOM     40  C   UNL     1      71.586 220.492 354.032  0.00  0.00    +0.000 C 
BRANCH  40  41
ATOM     41  C   UNL     1      71.530 220.608 355.557  0.00  0.00    +0.000 C 
BRANCH  41  42
ATOM     42  N   UNL     1      71.478 220.718 357.006  0.00  0.00    +0.000 NA
ATOM     43  H   UNL     1      72.220 220.166 357.432  0.00  0.00    +0.000 HD
ATOM     44  H   UNL     1      71.643 221.681 357.295  0.00  0.00    +0.000 HD
ENDBRANCH  41  42
ENDBRANCH  40  41
ENDBRANCH  38  39
ENDBRANCH  36  37
BRANCH  36  45
ATOM     45  O   UNL     1      70.636 220.640 348.202  0.00  0.00    +0.000 OA
ATOM     46  H   UNL     1      70.168 220.962 348.994  0.00  0.00    +0.000 HD
ENDBRANCH  36  45
ENDBRANCH  33  34
ENDBRANCH  29  32
ENDBRANCH  27  28
ENDBRANCH  26  27
ENDBRANCH   1  25
TORSDOF 19
ENDMDL
MODEL 7
REMARK VINA RESULT:      -4.2     11.118     20.857
REMARK  Name = Deferoxamine.pdbqt.pdb
REMARK  19 active torsions:
REMARK  status: ('A' for Active; 'I' for Inactive)
REMARK    1  A    between atoms: C_1  and  C_2
REMARK    2  A    between atoms: C_3  and  C_4
REMARK    3  A    between atoms: C_4  and  N_5
REMARK    4  A    between atoms: C_6  and  C_9
REMARK    5  A    between atoms: C_10  and  C_11
REMARK    6  A    between atoms: N_13  and  O_14
REMARK    7  A    between atoms: N_13  and  C_16
REMARK    8  A    between atoms: C_17  and  C_18
REMARK    9  A    between atoms: C_19  and  C_20
REMARK   10  A    between atoms: C_20  and  N_21
REMARK   11  A    between atoms: C_24  and  N_25
REMARK   12  A    between atoms: N_25  and  O_28
REMARK   13  A    between atoms: C_26  and  C_30
REMARK   14  A    between atoms: C_31  and  C_32
REMARK   15  A    between atoms: N_34  and  C_36
REMARK   16  A    between atoms: C_37  and  C_38
REMARK   17  A    between atoms: C_38  and  C_39
REMARK   18  A    between atoms: C_40  and  N_41
REMARK   19  A    between atoms: N_41  and  O_45
REMARK                            x       y       z     vdW  Elec       q    Type
REMARK                         _______ _______ _______ _____ _____    ______ ____
ROOT
ATOM      1  C   UNL     1      67.762 220.125 336.212  0.00  0.00    +0.000 C 
ATOM      2  C   UNL     1      66.745 219.501 336.072  0.00  0.00    +0.000 C 
ENDROOT
BRANCH   2   3
ATOM      3  N   UNL     1      65.604 218.798 335.915  0.00  0.00    +0.000 N 
ATOM      4  C   UNL     1      65.118 217.701 336.605  0.00  0.00    +0.000 C 
ATOM      5  O   UNL     1      65.759 217.043 337.417  0.00  0.00    +0.000 OA
BRANCH   4   6
ATOM      6  C   UNL     1      63.761 217.281 336.319  0.00  0.00    +0.000 C 
ATOM      7  C   UNL     1      62.638 216.937 336.068  0.00  0.00    +0.000 C 
BRANCH   7   8
ATOM      8  C   UNL     1      61.288 216.541 335.752  0.00  0.00    +0.000 C 
ATOM      9  O   UNL     1      60.915 215.415 336.049  0.00  0.00    +0.000 OA
ATOM     10  N   UNL     1      60.527 217.502 335.126  0.00  0.00    +0.000 N 
ATOM     11  H   UNL     1      60.982 218.389 334.953  0.00  0.00    +0.000 HD
BRANCH  10  12
ATOM     12  C   UNL     1      59.244 217.433 334.708  0.00  0.00    +0.000 C 
ATOM     13  C   UNL     1      58.103 217.376 334.341  0.00  0.00    +0.000 C 
BRANCH  13  14
ATOM     14  C   UNL     1      56.645 217.313 333.874  0.00  0.00    +0.000 C 
BRANCH  14  15
ATOM     15  C   UNL     1      55.190 217.242 333.404  0.00  0.00    +0.000 C 
ATOM     16  C   UNL     1      54.049 217.184 333.034  0.00  0.00    +0.000 C 
BRANCH  16  17
ATOM     17  N   UNL     1      52.769 217.112 332.620  0.00  0.00    +0.000 N 
ATOM     18  C   UNL     1      52.030 217.941 331.810  0.00  0.00    +0.000 C 
ATOM     19  O   UNL     1      52.349 218.971 331.243  0.00  0.00    +0.000 OA
ATOM     20  C   UNL     1      50.590 217.598 331.522  0.00  0.00    +0.000 C 
BRANCH  17  21
ATOM     21  O   UNL     1      52.164 215.952 333.170  0.00  0.00    +0.000 OA
ATOM     22  H   UNL     1      51.318 216.292 333.528  0.00  0.00    +0.000 HD
ENDBRANCH  17  21
ENDBRANCH  16  17
ENDBRANCH  14  15
ENDBRANCH  13  14
ENDBRANCH  10  12
ENDBRANCH   7   8
ENDBRANCH   4   6
BRANCH   3  23
ATOM     23  O   UNL     1      64.676 219.570 335.180  0.00  0.00    +0.000 OA
ATOM     24  H   UNL     1      63.832 219.293 335.583  0.00  0.00    +0.000 HD
ENDBRANCH   3  23
ENDBRANCH   2   3
BRANCH   1  25
ATOM     25  C   UNL     1      69.064 220.913 336.378  0.00  0.00    +0.000 C 
ATOM     26  C   UNL     1      70.078 221.541 336.506  0.00  0.00    +0.000 C 
BRANCH  26  27
ATOM     27  C   UNL     1      71.365 222.356 336.667  0.00  0.00    +0.000 C 
BRANCH  27  28
ATOM     28  N   UNL     1      72.501 223.070 336.827  0.00  0.00    +0.000 N 
ATOM     29  C   UNL     1      73.433 223.436 335.886  0.00  0.00    +0.000 C 
ATOM     30  O   UNL     1      73.391 223.166 334.694  0.00  0.00    +0.000 OA
ATOM     31  H   UNL     1      72.671 223.376 337.777  0.00  0.00    +0.000 HD
BRANCH  29  32
ATOM     32  C   UNL     1      74.544 224.209 336.387  0.00  0.00    +0.000 C 
ATOM     33  C   UNL     1      75.455 224.872 336.804  0.00  0.00    +0.000 C 
BRANCH  33  34
ATOM     34  C   UNL     1      76.539 225.685 337.316  0.00  0.00    +0.000 C 
ATOM     35  O   UNL     1      77.589 225.699 336.681  0.00  0.00    +0.000 OA
ATOM     36  N   UNL     1      76.324 226.358 338.507  0.00  0.00    +0.000 N 
BRANCH  36  37
ATOM     37  C   UNL     1      77.072 227.283 339.142  0.00  0.00    +0.000 C 
ATOM     38  C   UNL     1      77.737 228.108 339.706  0.00  0.00    +0.000 C 
BRANCH  38  39
ATOM     39  C   UNL     1      78.585 229.165 340.420  0.00  0.00    +0.000 C 
ATOM     40  C   UNL     1      79.247 229.993 340.984  0.00  0.00    +0.000 C 
BRANCH  40  41
ATOM     41  C   UNL     1      80.089 231.048 341.706  0.00  0.00    +0.000 C 
BRANCH  41  42
ATOM     42  N   UNL     1      80.889 232.049 342.392  0.00  0.00    +0.000 NA
ATOM     43  H   UNL     1      81.567 232.461 341.753  0.00  0.00    +0.000 HD
ATOM     44  H   UNL     1      80.300 232.817 342.710  0.00  0.00    +0.000 HD
ENDBRANCH  41  42
ENDBRANCH  40  41
ENDBRANCH  38  39
ENDBRANCH  36  37
BRANCH  36  45
ATOM     45  O   UNL     1      74.999 226.406 338.998  0.00  0.00    +0.000 OA
ATOM     46  H   UNL     1      75.150 226.615 339.939  0.00  0.00    +0.000 HD
ENDBRANCH  36  45
ENDBRANCH  33  34
ENDBRANCH  29  32
ENDBRANCH  27  28
ENDBRANCH  26  27
ENDBRANCH   1  25
TORSDOF 19
ENDMDL
MODEL 8
REMARK VINA RESULT:      -4.1      4.164      4.886
REMARK  Name = Deferoxamine.pdbqt.pdb
REMARK  19 active torsions:
REMARK  status: ('A' for Active; 'I' for Inactive)
REMARK    1  A    between atoms: C_1  and  C_2
REMARK    2  A    between atoms: C_3  and  C_4
REMARK    3  A    between atoms: C_4  and  N_5
REMARK    4  A    between atoms: C_6  and  C_9
REMARK    5  A    between atoms: C_10  and  C_11
REMARK    6  A    between atoms: N_13  and  O_14
REMARK    7  A    between atoms: N_13  and  C_16
REMARK    8  A    between atoms: C_17  and  C_18
REMARK    9  A    between atoms: C_19  and  C_20
REMARK   10  A    between atoms: C_20  and  N_21
REMARK   11  A    between atoms: C_24  and  N_25
REMARK   12  A    between atoms: N_25  and  O_28
REMARK   13  A    between atoms: C_26  and  C_30
REMARK   14  A    between atoms: C_31  and  C_32
REMARK   15  A    between atoms: N_34  and  C_36
REMARK   16  A    between atoms: C_37  and  C_38
REMARK   17  A    between atoms: C_38  and  C_39
REMARK   18  A    between atoms: C_40  and  N_41
REMARK   19  A    between atoms: N_41  and  O_45
REMARK                            x       y       z     vdW  Elec       q    Type
REMARK                         _______ _______ _______ _____ _____    ______ ____
ROOT
ATOM      1  C   UNL     1      62.466 225.097 326.271  0.00  0.00    +0.000 C 
ATOM      2  C   UNL     1      62.687 224.354 327.189  0.00  0.00    +0.000 C 
ENDROOT
BRANCH   2   3
ATOM      3  N   UNL     1      62.937 223.521 328.220  0.00  0.00    +0.000 N 
ATOM      4  C   UNL     1      63.010 222.139 328.267  0.00  0.00    +0.000 C 
ATOM      5  O   UNL     1      62.677 221.388 327.356  0.00  0.00    +0.000 OA
BRANCH   4   6
ATOM      6  C   UNL     1      63.482 221.538 329.497  0.00  0.00    +0.000 C 
ATOM      7  C   UNL     1      63.878 221.051 330.522  0.00  0.00    +0.000 C 
BRANCH   7   8
ATOM      8  C   UNL     1      64.372 220.483 331.752  0.00  0.00    +0.000 C 
ATOM      9  O   UNL     1      63.811 219.502 332.219  0.00  0.00    +0.000 OA
ATOM     10  N   UNL     1      65.464 221.121 332.296  0.00  0.00    +0.000 N 
ATOM     11  H   UNL     1      65.816 221.920 331.783  0.00  0.00    +0.000 HD
BRANCH  10  12
ATOM     12  C   UNL     1      66.144 220.830 333.426  0.00  0.00    +0.000 C 
ATOM     13  C   UNL     1      66.744 220.575 334.433  0.00  0.00    +0.000 C 
BRANCH  13  14
ATOM     14  C   UNL     1      67.504 220.252 335.724  0.00  0.00    +0.000 C 
BRANCH  14  15
ATOM     15  C   UNL     1      68.263 219.939 337.017  0.00  0.00    +0.000 C 
ATOM     16  C   UNL     1      68.857 219.690 338.029  0.00  0.00    +0.000 C 
BRANCH  16  17
ATOM     17  N   UNL     1      69.527 219.406 339.163  0.00  0.00    +0.000 N 
ATOM     18  C   UNL     1      70.148 220.222 340.078  0.00  0.00    +0.000 C 
ATOM     19  O   UNL     1      70.250 221.436 340.103  0.00  0.00    +0.000 OA
ATOM     20  C   UNL     1      70.834 219.604 341.271  0.00  0.00    +0.000 C 
BRANCH  17  21
ATOM     21  O   UNL     1      69.544 218.000 339.356  0.00  0.00    +0.000 OA
ATOM     22  H   UNL     1      70.400 217.732 338.962  0.00  0.00    +0.000 HD
ENDBRANCH  17  21
ENDBRANCH  16  17
ENDBRANCH  14  15
ENDBRANCH  13  14
ENDBRANCH  10  12
ENDBRANCH   7   8
ENDBRANCH   4   6
BRANCH   3  23
ATOM     23  O   UNL     1      63.555 224.242 329.267  0.00  0.00    +0.000 OA
ATOM     24  H   UNL     1      63.166 225.129 329.146  0.00  0.00    +0.000 HD
ENDBRANCH   3  23
ENDBRANCH   2   3
BRANCH   1  25
ATOM     25  C   UNL     1      62.200 226.047 325.100  0.00  0.00    +0.000 C 
ATOM     26  C   UNL     1      61.986 226.780 324.176  0.00  0.00    +0.000 C 
BRANCH  26  27
ATOM     27  C   UNL     1      61.708 227.707 322.987  0.00  0.00    +0.000 C 
BRANCH  27  28
ATOM     28  N   UNL     1      61.480 228.525 321.937  0.00  0.00    +0.000 N 
ATOM     29  C   UNL     1      62.247 229.566 321.468  0.00  0.00    +0.000 C 
ATOM     30  O   UNL     1      63.309 229.942 321.942  0.00  0.00    +0.000 OA
ATOM     31  H   UNL     1      60.625 228.328 321.432  0.00  0.00    +0.000 HD
BRANCH  29  32
ATOM     32  C   UNL     1      61.718 230.247 320.311  0.00  0.00    +0.000 C 
ATOM     33  C   UNL     1      61.298 230.810 319.336  0.00  0.00    +0.000 C 
BRANCH  33  34
ATOM     34  C   UNL     1      60.805 231.474 318.148  0.00  0.00    +0.000 C 
ATOM     35  O   UNL     1      61.524 231.471 317.154  0.00  0.00    +0.000 OA
ATOM     36  N   UNL     1      59.571 232.097 318.231  0.00  0.00    +0.000 N 
BRANCH  36  37
ATOM     37  C   UNL     1      58.803 232.659 317.275  0.00  0.00    +0.000 C 
ATOM     38  C   UNL     1      58.122 233.161 316.424  0.00  0.00    +0.000 C 
BRANCH  38  39
ATOM     39  C   UNL     1      57.255 233.809 315.340  0.00  0.00    +0.000 C 
ATOM     40  C   UNL     1      56.580 234.318 314.488  0.00  0.00    +0.000 C 
BRANCH  40  41
ATOM     41  C   UNL     1      55.723 234.970 313.400  0.00  0.00    +0.000 C 
BRANCH  41  42
ATOM     42  N   UNL     1      54.909 235.588 312.366  0.00  0.00    +0.000 NA
ATOM     43  H   UNL     1      54.471 236.438 312.719  0.00  0.00    +0.000 HD
ATOM     44  H   UNL     1      55.490 235.876 311.581  0.00  0.00    +0.000 HD
ENDBRANCH  41  42
ENDBRANCH  40  41
ENDBRANCH  38  39
ENDBRANCH  36  37
BRANCH  36  45
ATOM     45  O   UNL     1      58.781 231.830 319.373  0.00  0.00    +0.000 OA
ATOM     46  H   UNL     1      59.464 231.613 320.034  0.00  0.00    +0.000 HD
ENDBRANCH  36  45
ENDBRANCH  33  34
ENDBRANCH  29  32
ENDBRANCH  27  28
ENDBRANCH  26  27
ENDBRANCH   1  25
TORSDOF 19
ENDMDL
MODEL 9
REMARK VINA RESULT:      -4.0      2.668      3.041
REMARK  Name = Deferoxamine.pdbqt.pdb
REMARK  19 active torsions:
REMARK  status: ('A' for Active; 'I' for Inactive)
REMARK    1  A    between atoms: C_1  and  C_2
REMARK    2  A    between atoms: C_3  and  C_4
REMARK    3  A    between atoms: C_4  and  N_5
REMARK    4  A    between atoms: C_6  and  C_9
REMARK    5  A    between atoms: C_10  and  C_11
REMARK    6  A    between atoms: N_13  and  O_14
REMARK    7  A    between atoms: N_13  and  C_16
REMARK    8  A    between atoms: C_17  and  C_18
REMARK    9  A    between atoms: C_19  and  C_20
REMARK   10  A    between atoms: C_20  and  N_21
REMARK   11  A    between atoms: C_24  and  N_25
REMARK   12  A    between atoms: N_25  and  O_28
REMARK   13  A    between atoms: C_26  and  C_30
REMARK   14  A    between atoms: C_31  and  C_32
REMARK   15  A    between atoms: N_34  and  C_36
REMARK   16  A    between atoms: C_37  and  C_38
REMARK   17  A    between atoms: C_38  and  C_39
REMARK   18  A    between atoms: C_40  and  N_41
REMARK   19  A    between atoms: N_41  and  O_45
REMARK                            x       y       z     vdW  Elec       q    Type
REMARK                         _______ _______ _______ _____ _____    ______ ____
ROOT
ATOM      1  C   UNL     1      62.014 221.622 329.028  0.00  0.00    +0.000 C 
ATOM      2  C   UNL     1      62.737 221.201 329.891  0.00  0.00    +0.000 C 
ENDROOT
BRANCH   2   3
ATOM      3  N   UNL     1      63.548 220.730 330.860  0.00  0.00    +0.000 N 
ATOM      4  C   UNL     1      64.781 220.106 330.780  0.00  0.00    +0.000 C 
ATOM      5  O   UNL     1      65.299 219.706 329.743  0.00  0.00    +0.000 OA
BRANCH   4   6
ATOM      6  C   UNL     1      65.495 219.880 332.020  0.00  0.00    +0.000 C 
ATOM      7  C   UNL     1      66.091 219.679 333.044  0.00  0.00    +0.000 C 
BRANCH   7   8
ATOM      8  C   UNL     1      66.798 219.415 334.273  0.00  0.00    +0.000 C 
ATOM      9  O   UNL     1      66.839 218.270 334.700  0.00  0.00    +0.000 OA
ATOM     10  N   UNL     1      67.377 220.516 334.864  0.00  0.00    +0.000 N 
ATOM     11  H   UNL     1      67.257 221.397 334.381  0.00  0.00    +0.000 HD
BRANCH  10  12
ATOM     12  C   UNL     1      68.096 220.590 336.005  0.00  0.00    +0.000 C 
ATOM     13  C   UNL     1      68.736 220.650 337.018  0.00  0.00    +0.000 C 
BRANCH  13  14
ATOM     14  C   UNL     1      69.559 220.719 338.308  0.00  0.00    +0.000 C 
BRANCH  14  15
ATOM     15  C   UNL     1      70.375 220.784 339.602  0.00  0.00    +0.000 C 
ATOM     16  C   UNL     1      71.016 220.838 340.616  0.00  0.00    +0.000 C 
BRANCH  16  17
ATOM     17  N   UNL     1      71.732 220.905 341.755  0.00  0.00    +0.000 N 
ATOM     18  C   UNL     1      73.090 220.897 341.973  0.00  0.00    +0.000 C 
ATOM     19  O   UNL     1      74.011 220.830 341.179  0.00  0.00    +0.000 OA
ATOM     20  C   UNL     1      73.609 220.983 343.387  0.00  0.00    +0.000 C 
BRANCH  17  21
ATOM     21  O   UNL     1      70.848 220.992 342.861  0.00  0.00    +0.000 OA
ATOM     22  H   UNL     1      71.342 220.541 343.576  0.00  0.00    +0.000 HD
ENDBRANCH  17  21
ENDBRANCH  16  17
ENDBRANCH  14  15
ENDBRANCH  13  14
ENDBRANCH  10  12
ENDBRANCH   7   8
ENDBRANCH   4   6
BRANCH   3  23
ATOM     23  O   UNL     1      63.193 221.317 332.095  0.00  0.00    +0.000 OA
ATOM     24  H   UNL     1      64.032 221.739 332.357  0.00  0.00    +0.000 HD
ENDBRANCH   3  23
ENDBRANCH   2   3
BRANCH   1  25
ATOM     25  C   UNL     1      61.088 222.169 327.939  0.00  0.00    +0.000 C 
ATOM     26  C   UNL     1      60.361 222.586 327.081  0.00  0.00    +0.000 C 
BRANCH  26  27
ATOM     27  C   UNL     1      59.430 223.104 325.979  0.00  0.00    +0.000 C 
BRANCH  27  28
ATOM     28  N   UNL     1      58.602 223.573 325.021  0.00  0.00    +0.000 N 
ATOM     29  C   UNL     1      57.770 222.875 324.177  0.00  0.00    +0.000 C 
ATOM     30  O   UNL     1      57.634 221.661 324.151  0.00  0.00    +0.000 OA
ATOM     31  H   UNL     1      58.601 224.581 324.927  0.00  0.00    +0.000 HD
BRANCH  29  32
ATOM     32  C   UNL     1      57.006 223.684 323.258  0.00  0.00    +0.000 C 
ATOM     33  C   UNL     1      56.379 224.345 322.475  0.00  0.00    +0.000 C 
BRANCH  33  34
ATOM     34  C   UNL     1      55.623 225.124 321.516  0.00  0.00    +0.000 C 
ATOM     35  O   UNL     1      55.972 226.284 321.324  0.00  0.00    +0.000 OA
ATOM     36  N   UNL     1      54.536 224.513 320.913  0.00  0.00    +0.000 N 
BRANCH  36  37
ATOM     37  C   UNL     1      53.747 224.924 319.899  0.00  0.00    +0.000 C 
ATOM     38  C   UNL     1      53.048 225.291 318.996  0.00  0.00    +0.000 C 
BRANCH  38  39
ATOM     39  C   UNL     1      52.158 225.766 317.842  0.00  0.00    +0.000 C 
ATOM     40  C   UNL     1      51.461 226.143 316.942  0.00  0.00    +0.000 C 
BRANCH  40  41
ATOM     41  C   UNL     1      50.570 226.627 315.794  0.00  0.00    +0.000 C 
BRANCH  41  42
ATOM     42  N   UNL     1      49.725 227.086 314.704  0.00  0.00    +0.000 NA
ATOM     43  H   UNL     1      49.038 226.374 314.463  0.00  0.00    +0.000 HD
ATOM     44  H   UNL     1      49.192 227.907 314.989  0.00  0.00    +0.000 HD
ENDBRANCH  41  42
ENDBRANCH  40  41
ENDBRANCH  38  39
ENDBRANCH  36  37
BRANCH  36  45
ATOM     45  O   UNL     1      54.395 223.117 321.083  0.00  0.00    +0.000 OA
ATOM     46  H   UNL     1      55.326 222.837 321.166  0.00  0.00    +0.000 HD
ENDBRANCH  36  45
ENDBRANCH  33  34
ENDBRANCH  29  32
ENDBRANCH  27  28
ENDBRANCH  26  27
ENDBRANCH   1  25
TORSDOF 19
ENDMDL
