MODEL 1
REMARK VINA RESULT:      -5.9      0.000      0.000
REMARK  Name = 
REMARK  25 active torsions:
REMARK  status: ('A' for Active; 'I' for Inactive)
REMARK    1  A    between atoms: O_2  and  C_17
REMARK    2  A    between atoms: O_2  and  C_36
REMARK    3  A    between atoms: O_3  and  C_20
REMARK    4  A    between atoms: O_3  and  C_37
REMARK    5  A    between atoms: O_4  and  C_21
REMARK    6  A    between atoms: O_5  and  C_22
REMARK    7  A    between atoms: O_7  and  C_30
REMARK    8  A    between atoms: O_8  and  C_31
REMARK    9  A    between atoms: O_8  and  C_39
REMARK   10  A    between atoms: O_12  and  C_41
REMARK   11  A    between atoms: O_13  and  C_51
REMARK   12  A    between atoms: O_13  and  C_55
REMARK   13  A    between atoms: N_15  and  C_44
REMARK   14  A    between atoms: C_18  and  C_29
REMARK   15  A    between atoms: C_24  and  C_33
REMARK   16  A    between atoms: C_24  and  C_34
REMARK   17  A    between atoms: C_32  and  C_35
REMARK   18  A    between atoms: C_36  and  C_38
REMARK   19  A    between atoms: C_37  and  C_40
REMARK   20  A    between atoms: C_39  and  C_41
REMARK   21  A    between atoms: C_41  and  C_44
REMARK   22  A    between atoms: C_44  and  C_48
REMARK   23  A    between atoms: C_55  and  C_56
REMARK   24  A    between atoms: C_55  and  C_57
REMARK   25  A    between atoms: C_55  and  C_58
REMARK                            x       y       z     vdW  Elec       q    Type
REMARK                         _______ _______ _______ _____ _____    ______ ____
ROOT
ATOM      1  O   UNL     1      65.270 223.861 326.494  0.00  0.00    +0.000 OA
ATOM      2  O   UNL     1      58.647 223.536 327.585  0.00  0.00    +0.000 OA
ATOM      3  C   UNL     1      62.235 223.040 325.089  0.00  0.00    +0.000 C 
ATOM      4  C   UNL     1      63.547 223.869 325.220  0.00  0.00    +0.000 C 
ATOM      5  C   UNL     1      60.958 223.838 326.244  0.00  0.00    +0.000 C 
ATOM      6  C   UNL     1      63.886 223.474 326.715  0.00  0.00    +0.000 C 
ATOM      7  C   UNL     1      61.843 222.622 323.315  0.00  0.00    +0.000 C 
ATOM      8  C   UNL     1      60.536 221.757 322.251  0.00  0.00    +0.000 C 
ATOM      9  C   UNL     1      61.612 223.699 327.681  0.00  0.00    +0.000 C 
ATOM     10  C   UNL     1      63.092 224.181 327.792  0.00  0.00    +0.000 C 
ATOM     11  C   UNL     1      58.907 221.223 322.715  0.00  0.00    +0.000 C 
ATOM     12  C   UNL     1      65.059 223.424 325.093  0.00  0.00    +0.000 C 
ATOM     13  C   UNL     1      59.140 223.394 326.445  0.00  0.00    +0.000 C 
ATOM     14  C   UNL     1      60.171 222.802 321.099  0.00  0.00    +0.000 C 
ATOM     15  C   UNL     1      58.062 222.412 323.373  0.00  0.00    +0.000 C 
ATOM     16  C   UNL     1      60.858 225.408 326.041  0.00  0.00    +0.000 C 
ATOM     17  C   UNL     1      57.911 222.748 325.121  0.00  0.00    +0.000 C 
ATOM     18  C   UNL     1      58.880 223.719 321.302  0.00  0.00    +0.000 C 
ATOM     19  C   UNL     1      57.895 223.460 322.498  0.00  0.00    +0.000 C 
ATOM     20  C   UNL     1      58.145 220.805 321.359  0.00  0.00    +0.000 C 
ATOM     21  C   UNL     1      58.726 219.834 323.405  0.00  0.00    +0.000 C 
ATOM     22  C   UNL     1      56.936 224.593 322.765  0.00  0.00    +0.000 C 
ENDROOT
BRANCH  17  23
ATOM     23  O   UNL     1      57.060 221.715 325.617  0.00  0.00    +0.000 OA
ATOM     24  H   UNL     1      57.640 220.937 325.717  0.00  0.00    +0.000 HD
ENDBRANCH  17  23
BRANCH   9  25
ATOM     25  O   UNL     1      61.597 222.322 328.059  0.00  0.00    +0.000 OA
ATOM     26  H   UNL     1      61.212 222.275 328.952  0.00  0.00    +0.000 HD
ENDBRANCH   9  25
BRANCH   8  27
ATOM     27  O   UNL     1      61.243 220.673 321.618  0.00  0.00    +0.000 OA
ATOM     28  H   UNL     1      60.989 219.835 322.044  0.00  0.00    +0.000 HD
ENDBRANCH   8  27
BRANCH  18  29
ATOM     29  O   UNL     1      59.334 225.098 321.424  0.00  0.00    +0.000 OA
BRANCH  29  31
ATOM     30  O   UNL     1      59.614 225.505 319.220  0.00  0.00    +0.000 OA
ATOM     31  C   UNL     1      59.251 225.891 320.326  0.00  0.00    +0.000 C 
BRANCH  31  32
ATOM     32  C   UNL     1      58.830 227.339 320.599  0.00  0.00    +0.000 C 
BRANCH  32  33
ATOM     33  O   UNL     1      57.682 227.499 321.440  0.00  0.00    +0.000 OA
ATOM     34  H   UNL     1      57.419 228.435 321.363  0.00  0.00    +0.000 HD
ENDBRANCH  32  33
BRANCH  32  35
ATOM     35  C   UNL     1      58.642 228.060 319.237  0.00  0.00    +0.000 C 
BRANCH  35  36
ATOM     36  C   UNL     1      59.816 228.968 318.886  0.00  0.00    +0.000 A 
ATOM     37  C   UNL     1      59.931 230.222 319.506  0.00  0.00    +0.000 A 
ATOM     38  C   UNL     1      60.816 228.572 317.982  0.00  0.00    +0.000 A 
ATOM     39  C   UNL     1      61.002 231.069 319.211  0.00  0.00    +0.000 A 
ATOM     40  C   UNL     1      61.885 229.421 317.689  0.00  0.00    +0.000 A 
ATOM     41  C   UNL     1      61.977 230.669 318.300  0.00  0.00    +0.000 A 
ENDBRANCH  35  36
BRANCH  35  43
ATOM     42  O   UNL     1      56.695 228.247 317.131  0.00  0.00    +0.000 OA
ATOM     43  N   UNL     1      57.417 228.848 319.215  0.00  0.00    +0.000 N 
ATOM     44  C   UNL     1      56.616 228.949 318.125  0.00  0.00    +0.000 C 
ATOM     45  H   UNL     1      57.314 229.572 319.914  0.00  0.00    +0.000 HD
BRANCH  44  46
ATOM     46  O   UNL     1      55.713 229.929 318.342  0.00  0.00    +0.000 OA
BRANCH  46  47
ATOM     47  C   UNL     1      55.797 231.187 317.624  0.00  0.00    +0.000 C 
ATOM     48  C   UNL     1      55.504 230.999 316.132  0.00  0.00    +0.000 C 
ATOM     49  C   UNL     1      54.690 232.059 318.235  0.00  0.00    +0.000 C 
ATOM     50  C   UNL     1      57.148 231.872 317.861  0.00  0.00    +0.000 C 
ENDBRANCH  46  47
ENDBRANCH  44  46
ENDBRANCH  35  43
ENDBRANCH  32  35
ENDBRANCH  31  32
ENDBRANCH  29  31
ENDBRANCH  18  29
BRANCH   7  51
ATOM     51  O   UNL     1      61.093 223.705 323.318  0.00  0.00    +0.000 OA
BRANCH  51  53
ATOM     52  O   UNL     1      62.746 223.433 322.211  0.00  0.00    +0.000 OA
ATOM     53  C   UNL     1      61.983 224.351 322.495  0.00  0.00    +0.000 C 
BRANCH  53  54
ATOM     54  C   UNL     1      62.037 226.250 322.253  0.00  0.00    +0.000 A 
ATOM     55  C   UNL     1      61.476 227.238 323.175  0.00  0.00    +0.000 A 
ATOM     56  C   UNL     1      62.731 226.978 321.238  0.00  0.00    +0.000 A 
ATOM     57  C   UNL     1      61.585 228.650 323.094  0.00  0.00    +0.000 A 
ATOM     58  C   UNL     1      62.851 228.395 321.138  0.00  0.00    +0.000 A 
ATOM     59  C   UNL     1      62.280 229.233 322.065  0.00  0.00    +0.000 A 
ENDBRANCH  53  54
ENDBRANCH  51  53
ENDBRANCH   7  51
BRANCH   4  60
ATOM     60  O   UNL     1      63.329 225.285 325.014  0.00  0.00    +0.000 OA
BRANCH  60  62
ATOM     61  O   UNL     1      64.388 226.945 326.074  0.00  0.00    +0.000 OA
ATOM     62  C   UNL     1      64.302 226.222 325.084  0.00  0.00    +0.000 C 
ATOM     63  C   UNL     1      65.187 226.440 323.897  0.00  0.00    +0.000 C 
ENDBRANCH  60  62
ENDBRANCH   4  60
TORSDOF 17
ENDMDL
MODEL 2
REMARK VINA RESULT:      -5.6      1.844      5.316
REMARK  Name = 
REMARK  25 active torsions:
REMARK  status: ('A' for Active; 'I' for Inactive)
REMARK    1  A    between atoms: O_2  and  C_17
REMARK    2  A    between atoms: O_2  and  C_36
REMARK    3  A    between atoms: O_3  and  C_20
REMARK    4  A    between atoms: O_3  and  C_37
REMARK    5  A    between atoms: O_4  and  C_21
REMARK    6  A    between atoms: O_5  and  C_22
REMARK    7  A    between atoms: O_7  and  C_30
REMARK    8  A    between atoms: O_8  and  C_31
REMARK    9  A    between atoms: O_8  and  C_39
REMARK   10  A    between atoms: O_12  and  C_41
REMARK   11  A    between atoms: O_13  and  C_51
REMARK   12  A    between atoms: O_13  and  C_55
REMARK   13  A    between atoms: N_15  and  C_44
REMARK   14  A    between atoms: C_18  and  C_29
REMARK   15  A    between atoms: C_24  and  C_33
REMARK   16  A    between atoms: C_24  and  C_34
REMARK   17  A    between atoms: C_32  and  C_35
REMARK   18  A    between atoms: C_36  and  C_38
REMARK   19  A    between atoms: C_37  and  C_40
REMARK   20  A    between atoms: C_39  and  C_41
REMARK   21  A    between atoms: C_41  and  C_44
REMARK   22  A    between atoms: C_44  and  C_48
REMARK   23  A    between atoms: C_55  and  C_56
REMARK   24  A    between atoms: C_55  and  C_57
REMARK   25  A    between atoms: C_55  and  C_58
REMARK                            x       y       z     vdW  Elec       q    Type
REMARK                         _______ _______ _______ _____ _____    ______ ____
ROOT
ATOM      1  O   UNL     1      60.891 221.597 329.250  0.00  0.00    +0.000 OA
ATOM      2  O   UNL     1      65.997 222.057 324.906  0.00  0.00    +0.000 OA
ATOM      3  C   UNL     1      62.357 223.582 326.849  0.00  0.00    +0.000 C 
ATOM      4  C   UNL     1      61.217 222.705 327.445  0.00  0.00    +0.000 C 
ATOM      5  C   UNL     1      63.539 222.410 325.937  0.00  0.00    +0.000 C 
ATOM      6  C   UNL     1      62.096 221.928 328.509  0.00  0.00    +0.000 C 
ATOM      7  C   UNL     1      61.705 225.142 326.064  0.00  0.00    +0.000 C 
ATOM      8  C   UNL     1      62.283 226.676 325.116  0.00  0.00    +0.000 C 
ATOM      9  C   UNL     1      64.063 221.442 327.077  0.00  0.00    +0.000 C 
ATOM     10  C   UNL     1      62.958 220.804 327.974  0.00  0.00    +0.000 C 
ATOM     11  C   UNL     1      63.862 226.985 324.366  0.00  0.00    +0.000 C 
ATOM     12  C   UNL     1      60.360 222.892 328.760  0.00  0.00    +0.000 C 
ATOM     13  C   UNL     1      65.038 222.859 324.892  0.00  0.00    +0.000 C 
ATOM     14  C   UNL     1      61.340 226.756 323.828  0.00  0.00    +0.000 C 
ATOM     15  C   UNL     1      64.283 225.805 323.370  0.00  0.00    +0.000 C 
ATOM     16  C   UNL     1      62.775 221.430 324.951  0.00  0.00    +0.000 C 
ATOM     17  C   UNL     1      65.307 224.401 323.782  0.00  0.00    +0.000 C 
ATOM     18  C   UNL     1      61.891 226.145 322.459  0.00  0.00    +0.000 C 
ATOM     19  C   UNL     1      63.382 225.666 322.340  0.00  0.00    +0.000 C 
ATOM     20  C   UNL     1      63.708 228.316 323.472  0.00  0.00    +0.000 C 
ATOM     21  C   UNL     1      65.028 227.545 325.241  0.00  0.00    +0.000 C 
ATOM     22  C   UNL     1      63.660 224.808 321.131  0.00  0.00    +0.000 C 
ENDROOT
BRANCH  17  23
ATOM     23  O   UNL     1      66.628 224.934 323.890  0.00  0.00    +0.000 OA
ATOM     24  H   UNL     1      66.948 224.637 324.763  0.00  0.00    +0.000 HD
ENDBRANCH  17  23
BRANCH   9  25
ATOM     25  O   UNL     1      64.923 222.182 327.945  0.00  0.00    +0.000 OA
ATOM     26  H   UNL     1      64.557 222.102 328.844  0.00  0.00    +0.000 HD
ENDBRANCH   9  25
BRANCH   8  27
ATOM     27  O   UNL     1      61.921 227.785 325.962  0.00  0.00    +0.000 OA
ATOM     28  H   UNL     1      61.335 228.385 325.469  0.00  0.00    +0.000 HD
ENDBRANCH   8  27
BRANCH  18  29
ATOM     29  O   UNL     1      61.054 225.002 322.120  0.00  0.00    +0.000 OA
BRANCH  29  31
ATOM     30  O   UNL     1      60.364 224.657 319.997  0.00  0.00    +0.000 OA
ATOM     31  C   UNL     1      60.167 225.147 321.104  0.00  0.00    +0.000 C 
BRANCH  31  32
ATOM     32  C   UNL     1      58.997 226.095 321.391  0.00  0.00    +0.000 C 
BRANCH  32  33
ATOM     33  O   UNL     1      57.725 225.464 321.580  0.00  0.00    +0.000 OA
ATOM     34  H   UNL     1      57.917 224.556 321.882  0.00  0.00    +0.000 HD
ENDBRANCH  32  33
BRANCH  32  35
ATOM     35  C   UNL     1      58.942 227.161 320.264  0.00  0.00    +0.000 C 
BRANCH  35  36
ATOM     36  C   UNL     1      59.982 228.261 320.445  0.00  0.00    +0.000 A 
ATOM     37  C   UNL     1      59.828 229.198 321.480  0.00  0.00    +0.000 A 
ATOM     38  C   UNL     1      61.120 228.349 319.626  0.00  0.00    +0.000 A 
ATOM     39  C   UNL     1      60.771 230.209 321.675  0.00  0.00    +0.000 A 
ATOM     40  C   UNL     1      62.061 229.362 319.822  0.00  0.00    +0.000 A 
ATOM     41  C   UNL     1      61.885 230.293 320.844  0.00  0.00    +0.000 A 
ENDBRANCH  35  36
BRANCH  35  43
ATOM     42  O   UNL     1      56.662 226.238 318.778  0.00  0.00    +0.000 OA
ATOM     43  N   UNL     1      57.623 227.773 320.173  0.00  0.00    +0.000 N 
ATOM     44  C   UNL     1      56.643 227.312 319.356  0.00  0.00    +0.000 C 
ATOM     45  H   UNL     1      57.528 228.729 320.490  0.00  0.00    +0.000 HD
BRANCH  44  46
ATOM     46  O   UNL     1      55.648 228.224 319.318  0.00  0.00    +0.000 OA
BRANCH  46  47
ATOM     47  C   UNL     1      55.234 228.817 318.061  0.00  0.00    +0.000 C 
ATOM     48  C   UNL     1      54.334 227.867 317.263  0.00  0.00    +0.000 C 
ATOM     49  C   UNL     1      54.410 230.049 318.465  0.00  0.00    +0.000 C 
ATOM     50  C   UNL     1      56.443 229.283 317.242  0.00  0.00    +0.000 C 
ENDBRANCH  46  47
ENDBRANCH  44  46
ENDBRANCH  35  43
ENDBRANCH  32  35
ENDBRANCH  31  32
ENDBRANCH  29  31
ENDBRANCH  18  29
BRANCH   7  51
ATOM     51  O   UNL     1      61.707 224.469 324.933  0.00  0.00    +0.000 OA
BRANCH  51  53
ATOM     52  O   UNL     1      60.076 225.086 325.927  0.00  0.00    +0.000 OA
ATOM     53  C   UNL     1      60.336 224.395 324.947  0.00  0.00    +0.000 C 
BRANCH  53  54
ATOM     54  C   UNL     1      59.312 223.205 323.848  0.00  0.00    +0.000 A 
ATOM     55  C   UNL     1      59.853 222.074 323.093  0.00  0.00    +0.000 A 
ATOM     56  C   UNL     1      57.891 223.156 323.709  0.00  0.00    +0.000 A 
ATOM     57  C   UNL     1      59.124 221.106 322.356  0.00  0.00    +0.000 A 
ATOM     58  C   UNL     1      57.141 222.193 322.973  0.00  0.00    +0.000 A 
ATOM     59  C   UNL     1      57.755 221.167 322.296  0.00  0.00    +0.000 A 
ENDBRANCH  53  54
ENDBRANCH  51  53
ENDBRANCH   7  51
BRANCH   4  60
ATOM     60  O   UNL     1      60.597 221.855 326.451  0.00  0.00    +0.000 OA
BRANCH  60  62
ATOM     61  O   UNL     1      59.739 219.819 326.800  0.00  0.00    +0.000 OA
ATOM     62  C   UNL     1      59.554 221.030 326.701  0.00  0.00    +0.000 C 
ATOM     63  C   UNL     1      58.171 221.598 326.735  0.00  0.00    +0.000 C 
ENDBRANCH  60  62
ENDBRANCH   4  60
TORSDOF 17
ENDMDL
MODEL 3
REMARK VINA RESULT:      -5.5     14.187     20.063
REMARK  Name = 
REMARK  25 active torsions:
REMARK  status: ('A' for Active; 'I' for Inactive)
REMARK    1  A    between atoms: O_2  and  C_17
REMARK    2  A    between atoms: O_2  and  C_36
REMARK    3  A    between atoms: O_3  and  C_20
REMARK    4  A    between atoms: O_3  and  C_37
REMARK    5  A    between atoms: O_4  and  C_21
REMARK    6  A    between atoms: O_5  and  C_22
REMARK    7  A    between atoms: O_7  and  C_30
REMARK    8  A    between atoms: O_8  and  C_31
REMARK    9  A    between atoms: O_8  and  C_39
REMARK   10  A    between atoms: O_12  and  C_41
REMARK   11  A    between atoms: O_13  and  C_51
REMARK   12  A    between atoms: O_13  and  C_55
REMARK   13  A    between atoms: N_15  and  C_44
REMARK   14  A    between atoms: C_18  and  C_29
REMARK   15  A    between atoms: C_24  and  C_33
REMARK   16  A    between atoms: C_24  and  C_34
REMARK   17  A    between atoms: C_32  and  C_35
REMARK   18  A    between atoms: C_36  and  C_38
REMARK   19  A    between atoms: C_37  and  C_40
REMARK   20  A    between atoms: C_39  and  C_41
REMARK   21  A    between atoms: C_41  and  C_44
REMARK   22  A    between atoms: C_44  and  C_48
REMARK   23  A    between atoms: C_55  and  C_56
REMARK   24  A    between atoms: C_55  and  C_57
REMARK   25  A    between atoms: C_55  and  C_58
REMARK                            x       y       z     vdW  Elec       q    Type
REMARK                         _______ _______ _______ _____ _____    ______ ____
ROOT
ATOM      1  O   UNL     1      52.512 245.651 328.238  0.00  0.00    +0.000 OA
ATOM      2  O   UNL     1      46.223 246.064 325.905  0.00  0.00    +0.000 OA
ATOM      3  C   UNL     1      49.849 243.837 327.022  0.00  0.00    +0.000 C 
ATOM      4  C   UNL     1      51.301 244.401 326.988  0.00  0.00    +0.000 C 
ATOM      5  C   UNL     1      48.730 245.141 326.216  0.00  0.00    +0.000 C 
ATOM      6  C   UNL     1      51.078 245.591 328.008  0.00  0.00    +0.000 C 
ATOM      7  C   UNL     1      49.784 242.038 326.539  0.00  0.00    +0.000 C 
ATOM      8  C   UNL     1      48.556 240.622 326.265  0.00  0.00    +0.000 C 
ATOM      9  C   UNL     1      48.900 246.412 327.148  0.00  0.00    +0.000 C 
ATOM     10  C   UNL     1      50.372 246.816 327.466  0.00  0.00    +0.000 C 
ATOM     11  C   UNL     1      46.788 240.700 326.132  0.00  0.00    +0.000 C 
ATOM     12  C   UNL     1      52.507 244.190 327.989  0.00  0.00    +0.000 C 
ATOM     13  C   UNL     1      46.893 245.010 325.828  0.00  0.00    +0.000 C 
ATOM     14  C   UNL     1      48.919 240.021 324.829  0.00  0.00    +0.000 C 
ATOM     15  C   UNL     1      46.326 241.756 325.021  0.00  0.00    +0.000 C 
ATOM     16  C   UNL     1      49.292 245.638 324.818  0.00  0.00    +0.000 C 
ATOM     17  C   UNL     1      45.883 243.461 325.316  0.00  0.00    +0.000 C 
ATOM     18  C   UNL     1      48.071 240.521 323.572  0.00  0.00    +0.000 C 
ATOM     19  C   UNL     1      46.797 241.418 323.774  0.00  0.00    +0.000 C 
ATOM     20  C   UNL     1      46.288 239.252 325.634  0.00  0.00    +0.000 C 
ATOM     21  C   UNL     1      45.923 240.701 327.432  0.00  0.00    +0.000 C 
ATOM     22  C   UNL     1      46.310 242.091 322.515  0.00  0.00    +0.000 C 
ENDROOT
BRANCH  17  23
ATOM     23  O   UNL     1      44.607 243.401 325.953  0.00  0.00    +0.000 OA
ATOM     24  H   UNL     1      44.013 243.918 325.376  0.00  0.00    +0.000 HD
ENDBRANCH  17  23
BRANCH   9  25
ATOM     25  O   UNL     1      48.265 246.147 328.400  0.00  0.00    +0.000 OA
ATOM     26  H   UNL     1      47.517 246.766 328.477  0.00  0.00    +0.000 HD
ENDBRANCH   9  25
BRANCH   8  27
ATOM     27  O   UNL     1      48.928 239.625 327.236  0.00  0.00    +0.000 OA
ATOM     28  H   UNL     1      49.844 239.787 327.524  0.00  0.00    +0.000 HD
ENDBRANCH   8  27
BRANCH  18  29
ATOM     29  O   UNL     1      48.972 241.263 322.700  0.00  0.00    +0.000 OA
BRANCH  29  31
ATOM     30  O   UNL     1      49.096 241.068 320.454  0.00  0.00    +0.000 OA
ATOM     31  C   UNL     1      49.399 240.652 321.567  0.00  0.00    +0.000 C 
BRANCH  31  32
ATOM     32  C   UNL     1      50.139 239.327 321.780  0.00  0.00    +0.000 C 
BRANCH  32  33
ATOM     33  O   UNL     1      51.489 239.292 321.304  0.00  0.00    +0.000 OA
ATOM     34  H   UNL     1      52.050 239.167 322.093  0.00  0.00    +0.000 HD
ENDBRANCH  32  33
BRANCH  32  35
ATOM     35  C   UNL     1      49.288 238.185 321.163  0.00  0.00    +0.000 C 
BRANCH  35  36
ATOM     36  C   UNL     1      48.565 237.355 322.218  0.00  0.00    +0.000 A 
ATOM     37  C   UNL     1      49.301 236.754 323.252  0.00  0.00    +0.000 A 
ATOM     38  C   UNL     1      47.168 237.200 322.213  0.00  0.00    +0.000 A 
ATOM     39  C   UNL     1      48.662 235.998 324.238  0.00  0.00    +0.000 A 
ATOM     40  C   UNL     1      46.532 236.443 323.199  0.00  0.00    +0.000 A 
ATOM     41  C   UNL     1      47.279 235.840 324.209  0.00  0.00    +0.000 A 
ENDBRANCH  35  36
BRANCH  35  43
ATOM     42  O   UNL     1      49.079 237.694 318.339  0.00  0.00    +0.000 OA
ATOM     43  N   UNL     1      50.102 237.296 320.344  0.00  0.00    +0.000 N 
ATOM     44  C   UNL     1      49.852 237.055 319.033  0.00  0.00    +0.000 C 
ATOM     45  H   UNL     1      50.676 236.614 320.823  0.00  0.00    +0.000 HD
BRANCH  44  46
ATOM     46  O   UNL     1      50.619 236.018 318.631  0.00  0.00    +0.000 OA
BRANCH  46  47
ATOM     47  C   UNL     1      51.810 236.243 317.833  0.00  0.00    +0.000 C 
ATOM     48  C   UNL     1      52.977 235.374 318.314  0.00  0.00    +0.000 C 
ATOM     49  C   UNL     1      51.418 235.797 316.416  0.00  0.00    +0.000 C 
ATOM     50  C   UNL     1      52.180 237.729 317.795  0.00  0.00    +0.000 C 
ENDBRANCH  46  47
ENDBRANCH  44  46
ENDBRANCH  35  43
ENDBRANCH  32  35
ENDBRANCH  31  32
ENDBRANCH  29  31
ENDBRANCH  18  29
BRANCH   7  51
ATOM     51  O   UNL     1      49.530 242.466 325.320  0.00  0.00    +0.000 OA
BRANCH  51  53
ATOM     52  O   UNL     1      51.222 241.564 325.916  0.00  0.00    +0.000 OA
ATOM     53  C   UNL     1      50.798 242.128 324.913  0.00  0.00    +0.000 C 
BRANCH  53  54
ATOM     54  C   UNL     1      51.611 242.759 323.297  0.00  0.00    +0.000 A 
ATOM     55  C   UNL     1      52.824 242.212 322.689  0.00  0.00    +0.000 A 
ATOM     56  C   UNL     1      51.099 243.739 322.392  0.00  0.00    +0.000 A 
ATOM     57  C   UNL     1      53.400 242.573 321.445  0.00  0.00    +0.000 A 
ATOM     58  C   UNL     1      51.663 244.116 321.138  0.00  0.00    +0.000 A 
ATOM     59  C   UNL     1      52.813 243.534 320.662  0.00  0.00    +0.000 A 
ENDBRANCH  53  54
ENDBRANCH  51  53
ENDBRANCH   7  51
BRANCH   4  60
ATOM     60  O   UNL     1      51.699 244.821 325.662  0.00  0.00    +0.000 OA
BRANCH  60  62
ATOM     61  O   UNL     1      53.845 244.256 325.376  0.00  0.00    +0.000 OA
ATOM     62  C   UNL     1      52.972 245.118 325.309  0.00  0.00    +0.000 C 
ATOM     63  C   UNL     1      53.315 246.530 324.954  0.00  0.00    +0.000 C 
ENDBRANCH  60  62
ENDBRANCH   4  60
TORSDOF 17
ENDMDL
MODEL 4
REMARK VINA RESULT:      -5.3      3.164      6.585
REMARK  Name = 
REMARK  25 active torsions:
REMARK  status: ('A' for Active; 'I' for Inactive)
REMARK    1  A    between atoms: O_2  and  C_17
REMARK    2  A    between atoms: O_2  and  C_36
REMARK    3  A    between atoms: O_3  and  C_20
REMARK    4  A    between atoms: O_3  and  C_37
REMARK    5  A    between atoms: O_4  and  C_21
REMARK    6  A    between atoms: O_5  and  C_22
REMARK    7  A    between atoms: O_7  and  C_30
REMARK    8  A    between atoms: O_8  and  C_31
REMARK    9  A    between atoms: O_8  and  C_39
REMARK   10  A    between atoms: O_12  and  C_41
REMARK   11  A    between atoms: O_13  and  C_51
REMARK   12  A    between atoms: O_13  and  C_55
REMARK   13  A    between atoms: N_15  and  C_44
REMARK   14  A    between atoms: C_18  and  C_29
REMARK   15  A    between atoms: C_24  and  C_33
REMARK   16  A    between atoms: C_24  and  C_34
REMARK   17  A    between atoms: C_32  and  C_35
REMARK   18  A    between atoms: C_36  and  C_38
REMARK   19  A    between atoms: C_37  and  C_40
REMARK   20  A    between atoms: C_39  and  C_41
REMARK   21  A    between atoms: C_41  and  C_44
REMARK   22  A    between atoms: C_44  and  C_48
REMARK   23  A    between atoms: C_55  and  C_56
REMARK   24  A    between atoms: C_55  and  C_57
REMARK   25  A    between atoms: C_55  and  C_58
REMARK                            x       y       z     vdW  Elec       q    Type
REMARK                         _______ _______ _______ _____ _____    ______ ____
ROOT
ATOM      1  O   UNL     1      64.879 221.929 330.548  0.00  0.00    +0.000 OA
ATOM      2  O   UNL     1      66.661 222.204 324.075  0.00  0.00    +0.000 OA
ATOM      3  C   UNL     1      64.180 223.388 327.509  0.00  0.00    +0.000 C 
ATOM      4  C   UNL     1      63.868 222.496 328.747  0.00  0.00    +0.000 C 
ATOM      5  C   UNL     1      65.082 222.292 326.250  0.00  0.00    +0.000 C 
ATOM      6  C   UNL     1      65.363 222.285 329.224  0.00  0.00    +0.000 C 
ATOM      7  C   UNL     1      62.731 224.460 327.032  0.00  0.00    +0.000 C 
ATOM      8  C   UNL     1      62.193 225.733 325.737  0.00  0.00    +0.000 C 
ATOM      9  C   UNL     1      66.398 221.846 327.013  0.00  0.00    +0.000 C 
ATOM     10  C   UNL     1      66.178 221.274 328.447  0.00  0.00    +0.000 C 
ATOM     11  C   UNL     1      62.978 226.148 324.200  0.00  0.00    +0.000 C 
ATOM     12  C   UNL     1      63.765 222.870 330.280  0.00  0.00    +0.000 C 
ATOM     13  C   UNL     1      65.610 222.732 324.497  0.00  0.00    +0.000 C 
ATOM     14  C   UNL     1      60.780 225.217 325.199  0.00  0.00    +0.000 C 
ATOM     15  C   UNL     1      63.235 224.850 323.299  0.00  0.00    +0.000 C 
ATOM     16  C   UNL     1      64.328 220.920 325.995  0.00  0.00    +0.000 C 
ATOM     17  C   UNL     1      64.743 223.896 323.242  0.00  0.00    +0.000 C 
ATOM     18  C   UNL     1      60.758 224.366 323.848  0.00  0.00    +0.000 C 
ATOM     19  C   UNL     1      62.057 224.216 322.978  0.00  0.00    +0.000 C 
ATOM     20  C   UNL     1      61.953 227.086 323.385  0.00  0.00    +0.000 C 
ATOM     21  C   UNL     1      64.145 227.187 324.193  0.00  0.00    +0.000 C 
ATOM     22  C   UNL     1      61.983 223.123 321.941  0.00  0.00    +0.000 C 
ENDROOT
BRANCH  17  23
ATOM     23  O   UNL     1      65.666 224.716 322.523  0.00  0.00    +0.000 OA
ATOM     24  H   UNL     1      66.205 225.149 323.211  0.00  0.00    +0.000 HD
ENDBRANCH  17  23
BRANCH   9  25
ATOM     25  O   UNL     1      67.254 222.982 327.148  0.00  0.00    +0.000 OA
ATOM     26  H   UNL     1      67.845 222.987 326.374  0.00  0.00    +0.000 HD
ENDBRANCH   9  25
BRANCH   8  27
ATOM     27  O   UNL     1      61.935 226.933 326.492  0.00  0.00    +0.000 OA
ATOM     28  H   UNL     1      61.850 226.704 327.435  0.00  0.00    +0.000 HD
ENDBRANCH   8  27
BRANCH  18  29
ATOM     29  O   UNL     1      60.321 223.017 324.185  0.00  0.00    +0.000 OA
BRANCH  29  31
ATOM     30  O   UNL     1      59.257 221.419 322.996  0.00  0.00    +0.000 OA
ATOM     31  C   UNL     1      59.240 222.522 323.531  0.00  0.00    +0.000 C 
BRANCH  31  32
ATOM     32  C   UNL     1      58.071 223.500 323.370  0.00  0.00    +0.000 C 
BRANCH  32  33
ATOM     33  O   UNL     1      56.923 223.226 324.182  0.00  0.00    +0.000 OA
ATOM     34  H   UNL     1      56.767 222.266 324.112  0.00  0.00    +0.000 HD
ENDBRANCH  32  33
BRANCH  32  35
ATOM     35  C   UNL     1      57.699 223.578 321.865  0.00  0.00    +0.000 C 
BRANCH  35  36
ATOM     36  C   UNL     1      57.823 224.989 321.302  0.00  0.00    +0.000 A 
ATOM     37  C   UNL     1      56.688 225.814 321.244  0.00  0.00    +0.000 A 
ATOM     38  C   UNL     1      59.053 225.511 320.868  0.00  0.00    +0.000 A 
ATOM     39  C   UNL     1      56.775 227.115 320.743  0.00  0.00    +0.000 A 
ATOM     40  C   UNL     1      59.137 226.812 320.366  0.00  0.00    +0.000 A 
ATOM     41  C   UNL     1      57.998 227.612 320.301  0.00  0.00    +0.000 A 
ENDBRANCH  35  36
BRANCH  35  43
ATOM     42  O   UNL     1      56.811 221.746 319.837  0.00  0.00    +0.000 OA
ATOM     43  N   UNL     1      56.347 223.093 321.625  0.00  0.00    +0.000 N 
ATOM     44  C   UNL     1      56.014 222.308 320.570  0.00  0.00    +0.000 C 
ATOM     45  H   UNL     1      55.586 223.589 322.071  0.00  0.00    +0.000 HD
BRANCH  44  46
ATOM     46  O   UNL     1      54.668 222.237 320.492  0.00  0.00    +0.000 OA
BRANCH  46  47
ATOM     47  C   UNL     1      53.914 223.237 319.761  0.00  0.00    +0.000 C 
ATOM     48  C   UNL     1      54.785 223.939 318.713  0.00  0.00    +0.000 C 
ATOM     49  C   UNL     1      52.816 222.444 319.035  0.00  0.00    +0.000 C 
ATOM     50  C   UNL     1      53.248 224.237 320.713  0.00  0.00    +0.000 C 
ENDBRANCH  46  47
ENDBRANCH  44  46
ENDBRANCH  35  43
ENDBRANCH  32  35
ENDBRANCH  31  32
ENDBRANCH  29  31
ENDBRANCH  18  29
BRANCH   7  51
ATOM     51  O   UNL     1      62.411 223.500 326.190  0.00  0.00    +0.000 OA
BRANCH  51  53
ATOM     52  O   UNL     1      61.380 224.017 327.833  0.00  0.00    +0.000 OA
ATOM     53  C   UNL     1      61.305 223.181 326.940  0.00  0.00    +0.000 C 
BRANCH  53  54
ATOM     54  C   UNL     1      60.249 221.603 326.678  0.00  0.00    +0.000 A 
ATOM     55  C   UNL     1      58.801 221.512 326.866  0.00  0.00    +0.000 A 
ATOM     56  C   UNL     1      60.678 220.349 326.144  0.00  0.00    +0.000 A 
ATOM     57  C   UNL     1      57.966 220.402 326.583  0.00  0.00    +0.000 A 
ATOM     58  C   UNL     1      59.855 219.223 325.853  0.00  0.00    +0.000 A 
ATOM     59  C   UNL     1      58.499 219.246 326.071  0.00  0.00    +0.000 A 
ENDBRANCH  53  54
ENDBRANCH  51  53
ENDBRANCH   7  51
BRANCH   4  60
ATOM     60  O   UNL     1      63.179 221.275 328.388  0.00  0.00    +0.000 OA
BRANCH  60  62
ATOM     61  O   UNL     1      61.429 221.044 329.762  0.00  0.00    +0.000 OA
ATOM     62  C   UNL     1      62.427 220.547 329.245  0.00  0.00    +0.000 C 
ATOM     63  C   UNL     1      62.894 219.181 329.639  0.00  0.00    +0.000 C 
ENDBRANCH  60  62
ENDBRANCH   4  60
TORSDOF 17
ENDMDL
MODEL 5
REMARK VINA RESULT:      -5.2     15.269     20.574
REMARK  Name = 
REMARK  25 active torsions:
REMARK  status: ('A' for Active; 'I' for Inactive)
REMARK    1  A    between atoms: O_2  and  C_17
REMARK    2  A    between atoms: O_2  and  C_36
REMARK    3  A    between atoms: O_3  and  C_20
REMARK    4  A    between atoms: O_3  and  C_37
REMARK    5  A    between atoms: O_4  and  C_21
REMARK    6  A    between atoms: O_5  and  C_22
REMARK    7  A    between atoms: O_7  and  C_30
REMARK    8  A    between atoms: O_8  and  C_31
REMARK    9  A    between atoms: O_8  and  C_39
REMARK   10  A    between atoms: O_12  and  C_41
REMARK   11  A    between atoms: O_13  and  C_51
REMARK   12  A    between atoms: O_13  and  C_55
REMARK   13  A    between atoms: N_15  and  C_44
REMARK   14  A    between atoms: C_18  and  C_29
REMARK   15  A    between atoms: C_24  and  C_33
REMARK   16  A    between atoms: C_24  and  C_34
REMARK   17  A    between atoms: C_32  and  C_35
REMARK   18  A    between atoms: C_36  and  C_38
REMARK   19  A    between atoms: C_37  and  C_40
REMARK   20  A    between atoms: C_39  and  C_41
REMARK   21  A    between atoms: C_41  and  C_44
REMARK   22  A    between atoms: C_44  and  C_48
REMARK   23  A    between atoms: C_55  and  C_56
REMARK   24  A    between atoms: C_55  and  C_57
REMARK   25  A    between atoms: C_55  and  C_58
REMARK                            x       y       z     vdW  Elec       q    Type
REMARK                         _______ _______ _______ _____ _____    ______ ____
ROOT
ATOM      1  O   UNL     1      71.461 213.033 335.608  0.00  0.00    +0.000 OA
ATOM      2  O   UNL     1      66.177 215.784 338.717  0.00  0.00    +0.000 OA
ATOM      3  C   UNL     1      69.266 215.686 335.586  0.00  0.00    +0.000 C 
ATOM      4  C   UNL     1      70.667 215.020 335.722  0.00  0.00    +0.000 C 
ATOM      5  C   UNL     1      68.460 215.635 337.304  0.00  0.00    +0.000 C 
ATOM      6  C   UNL     1      70.163 213.547 336.011  0.00  0.00    +0.000 C 
ATOM      7  C   UNL     1      69.324 217.243 334.564  0.00  0.00    +0.000 C 
ATOM      8  C   UNL     1      68.217 218.648 333.941  0.00  0.00    +0.000 C 
ATOM      9  C   UNL     1      68.358 214.086 337.626  0.00  0.00    +0.000 C 
ATOM     10  C   UNL     1      69.671 213.271 337.416  0.00  0.00    +0.000 C 
ATOM     11  C   UNL     1      66.572 219.074 334.456  0.00  0.00    +0.000 C 
ATOM     12  C   UNL     1      71.512 214.187 334.677  0.00  0.00    +0.000 C 
ATOM     13  C   UNL     1      66.824 216.396 337.839  0.00  0.00    +0.000 C 
ATOM     14  C   UNL     1      68.988 219.995 334.324  0.00  0.00    +0.000 C 
ATOM     15  C   UNL     1      66.482 219.263 336.043  0.00  0.00    +0.000 C 
ATOM     16  C   UNL     1      69.424 216.179 338.439  0.00  0.00    +0.000 C 
ATOM     17  C   UNL     1      65.995 218.012 337.221  0.00  0.00    +0.000 C 
ATOM     18  C   UNL     1      68.566 220.742 335.670  0.00  0.00    +0.000 C 
ATOM     19  C   UNL     1      67.303 220.276 336.480  0.00  0.00    +0.000 C 
ATOM     20  C   UNL     1      66.226 220.502 333.797  0.00  0.00    +0.000 C 
ATOM     21  C   UNL     1      65.355 218.332 333.818  0.00  0.00    +0.000 C 
ATOM     22  C   UNL     1      67.228 220.831 337.880  0.00  0.00    +0.000 C 
ENDROOT
BRANCH  17  23
ATOM     23  O   UNL     1      64.585 217.874 337.043  0.00  0.00    +0.000 OA
ATOM     24  H   UNL     1      64.188 218.351 337.796  0.00  0.00    +0.000 HD
ENDBRANCH  17  23
BRANCH   9  25
ATOM     25  O   UNL     1      67.371 213.506 336.771  0.00  0.00    +0.000 OA
ATOM     26  H   UNL     1      67.362 214.030 335.950  0.00  0.00    +0.000 HD
ENDBRANCH   9  25
BRANCH   8  27
ATOM     27  O   UNL     1      68.265 218.539 332.505  0.00  0.00    +0.000 OA
ATOM     28  H   UNL     1      68.548 219.391 332.129  0.00  0.00    +0.000 HD
ENDBRANCH   8  27
BRANCH  18  29
ATOM     29  O   UNL     1      69.698 220.675 336.584  0.00  0.00    +0.000 OA
BRANCH  29  31
ATOM     30  O   UNL     1      71.212 222.254 336.024  0.00  0.00    +0.000 OA
ATOM     31  C   UNL     1      70.387 221.820 336.820  0.00  0.00    +0.000 C 
BRANCH  31  32
ATOM     32  C   UNL     1      70.182 222.429 338.212  0.00  0.00    +0.000 C 
BRANCH  32  33
ATOM     33  O   UNL     1      70.001 223.849 338.241  0.00  0.00    +0.000 OA
ATOM     34  H   UNL     1      70.886 224.237 338.102  0.00  0.00    +0.000 HD
ENDBRANCH  32  33
BRANCH  32  35
ATOM     35  C   UNL     1      71.360 221.986 339.120  0.00  0.00    +0.000 C 
BRANCH  35  36
ATOM     36  C   UNL     1      70.900 221.166 340.320  0.00  0.00    +0.000 A 
ATOM     37  C   UNL     1      69.889 220.205 340.157  0.00  0.00    +0.000 A 
ATOM     38  C   UNL     1      71.484 221.313 341.590  0.00  0.00    +0.000 A 
ATOM     39  C   UNL     1      69.456 219.432 341.237  0.00  0.00    +0.000 A 
ATOM     40  C   UNL     1      71.049 220.540 342.668  0.00  0.00    +0.000 A 
ATOM     41  C   UNL     1      70.034 219.602 342.492  0.00  0.00    +0.000 A 
ENDBRANCH  35  36
BRANCH  35  43
ATOM     42  O   UNL     1      73.683 223.187 337.930  0.00  0.00    +0.000 OA
ATOM     43  N   UNL     1      72.123 223.131 339.599  0.00  0.00    +0.000 N 
ATOM     44  C   UNL     1      73.272 223.556 339.017  0.00  0.00    +0.000 C 
ATOM     45  H   UNL     1      71.967 223.430 340.553  0.00  0.00    +0.000 HD
BRANCH  44  46
ATOM     46  O   UNL     1      73.857 224.464 339.828  0.00  0.00    +0.000 OA
BRANCH  46  47
ATOM     47  C   UNL     1      75.034 224.118 340.602  0.00  0.00    +0.000 C 
ATOM     48  C   UNL     1      75.342 222.619 340.511  0.00  0.00    +0.000 C 
ATOM     49  C   UNL     1      76.179 224.896 339.937  0.00  0.00    +0.000 C 
ATOM     50  C   UNL     1      74.900 224.587 342.055  0.00  0.00    +0.000 C 
ENDBRANCH  46  47
ENDBRANCH  44  46
ENDBRANCH  35  43
ENDBRANCH  32  35
ENDBRANCH  31  32
ENDBRANCH  29  31
ENDBRANCH  18  29
BRANCH   7  51
ATOM     51  O   UNL     1      69.456 217.883 335.707  0.00  0.00    +0.000 OA
BRANCH  51  53
ATOM     52  O   UNL     1      70.852 217.754 334.270  0.00  0.00    +0.000 OA
ATOM     53  C   UNL     1      70.769 218.170 335.421  0.00  0.00    +0.000 C 
BRANCH  53  54
ATOM     54  C   UNL     1      72.048 218.752 336.723  0.00  0.00    +0.000 A 
ATOM     55  C   UNL     1      72.033 218.399 338.143  0.00  0.00    +0.000 A 
ATOM     56  C   UNL     1      73.253 219.485 336.490  0.00  0.00    +0.000 A 
ATOM     57  C   UNL     1      73.013 218.716 339.118  0.00  0.00    +0.000 A 
ATOM     58  C   UNL     1      74.249 219.813 337.456  0.00  0.00    +0.000 A 
ATOM     59  C   UNL     1      74.131 219.430 338.770  0.00  0.00    +0.000 A 
ENDBRANCH  53  54
ENDBRANCH  51  53
ENDBRANCH   7  51
BRANCH   4  60
ATOM     60  O   UNL     1      71.453 215.601 336.789  0.00  0.00    +0.000 OA
BRANCH  60  62
ATOM     61  O   UNL     1      72.931 214.525 338.079  0.00  0.00    +0.000 OA
ATOM     62  C   UNL     1      72.718 215.226 337.092  0.00  0.00    +0.000 C 
ATOM     63  C   UNL     1      73.850 215.772 336.282  0.00  0.00    +0.000 C 
ENDBRANCH  60  62
ENDBRANCH   4  60
TORSDOF 17
ENDMDL
MODEL 6
REMARK VINA RESULT:      -5.2      5.697     11.423
REMARK  Name = 
REMARK  25 active torsions:
REMARK  status: ('A' for Active; 'I' for Inactive)
REMARK    1  A    between atoms: O_2  and  C_17
REMARK    2  A    between atoms: O_2  and  C_36
REMARK    3  A    between atoms: O_3  and  C_20
REMARK    4  A    between atoms: O_3  and  C_37
REMARK    5  A    between atoms: O_4  and  C_21
REMARK    6  A    between atoms: O_5  and  C_22
REMARK    7  A    between atoms: O_7  and  C_30
REMARK    8  A    between atoms: O_8  and  C_31
REMARK    9  A    between atoms: O_8  and  C_39
REMARK   10  A    between atoms: O_12  and  C_41
REMARK   11  A    between atoms: O_13  and  C_51
REMARK   12  A    between atoms: O_13  and  C_55
REMARK   13  A    between atoms: N_15  and  C_44
REMARK   14  A    between atoms: C_18  and  C_29
REMARK   15  A    between atoms: C_24  and  C_33
REMARK   16  A    between atoms: C_24  and  C_34
REMARK   17  A    between atoms: C_32  and  C_35
REMARK   18  A    between atoms: C_36  and  C_38
REMARK   19  A    between atoms: C_37  and  C_40
REMARK   20  A    between atoms: C_39  and  C_41
REMARK   21  A    between atoms: C_41  and  C_44
REMARK   22  A    between atoms: C_44  and  C_48
REMARK   23  A    between atoms: C_55  and  C_56
REMARK   24  A    between atoms: C_55  and  C_57
REMARK   25  A    between atoms: C_55  and  C_58
REMARK                            x       y       z     vdW  Elec       q    Type
REMARK                         _______ _______ _______ _____ _____    ______ ____
ROOT
ATOM      1  O   UNL     1      58.359 224.607 326.372  0.00  0.00    +0.000 OA
ATOM      2  O   UNL     1      59.438 217.974 326.358  0.00  0.00    +0.000 OA
ATOM      3  C   UNL     1      60.278 222.077 327.703  0.00  0.00    +0.000 C 
ATOM      4  C   UNL     1      60.036 223.369 326.867  0.00  0.00    +0.000 C 
ATOM      5  C   UNL     1      59.969 220.603 326.549  0.00  0.00    +0.000 C 
ATOM      6  C   UNL     1      58.475 223.188 326.668  0.00  0.00    +0.000 C 
ATOM      7  C   UNL     1      61.807 222.204 328.762  0.00  0.00    +0.000 C 
ATOM      8  C   UNL     1      62.851 221.199 329.982  0.00  0.00    +0.000 C 
ATOM      9  C   UNL     1      58.449 220.767 326.128  0.00  0.00    +0.000 C 
ATOM     10  C   UNL     1      58.045 222.185 325.620  0.00  0.00    +0.000 C 
ATOM     11  C   UNL     1      62.783 219.458 330.326  0.00  0.00    +0.000 C 
ATOM     12  C   UNL     1      59.495 224.788 327.306  0.00  0.00    +0.000 C 
ATOM     13  C   UNL     1      60.224 218.774 326.911  0.00  0.00    +0.000 C 
ATOM     14  C   UNL     1      64.354 221.321 329.452  0.00  0.00    +0.000 C 
ATOM     15  C   UNL     1      62.909 218.587 328.989  0.00  0.00    +0.000 C 
ATOM     16  C   UNL     1      60.744 220.743 325.172  0.00  0.00    +0.000 C 
ATOM     17  C   UNL     1      61.550 217.947 328.024  0.00  0.00    +0.000 C 
ATOM     18  C   UNL     1      64.925 220.138 328.544  0.00  0.00    +0.000 C 
ATOM     19  C   UNL     1      64.105 218.813 328.350  0.00  0.00    +0.000 C 
ATOM     20  C   UNL     1      64.066 219.106 331.234  0.00  0.00    +0.000 C 
ATOM     21  C   UNL     1      61.738 218.924 331.357  0.00  0.00    +0.000 C 
ATOM     22  C   UNL     1      64.590 217.947 327.213  0.00  0.00    +0.000 C 
ENDROOT
BRANCH  17  23
ATOM     23  O   UNL     1      61.020 216.876 328.807  0.00  0.00    +0.000 OA
ATOM     24  H   UNL     1      61.788 216.309 329.010  0.00  0.00    +0.000 HD
ENDBRANCH  17  23
BRANCH   9  25
ATOM     25  O   UNL     1      57.629 220.486 327.264  0.00  0.00    +0.000 OA
ATOM     26  H   UNL     1      58.206 220.522 328.048  0.00  0.00    +0.000 HD
ENDBRANCH   9  25
BRANCH   8  27
ATOM     27  O   UNL     1      62.786 221.942 331.214  0.00  0.00    +0.000 OA
ATOM     28  H   UNL     1      62.556 222.867 331.017  0.00  0.00    +0.000 HD
ENDBRANCH   8  27
BRANCH  18  29
ATOM     29  O   UNL     1      65.166 220.681 327.213  0.00  0.00    +0.000 OA
BRANCH  29  31
ATOM     30  O   UNL     1      66.946 220.305 325.875  0.00  0.00    +0.000 OA
ATOM     31  C   UNL     1      66.453 220.884 326.837  0.00  0.00    +0.000 C 
BRANCH  31  32
ATOM     32  C   UNL     1      67.282 221.751 327.792  0.00  0.00    +0.000 C 
BRANCH  32  33
ATOM     33  O   UNL     1      67.628 223.051 327.299  0.00  0.00    +0.000 OA
ATOM     34  H   UNL     1      66.783 223.515 327.146  0.00  0.00    +0.000 HD
ENDBRANCH  32  33
BRANCH  32  35
ATOM     35  C   UNL     1      68.542 220.949 328.215  0.00  0.00    +0.000 C 
BRANCH  35  36
ATOM     36  C   UNL     1      68.219 219.818 329.185  0.00  0.00    +0.000 A 
ATOM     37  C   UNL     1      68.192 218.493 328.720  0.00  0.00    +0.000 A 
ATOM     38  C   UNL     1      67.981 220.053 330.549  0.00  0.00    +0.000 A 
ATOM     39  C   UNL     1      67.910 217.436 329.588  0.00  0.00    +0.000 A 
ATOM     40  C   UNL     1      67.698 218.995 331.415  0.00  0.00    +0.000 A 
ATOM     41  C   UNL     1      67.660 217.688 330.935  0.00  0.00    +0.000 A 
ENDBRANCH  35  36
BRANCH  35  43
ATOM     42  O   UNL     1      70.645 222.406 326.907  0.00  0.00    +0.000 OA
ATOM     43  N   UNL     1      69.545 221.814 328.821  0.00  0.00    +0.000 N 
ATOM     44  C   UNL     1      70.565 222.375 328.123  0.00  0.00    +0.000 C 
ATOM     45  H   UNL     1      69.668 221.756 329.823  0.00  0.00    +0.000 HD
BRANCH  44  46
ATOM     46  O   UNL     1      71.445 222.906 328.997  0.00  0.00    +0.000 OA
BRANCH  46  47
ATOM     47  C   UNL     1      71.502 224.340 329.213  0.00  0.00    +0.000 C 
ATOM     48  C   UNL     1      70.104 224.966 329.184  0.00  0.00    +0.000 C 
ATOM     49  C   UNL     1      72.082 224.498 330.627  0.00  0.00    +0.000 C 
ATOM     50  C   UNL     1      72.451 225.014 328.216  0.00  0.00    +0.000 C 
ENDBRANCH  46  47
ENDBRANCH  44  46
ENDBRANCH  35  43
ENDBRANCH  32  35
ENDBRANCH  31  32
ENDBRANCH  29  31
ENDBRANCH  18  29
BRANCH   7  51
ATOM     51  O   UNL     1      62.437 221.612 327.769  0.00  0.00    +0.000 OA
BRANCH  51  53
ATOM     52  O   UNL     1      62.703 223.512 328.361  0.00  0.00    +0.000 OA
ATOM     53  C   UNL     1      63.080 222.783 327.449  0.00  0.00    +0.000 C 
BRANCH  53  54
ATOM     54  C   UNL     1      63.998 223.087 325.795  0.00  0.00    +0.000 A 
ATOM     55  C   UNL     1      63.846 222.283 324.582  0.00  0.00    +0.000 A 
ATOM     56  C   UNL     1      64.842 224.190 325.459  0.00  0.00    +0.000 A 
ATOM     57  C   UNL     1      64.420 222.531 323.309  0.00  0.00    +0.000 A 
ATOM     58  C   UNL     1      65.428 224.456 324.187  0.00  0.00    +0.000 A 
ATOM     59  C   UNL     1      65.218 223.629 323.111  0.00  0.00    +0.000 A 
ENDBRANCH  53  54
ENDBRANCH  51  53
ENDBRANCH   7  51
BRANCH   4  60
ATOM     60  O   UNL     1      60.795 223.380 325.636  0.00  0.00    +0.000 OA
BRANCH  60  62
ATOM     61  O   UNL     1      60.290 224.311 323.666  0.00  0.00    +0.000 OA
ATOM     62  C   UNL     1      60.822 224.418 324.769  0.00  0.00    +0.000 C 
ATOM     63  C   UNL     1      61.603 225.643 325.126  0.00  0.00    +0.000 C 
ENDBRANCH  60  62
ENDBRANCH   4  60
TORSDOF 17
ENDMDL
MODEL 7
REMARK VINA RESULT:      -5.2      1.594      3.159
REMARK  Name = 
REMARK  25 active torsions:
REMARK  status: ('A' for Active; 'I' for Inactive)
REMARK    1  A    between atoms: O_2  and  C_17
REMARK    2  A    between atoms: O_2  and  C_36
REMARK    3  A    between atoms: O_3  and  C_20
REMARK    4  A    between atoms: O_3  and  C_37
REMARK    5  A    between atoms: O_4  and  C_21
REMARK    6  A    between atoms: O_5  and  C_22
REMARK    7  A    between atoms: O_7  and  C_30
REMARK    8  A    between atoms: O_8  and  C_31
REMARK    9  A    between atoms: O_8  and  C_39
REMARK   10  A    between atoms: O_12  and  C_41
REMARK   11  A    between atoms: O_13  and  C_51
REMARK   12  A    between atoms: O_13  and  C_55
REMARK   13  A    between atoms: N_15  and  C_44
REMARK   14  A    between atoms: C_18  and  C_29
REMARK   15  A    between atoms: C_24  and  C_33
REMARK   16  A    between atoms: C_24  and  C_34
REMARK   17  A    between atoms: C_32  and  C_35
REMARK   18  A    between atoms: C_36  and  C_38
REMARK   19  A    between atoms: C_37  and  C_40
REMARK   20  A    between atoms: C_39  and  C_41
REMARK   21  A    between atoms: C_41  and  C_44
REMARK   22  A    between atoms: C_44  and  C_48
REMARK   23  A    between atoms: C_55  and  C_56
REMARK   24  A    between atoms: C_55  and  C_57
REMARK   25  A    between atoms: C_55  and  C_58
REMARK                            x       y       z     vdW  Elec       q    Type
REMARK                         _______ _______ _______ _____ _____    ______ ____
ROOT
ATOM      1  O   UNL     1      65.293 223.844 326.493  0.00  0.00    +0.000 OA
ATOM      2  O   UNL     1      58.670 223.487 327.572  0.00  0.00    +0.000 OA
ATOM      3  C   UNL     1      62.260 223.056 325.066  0.00  0.00    +0.000 C 
ATOM      4  C   UNL     1      63.571 223.883 325.219  0.00  0.00    +0.000 C 
ATOM      5  C   UNL     1      60.982 223.824 326.240  0.00  0.00    +0.000 C 
ATOM      6  C   UNL     1      63.910 223.450 326.704  0.00  0.00    +0.000 C 
ATOM      7  C   UNL     1      61.869 222.683 323.282  0.00  0.00    +0.000 C 
ATOM      8  C   UNL     1      60.564 221.844 322.196  0.00  0.00    +0.000 C 
ATOM      9  C   UNL     1      61.635 223.650 327.674  0.00  0.00    +0.000 C 
ATOM     10  C   UNL     1      63.114 224.129 327.798  0.00  0.00    +0.000 C 
ATOM     11  C   UNL     1      58.935 221.297 322.645  0.00  0.00    +0.000 C 
ATOM     12  C   UNL     1      65.083 223.442 325.082  0.00  0.00    +0.000 C 
ATOM     13  C   UNL     1      59.164 223.374 326.428  0.00  0.00    +0.000 C 
ATOM     14  C   UNL     1      60.199 222.917 321.070  0.00  0.00    +0.000 C 
ATOM     15  C   UNL     1      58.089 222.468 323.332  0.00  0.00    +0.000 C 
ATOM     16  C   UNL     1      60.880 225.398 326.076  0.00  0.00    +0.000 C 
ATOM     17  C   UNL     1      57.936 222.760 325.088  0.00  0.00    +0.000 C 
ATOM     18  C   UNL     1      58.907 223.828 321.295  0.00  0.00    +0.000 C 
ATOM     19  C   UNL     1      57.922 223.537 322.483  0.00  0.00    +0.000 C 
ATOM     20  C   UNL     1      58.174 220.912 321.279  0.00  0.00    +0.000 C 
ATOM     21  C   UNL     1      58.755 219.891 323.301  0.00  0.00    +0.000 C 
ATOM     22  C   UNL     1      56.961 224.663 322.778  0.00  0.00    +0.000 C 
ENDROOT
BRANCH  17  23
ATOM     23  O   UNL     1      57.085 221.714 325.558  0.00  0.00    +0.000 OA
ATOM     24  H   UNL     1      56.422 222.162 326.116  0.00  0.00    +0.000 HD
ENDBRANCH  17  23
BRANCH   9  25
ATOM     25  O   UNL     1      61.621 222.263 328.017  0.00  0.00    +0.000 OA
ATOM     26  H   UNL     1      62.298 222.133 328.705  0.00  0.00    +0.000 HD
ENDBRANCH   9  25
BRANCH   8  27
ATOM     27  O   UNL     1      61.272 220.776 321.536  0.00  0.00    +0.000 OA
ATOM     28  H   UNL     1      60.717 219.976 321.539  0.00  0.00    +0.000 HD
ENDBRANCH   8  27
BRANCH  18  29
ATOM     29  O   UNL     1      59.360 225.203 321.452  0.00  0.00    +0.000 OA
BRANCH  29  31
ATOM     30  O   UNL     1      59.035 227.319 320.733  0.00  0.00    +0.000 OA
ATOM     31  C   UNL     1      58.952 226.112 320.532  0.00  0.00    +0.000 C 
BRANCH  31  32
ATOM     32  C   UNL     1      58.236 225.526 319.310  0.00  0.00    +0.000 C 
BRANCH  32  33
ATOM     33  O   UNL     1      58.921 225.680 318.062  0.00  0.00    +0.000 OA
ATOM     34  H   UNL     1      58.236 225.621 317.369  0.00  0.00    +0.000 HD
ENDBRANCH  32  33
BRANCH  32  35
ATOM     35  C   UNL     1      56.803 226.119 319.250  0.00  0.00    +0.000 C 
BRANCH  35  36
ATOM     36  C   UNL     1      55.720 225.054 319.386  0.00  0.00    +0.000 A 
ATOM     37  C   UNL     1      56.053 223.701 319.215  0.00  0.00    +0.000 A 
ATOM     38  C   UNL     1      54.394 225.381 319.717  0.00  0.00    +0.000 A 
ATOM     39  C   UNL     1      55.083 222.704 319.346  0.00  0.00    +0.000 A 
ATOM     40  C   UNL     1      53.426 224.382 319.846  0.00  0.00    +0.000 A 
ATOM     41  C   UNL     1      53.770 223.045 319.657  0.00  0.00    +0.000 A 
ENDBRANCH  35  36
BRANCH  35  43
ATOM     42  O   UNL     1      56.812 228.966 318.860  0.00  0.00    +0.000 OA
ATOM     43  N   UNL     1      56.582 226.856 318.012  0.00  0.00    +0.000 N 
ATOM     44  C   UNL     1      56.503 228.209 317.956  0.00  0.00    +0.000 C 
ATOM     45  H   UNL     1      56.181 226.351 317.233  0.00  0.00    +0.000 HD
BRANCH  44  46
ATOM     46  O   UNL     1      56.054 228.564 316.733  0.00  0.00    +0.000 OA
BRANCH  46  47
ATOM     47  C   UNL     1      54.731 229.134 316.565  0.00  0.00    +0.000 C 
ATOM     48  C   UNL     1      54.786 230.663 316.482  0.00  0.00    +0.000 C 
ATOM     49  C   UNL     1      54.239 228.586 315.216  0.00  0.00    +0.000 C 
ATOM     50  C   UNL     1      53.777 228.655 317.665  0.00  0.00    +0.000 C 
ENDBRANCH  46  47
ENDBRANCH  44  46
ENDBRANCH  35  43
ENDBRANCH  32  35
ENDBRANCH  31  32
ENDBRANCH  29  31
ENDBRANCH  18  29
BRANCH   7  51
ATOM     51  O   UNL     1      61.119 223.764 323.312  0.00  0.00    +0.000 OA
BRANCH  51  53
ATOM     52  O   UNL     1      62.823 223.544 322.273  0.00  0.00    +0.000 OA
ATOM     53  C   UNL     1      62.011 224.433 322.510  0.00  0.00    +0.000 C 
BRANCH  53  54
ATOM     54  C   UNL     1      61.995 226.329 322.235  0.00  0.00    +0.000 A 
ATOM     55  C   UNL     1      61.515 227.320 323.198  0.00  0.00    +0.000 A 
ATOM     56  C   UNL     1      62.558 227.053 321.140  0.00  0.00    +0.000 A 
ATOM     57  C   UNL     1      61.581 228.732 323.083  0.00  0.00    +0.000 A 
ATOM     58  C   UNL     1      62.635 228.470 321.006  0.00  0.00    +0.000 A 
ATOM     59  C   UNL     1      62.147 229.312 321.977  0.00  0.00    +0.000 A 
ENDBRANCH  53  54
ENDBRANCH  51  53
ENDBRANCH   7  51
BRANCH   4  60
ATOM     60  O   UNL     1      63.352 225.303 325.048  0.00  0.00    +0.000 OA
BRANCH  60  62
ATOM     61  O   UNL     1      64.504 226.954 326.023  0.00  0.00    +0.000 OA
ATOM     62  C   UNL     1      64.338 226.229 325.044  0.00  0.00    +0.000 C 
ATOM     63  C   UNL     1      65.138 226.433 323.796  0.00  0.00    +0.000 C 
ENDBRANCH  60  62
ENDBRANCH   4  60
TORSDOF 17
ENDMDL
MODEL 8
REMARK VINA RESULT:      -5.2      4.149     10.224
REMARK  Name = 
REMARK  25 active torsions:
REMARK  status: ('A' for Active; 'I' for Inactive)
REMARK    1  A    between atoms: O_2  and  C_17
REMARK    2  A    between atoms: O_2  and  C_36
REMARK    3  A    between atoms: O_3  and  C_20
REMARK    4  A    between atoms: O_3  and  C_37
REMARK    5  A    between atoms: O_4  and  C_21
REMARK    6  A    between atoms: O_5  and  C_22
REMARK    7  A    between atoms: O_7  and  C_30
REMARK    8  A    between atoms: O_8  and  C_31
REMARK    9  A    between atoms: O_8  and  C_39
REMARK   10  A    between atoms: O_12  and  C_41
REMARK   11  A    between atoms: O_13  and  C_51
REMARK   12  A    between atoms: O_13  and  C_55
REMARK   13  A    between atoms: N_15  and  C_44
REMARK   14  A    between atoms: C_18  and  C_29
REMARK   15  A    between atoms: C_24  and  C_33
REMARK   16  A    between atoms: C_24  and  C_34
REMARK   17  A    between atoms: C_32  and  C_35
REMARK   18  A    between atoms: C_36  and  C_38
REMARK   19  A    between atoms: C_37  and  C_40
REMARK   20  A    between atoms: C_39  and  C_41
REMARK   21  A    between atoms: C_41  and  C_44
REMARK   22  A    between atoms: C_44  and  C_48
REMARK   23  A    between atoms: C_55  and  C_56
REMARK   24  A    between atoms: C_55  and  C_57
REMARK   25  A    between atoms: C_55  and  C_58
REMARK                            x       y       z     vdW  Elec       q    Type
REMARK                         _______ _______ _______ _____ _____    ______ ____
ROOT
ATOM      1  O   UNL     1      64.985 228.203 323.297  0.00  0.00    +0.000 OA
ATOM      2  O   UNL     1      59.352 225.009 321.499  0.00  0.00    +0.000 OA
ATOM      3  C   UNL     1      62.480 226.108 324.390  0.00  0.00    +0.000 C 
ATOM      4  C   UNL     1      63.950 226.476 324.032  0.00  0.00    +0.000 C 
ATOM      5  C   UNL     1      61.659 225.495 322.793  0.00  0.00    +0.000 C 
ATOM      6  C   UNL     1      63.626 227.721 323.108  0.00  0.00    +0.000 C 
ATOM      7  C   UNL     1      62.364 225.162 325.992  0.00  0.00    +0.000 C 
ATOM      8  C   UNL     1      61.103 224.314 327.123  0.00  0.00    +0.000 C 
ATOM      9  C   UNL     1      61.743 226.745 321.822  0.00  0.00    +0.000 C 
ATOM     10  C   UNL     1      63.149 227.408 321.706  0.00  0.00    +0.000 C 
ATOM     11  C   UNL     1      59.410 223.902 326.781  0.00  0.00    +0.000 C 
ATOM     12  C   UNL     1      64.908 227.578 324.639  0.00  0.00    +0.000 C 
ATOM     13  C   UNL     1      59.933 224.773 322.581  0.00  0.00    +0.000 C 
ATOM     14  C   UNL     1      61.696 222.856 327.398  0.00  0.00    +0.000 C 
ATOM     15  C   UNL     1      59.271 223.048 325.435  0.00  0.00    +0.000 C 
ATOM     16  C   UNL     1      62.530 224.398 322.049  0.00  0.00    +0.000 C 
ATOM     17  C   UNL     1      58.922 223.703 323.810  0.00  0.00    +0.000 C 
ATOM     18  C   UNL     1      61.163 221.649 326.499  0.00  0.00    +0.000 C 
ATOM     19  C   UNL     1      59.954 221.858 325.518  0.00  0.00    +0.000 C 
ATOM     20  C   UNL     1      58.902 222.960 327.985  0.00  0.00    +0.000 C 
ATOM     21  C   UNL     1      58.304 224.986 326.983  0.00  0.00    +0.000 C 
ATOM     22  C   UNL     1      59.788 220.757 324.500  0.00  0.00    +0.000 C 
ENDROOT
BRANCH  17  23
ATOM     23  O   UNL     1      57.543 224.070 323.854  0.00  0.00    +0.000 OA
ATOM     24  H   UNL     1      57.533 224.964 324.245  0.00  0.00    +0.000 HD
ENDBRANCH  17  23
BRANCH   9  25
ATOM     25  O   UNL     1      60.849 227.752 322.298  0.00  0.00    +0.000 OA
ATOM     26  H   UNL     1      61.103 228.586 321.863  0.00  0.00    +0.000 HD
ENDBRANCH   9  25
BRANCH   8  27
ATOM     27  O   UNL     1      61.187 225.036 328.367  0.00  0.00    +0.000 OA
ATOM     28  H   UNL     1      61.427 224.418 329.079  0.00  0.00    +0.000 HD
ENDBRANCH   8  27
BRANCH  18  29
ATOM     29  O   UNL     1      62.280 221.174 325.693  0.00  0.00    +0.000 OA
BRANCH  29  31
ATOM     30  O   UNL     1      62.161 218.934 325.950  0.00  0.00    +0.000 OA
ATOM     31  C   UNL     1      62.817 219.968 326.006  0.00  0.00    +0.000 C 
BRANCH  31  32
ATOM     32  C   UNL     1      64.235 220.017 326.585  0.00  0.00    +0.000 C 
BRANCH  32  33
ATOM     33  O   UNL     1      65.077 218.909 326.246  0.00  0.00    +0.000 OA
ATOM     34  H   UNL     1      64.596 218.404 325.564  0.00  0.00    +0.000 HD
ENDBRANCH  32  33
BRANCH  32  35
ATOM     35  C   UNL     1      64.130 220.203 328.123  0.00  0.00    +0.000 C 
BRANCH  35  36
ATOM     36  C   UNL     1      65.489 220.410 328.783  0.00  0.00    +0.000 A 
ATOM     37  C   UNL     1      66.218 221.580 328.517  0.00  0.00    +0.000 A 
ATOM     38  C   UNL     1      66.026 219.477 329.687  0.00  0.00    +0.000 A 
ATOM     39  C   UNL     1      67.460 221.800 329.117  0.00  0.00    +0.000 A 
ATOM     40  C   UNL     1      67.268 219.699 330.284  0.00  0.00    +0.000 A 
ATOM     41  C   UNL     1      67.986 220.858 329.997  0.00  0.00    +0.000 A 
ENDBRANCH  35  36
BRANCH  35  43
ATOM     42  O   UNL     1      61.689 220.193 329.638  0.00  0.00    +0.000 OA
ATOM     43  N   UNL     1      63.471 219.068 328.753  0.00  0.00    +0.000 N 
ATOM     44  C   UNL     1      62.371 219.188 329.540  0.00  0.00    +0.000 C 
ATOM     45  H   UNL     1      64.006 218.216 328.861  0.00  0.00    +0.000 HD
BRANCH  44  46
ATOM     46  O   UNL     1      62.154 218.009 330.161  0.00  0.00    +0.000 OA
BRANCH  46  47
ATOM     47  C   UNL     1      62.786 217.714 331.433  0.00  0.00    +0.000 C 
ATOM     48  C   UNL     1      63.319 218.986 332.101  0.00  0.00    +0.000 C 
ATOM     49  C   UNL     1      61.658 217.138 332.303  0.00  0.00    +0.000 C 
ATOM     50  C   UNL     1      63.877 216.649 331.277  0.00  0.00    +0.000 C 
ENDBRANCH  46  47
ENDBRANCH  44  46
ENDBRANCH  35  43
ENDBRANCH  32  35
ENDBRANCH  31  32
ENDBRANCH  29  31
ENDBRANCH  18  29
BRANCH   7  51
ATOM     51  O   UNL     1      62.397 224.075 325.250  0.00  0.00    +0.000 OA
BRANCH  51  53
ATOM     52  O   UNL     1      63.819 224.638 326.551  0.00  0.00    +0.000 OA
ATOM     53  C   UNL     1      63.683 223.811 325.655  0.00  0.00    +0.000 C 
BRANCH  53  54
ATOM     54  C   UNL     1      64.887 222.653 324.718  0.00  0.00    +0.000 A 
ATOM     55  C   UNL     1      64.605 221.989 323.445  0.00  0.00    +0.000 A 
ATOM     56  C   UNL     1      66.253 222.377 325.036  0.00  0.00    +0.000 A 
ATOM     57  C   UNL     1      65.499 221.212 322.664  0.00  0.00    +0.000 A 
ATOM     58  C   UNL     1      67.166 221.600 324.265  0.00  0.00    +0.000 A 
ATOM     59  C   UNL     1      66.792 221.017 323.079  0.00  0.00    +0.000 A 
ENDBRANCH  53  54
ENDBRANCH  51  53
ENDBRANCH   7  51
BRANCH   4  60
ATOM     60  O   UNL     1      64.642 225.399 323.358  0.00  0.00    +0.000 OA
BRANCH  60  62
ATOM     61  O   UNL     1      66.797 225.498 323.951  0.00  0.00    +0.000 OA
ATOM     62  C   UNL     1      65.960 225.414 323.054  0.00  0.00    +0.000 C 
ATOM     63  C   UNL     1      66.373 225.446 321.617  0.00  0.00    +0.000 C 
ENDBRANCH  60  62
ENDBRANCH   4  60
TORSDOF 17
ENDMDL
MODEL 9
REMARK VINA RESULT:      -5.1     21.664     27.614
REMARK  Name = 
REMARK  25 active torsions:
REMARK  status: ('A' for Active; 'I' for Inactive)
REMARK    1  A    between atoms: O_2  and  C_17
REMARK    2  A    between atoms: O_2  and  C_36
REMARK    3  A    between atoms: O_3  and  C_20
REMARK    4  A    between atoms: O_3  and  C_37
REMARK    5  A    between atoms: O_4  and  C_21
REMARK    6  A    between atoms: O_5  and  C_22
REMARK    7  A    between atoms: O_7  and  C_30
REMARK    8  A    between atoms: O_8  and  C_31
REMARK    9  A    between atoms: O_8  and  C_39
REMARK   10  A    between atoms: O_12  and  C_41
REMARK   11  A    between atoms: O_13  and  C_51
REMARK   12  A    between atoms: O_13  and  C_55
REMARK   13  A    between atoms: N_15  and  C_44
REMARK   14  A    between atoms: C_18  and  C_29
REMARK   15  A    between atoms: C_24  and  C_33
REMARK   16  A    between atoms: C_24  and  C_34
REMARK   17  A    between atoms: C_32  and  C_35
REMARK   18  A    between atoms: C_36  and  C_38
REMARK   19  A    between atoms: C_37  and  C_40
REMARK   20  A    between atoms: C_39  and  C_41
REMARK   21  A    between atoms: C_41  and  C_44
REMARK   22  A    between atoms: C_44  and  C_48
REMARK   23  A    between atoms: C_55  and  C_56
REMARK   24  A    between atoms: C_55  and  C_57
REMARK   25  A    between atoms: C_55  and  C_58
REMARK                            x       y       z     vdW  Elec       q    Type
REMARK                         _______ _______ _______ _____ _____    ______ ____
ROOT
ATOM      1  O   UNL     1      77.663 224.250 350.638  0.00  0.00    +0.000 OA
ATOM      2  O   UNL     1      71.001 224.059 349.784  0.00  0.00    +0.000 OA
ATOM      3  C   UNL     1      75.035 222.326 349.521  0.00  0.00    +0.000 C 
ATOM      4  C   UNL     1      76.356 223.135 349.358  0.00  0.00    +0.000 C 
ATOM      5  C   UNL     1      73.604 223.558 349.335  0.00  0.00    +0.000 C 
ATOM      6  C   UNL     1      76.234 223.988 350.687  0.00  0.00    +0.000 C 
ATOM      7  C   UNL     1      75.081 220.712 348.590  0.00  0.00    +0.000 C 
ATOM      8  C   UNL     1      74.009 219.203 348.187  0.00  0.00    +0.000 C 
ATOM      9  C   UNL     1      73.830 224.581 350.526  0.00  0.00    +0.000 C 
ATOM     10  C   UNL     1      75.274 225.158 350.646  0.00  0.00    +0.000 C 
ATOM     11  C   UNL     1      72.263 218.989 348.430  0.00  0.00    +0.000 C 
ATOM     12  C   UNL     1      77.781 222.914 350.007  0.00  0.00    +0.000 C 
ATOM     13  C   UNL     1      71.758 223.193 349.294  0.00  0.00    +0.000 C 
ATOM     14  C   UNL     1      74.094 219.036 346.600  0.00  0.00    +0.000 C 
ATOM     15  C   UNL     1      71.425 220.177 347.761  0.00  0.00    +0.000 C 
ATOM     16  C   UNL     1      73.754 224.467 348.043  0.00  0.00    +0.000 C 
ATOM     17  C   UNL     1      70.857 221.653 348.589  0.00  0.00    +0.000 C 
ATOM     18  C   UNL     1      72.918 219.659 345.718  0.00  0.00    +0.000 C 
ATOM     19  C   UNL     1      71.626 220.235 346.402  0.00  0.00    +0.000 C 
ATOM     20  C   UNL     1      71.844 217.635 347.665  0.00  0.00    +0.000 C 
ATOM     21  C   UNL     1      71.737 218.524 349.825  0.00  0.00    +0.000 C 
ATOM     22  C   UNL     1      70.776 221.089 345.494  0.00  0.00    +0.000 C 
ENDROOT
BRANCH  17  23
ATOM     23  O   UNL     1      69.784 221.214 349.422  0.00  0.00    +0.000 OA
ATOM     24  H   UNL     1      69.703 220.258 349.244  0.00  0.00    +0.000 HD
ENDBRANCH  17  23
BRANCH   9  25
ATOM     25  O   UNL     1      73.547 223.916 351.758  0.00  0.00    +0.000 OA
ATOM     26  H   UNL     1      72.669 223.505 351.665  0.00  0.00    +0.000 HD
ENDBRANCH   9  25
BRANCH   8  27
ATOM     27  O   UNL     1      74.721 218.088 348.759  0.00  0.00    +0.000 OA
ATOM     28  H   UNL     1      74.370 217.908 349.649  0.00  0.00    +0.000 HD
ENDBRANCH   8  27
BRANCH  18  29
ATOM     29  O   UNL     1      73.488 220.737 344.921  0.00  0.00    +0.000 OA
BRANCH  29  31
ATOM     30  O   UNL     1      73.733 221.528 342.821  0.00  0.00    +0.000 OA
ATOM     31  C   UNL     1      73.496 220.589 343.573  0.00  0.00    +0.000 C 
BRANCH  31  32
ATOM     32  C   UNL     1      73.029 219.221 343.064  0.00  0.00    +0.000 C 
BRANCH  32  33
ATOM     33  O   UNL     1      73.914 218.572 342.143  0.00  0.00    +0.000 OA
ATOM     34  H   UNL     1      74.548 218.069 342.688  0.00  0.00    +0.000 HD
ENDBRANCH  32  33
BRANCH  32  35
ATOM     35  C   UNL     1      71.604 219.378 342.470  0.00  0.00    +0.000 C 
BRANCH  35  36
ATOM     36  C   UNL     1      70.727 218.155 342.716  0.00  0.00    +0.000 A 
ATOM     37  C   UNL     1      71.046 217.272 343.760  0.00  0.00    +0.000 A 
ATOM     38  C   UNL     1      69.578 217.899 341.949  0.00  0.00    +0.000 A 
ATOM     39  C   UNL     1      70.253 216.151 344.014  0.00  0.00    +0.000 A 
ATOM     40  C   UNL     1      68.787 216.776 342.205  0.00  0.00    +0.000 A 
ATOM     41  C   UNL     1      69.127 215.902 343.235  0.00  0.00    +0.000 A 
ENDBRANCH  35  36
BRANCH  35  43
ATOM     42  O   UNL     1      70.917 221.806 341.095  0.00  0.00    +0.000 OA
ATOM     43  N   UNL     1      71.650 219.642 341.038  0.00  0.00    +0.000 N 
ATOM     44  C   UNL     1      71.202 220.794 340.478  0.00  0.00    +0.000 C 
ATOM     45  H   UNL     1      71.733 218.847 340.418  0.00  0.00    +0.000 HD
BRANCH  44  46
ATOM     46  O   UNL     1      71.154 220.633 339.138  0.00  0.00    +0.000 OA
BRANCH  46  47
ATOM     47  C   UNL     1      69.908 220.805 338.415  0.00  0.00    +0.000 C 
ATOM     48  C   UNL     1      69.533 222.285 338.291  0.00  0.00    +0.000 C 
ATOM     49  C   UNL     1      70.193 220.251 337.011  0.00  0.00    +0.000 C 
ATOM     50  C   UNL     1      68.781 219.980 339.048  0.00  0.00    +0.000 C 
ENDBRANCH  46  47
ENDBRANCH  44  46
ENDBRANCH  35  43
ENDBRANCH  32  35
ENDBRANCH  31  32
ENDBRANCH  29  31
ENDBRANCH  18  29
BRANCH   7  51
ATOM     51  O   UNL     1      74.496 221.363 347.607  0.00  0.00    +0.000 OA
BRANCH  51  53
ATOM     52  O   UNL     1      76.350 220.594 347.558  0.00  0.00    +0.000 OA
ATOM     53  C   UNL     1      75.649 221.322 346.862  0.00  0.00    +0.000 C 
BRANCH  53  54
ATOM     54  C   UNL     1      75.988 222.442 345.346  0.00  0.00    +0.000 A 
ATOM     55  C   UNL     1      76.871 222.109 344.227  0.00  0.00    +0.000 A 
ATOM     56  C   UNL     1      75.347 223.675 345.015  0.00  0.00    +0.000 A 
ATOM     57  C   UNL     1      77.070 222.855 343.037  0.00  0.00    +0.000 A 
ATOM     58  C   UNL     1      75.533 224.439 343.826  0.00  0.00    +0.000 A 
ATOM     59  C   UNL     1      76.394 224.031 342.836  0.00  0.00    +0.000 A 
ENDBRANCH  53  54
ENDBRANCH  51  53
ENDBRANCH   7  51
BRANCH   4  60
ATOM     60  O   UNL     1      76.375 223.923 348.145  0.00  0.00    +0.000 OA
BRANCH  60  62
ATOM     61  O   UNL     1      77.379 225.907 347.902  0.00  0.00    +0.000 OA
ATOM     62  C   UNL     1      77.419 224.688 347.751  0.00  0.00    +0.000 C 
ATOM     63  C   UNL     1      78.560 224.043 347.029  0.00  0.00    +0.000 C 
ENDBRANCH  60  62
ENDBRANCH   4  60
TORSDOF 17
ENDMDL
