MODEL 1
REMARK VINA RESULT:      -6.4      0.000      0.000
REMARK  Name = 
REMARK  13 active torsions:
REMARK  status: ('A' for Active; 'I' for Inactive)
REMARK    1  A    between atoms: O_1  and  C_13
REMARK    2  A    between atoms: O_1  and  C_19
REMARK    3  A    between atoms: O_3  and  C_14
REMARK    4  A    between atoms: O_4  and  C_22
REMARK    5  A    between atoms: O_5  and  C_24
REMARK    6  A    between atoms: O_6  and  C_26
REMARK    7  A    between atoms: O_8  and  C_30
REMARK    8  A    between atoms: O_11  and  C_35
REMARK    9  A    between atoms: O_11  and  C_39
REMARK   10  A    between atoms: N_12  and  C_21
REMARK   11  A    between atoms: C_14  and  C_25
REMARK   12  A    between atoms: C_23  and  C_29
REMARK   13  A    between atoms: C_25  and  C_30
REMARK                            x       y       z     vdW  Elec       q    Type
REMARK                         _______ _______ _______ _____ _____    ______ ____
ROOT
ATOM      1  O   UNL     1      44.819 240.856 326.803  0.00  0.00    +0.000 OA
ATOM      2  O   UNL     1      49.122 238.138 325.268  0.00  0.00    +0.000 OA
ATOM      3  C   UNL     1      48.672 243.997 328.068  0.00  0.00    +0.000 C 
ATOM      4  C   UNL     1      51.193 243.748 328.042  0.00  0.00    +0.000 C 
ATOM      5  C   UNL     1      50.006 244.676 327.753  0.00  0.00    +0.000 C 
ATOM      6  C   UNL     1      51.097 242.466 327.203  0.00  0.00    +0.000 C 
ATOM      7  C   UNL     1      48.550 242.648 327.387  0.00  0.00    +0.000 A 
ATOM      8  C   UNL     1      49.694 241.915 327.016  0.00  0.00    +0.000 A 
ATOM      9  C   UNL     1      47.279 242.083 327.168  0.00  0.00    +0.000 A 
ATOM     10  C   UNL     1      49.534 240.655 326.413  0.00  0.00    +0.000 A 
ATOM     11  C   UNL     1      47.128 240.815 326.574  0.00  0.00    +0.000 A 
ATOM     12  C   UNL     1      48.260 240.103 326.195  0.00  0.00    +0.000 A 
ATOM     13  C   UNL     1      45.783 240.235 326.365  0.00  0.00    +0.000 C 
ATOM     14  C   UNL     1      48.117 238.775 325.569  0.00  0.00    +0.000 C 
ATOM     15  C   UNL     1      45.631 238.934 325.671  0.00  0.00    +0.000 A 
ATOM     16  C   UNL     1      46.776 238.227 325.299  0.00  0.00    +0.000 A 
ATOM     17  C   UNL     1      44.375 238.378 325.382  0.00  0.00    +0.000 A 
ATOM     18  C   UNL     1      46.672 236.985 324.653  0.00  0.00    +0.000 A 
ATOM     19  C   UNL     1      44.273 237.153 324.714  0.00  0.00    +0.000 A 
ATOM     20  C   UNL     1      45.421 236.451 324.359  0.00  0.00    +0.000 A 
ENDROOT
BRANCH   4  21
ATOM     21  O   UNL     1      51.248 243.419 329.436  0.00  0.00    +0.000 OA
ATOM     22  H   UNL     1      51.316 242.443 329.499  0.00  0.00    +0.000 HD
ENDBRANCH   4  21
BRANCH   9  23
ATOM     23  O   UNL     1      46.191 242.827 327.559  0.00  0.00    +0.000 OA
ATOM     24  H   UNL     1      45.377 242.415 327.186  0.00  0.00    +0.000 HD
ENDBRANCH   9  23
BRANCH  10  25
ATOM     25  O   UNL     1      50.683 239.997 326.046  0.00  0.00    +0.000 OA
ATOM     26  H   UNL     1      51.346 240.088 326.768  0.00  0.00    +0.000 HD
ENDBRANCH  10  25
BRANCH   4  28
ATOM     27  O   UNL     1      53.578 243.861 327.540  0.00  0.00    +0.000 OA
ATOM     28  C   UNL     1      52.510 244.464 327.695  0.00  0.00    +0.000 C 
BRANCH  28  29
ATOM     29  C   UNL     1      52.465 245.984 327.564  0.00  0.00    +0.000 C 
BRANCH  29  30
ATOM     30  O   UNL     1      53.237 246.614 328.580  0.00  0.00    +0.000 OA
ATOM     31  H   UNL     1      53.086 246.095 329.396  0.00  0.00    +0.000 HD
ENDBRANCH  29  30
ENDBRANCH  28  29
ENDBRANCH   4  28
BRANCH  17  32
ATOM     32  O   UNL     1      43.208 239.048 325.639  0.00  0.00    +0.000 OA
ATOM     33  C   UNL     1      42.084 238.181 325.475  0.00  0.00    +0.000 C 
ENDBRANCH  17  32
BRANCH   3  34
ATOM     34  O   UNL     1      48.605 243.742 329.481  0.00  0.00    +0.000 OA
BRANCH  34  36
ATOM     35  O   UNL     1      48.594 245.750 330.713  0.00  0.00    +0.000 OA
ATOM     36  C   UNL     1      47.797 244.701 330.169  0.00  0.00    +0.000 C 
ATOM     37  C   UNL     1      46.974 243.985 331.243  0.00  0.00    +0.000 C 
ATOM     38  C   UNL     1      47.867 243.504 332.389  0.00  0.00    +0.000 C 
ATOM     39  C   UNL     1      48.693 244.687 332.933  0.00  0.00    +0.000 C 
ATOM     40  C   UNL     1      49.469 245.331 331.768  0.00  0.00    +0.000 C 
ATOM     41  C   UNL     1      50.262 246.559 332.201  0.00  0.00    +0.000 C 
BRANCH  38  42
ATOM     42  N   UNL     1      47.058 242.901 333.463  0.00  0.00    +0.000 NA
ATOM     43  H   UNL     1      47.468 242.016 333.754  0.00  0.00    +0.000 HD
ATOM     44  H   UNL     1      46.146 242.671 333.054  0.00  0.00    +0.000 HD
ENDBRANCH  38  42
BRANCH  39  45
ATOM     45  O   UNL     1      47.789 245.623 333.549  0.00  0.00    +0.000 OA
ATOM     46  H   UNL     1      48.050 245.710 334.481  0.00  0.00    +0.000 HD
ENDBRANCH  39  45
ENDBRANCH  34  36
ENDBRANCH   3  34
TORSDOF 11
ENDMDL
MODEL 2
REMARK VINA RESULT:      -6.2     29.215     31.068
REMARK  Name = 
REMARK  13 active torsions:
REMARK  status: ('A' for Active; 'I' for Inactive)
REMARK    1  A    between atoms: O_1  and  C_13
REMARK    2  A    between atoms: O_1  and  C_19
REMARK    3  A    between atoms: O_3  and  C_14
REMARK    4  A    between atoms: O_4  and  C_22
REMARK    5  A    between atoms: O_5  and  C_24
REMARK    6  A    between atoms: O_6  and  C_26
REMARK    7  A    between atoms: O_8  and  C_30
REMARK    8  A    between atoms: O_11  and  C_35
REMARK    9  A    between atoms: O_11  and  C_39
REMARK   10  A    between atoms: N_12  and  C_21
REMARK   11  A    between atoms: C_14  and  C_25
REMARK   12  A    between atoms: C_23  and  C_29
REMARK   13  A    between atoms: C_25  and  C_30
REMARK                            x       y       z     vdW  Elec       q    Type
REMARK                         _______ _______ _______ _____ _____    ______ ____
ROOT
ATOM      1  O   UNL     1      67.342 219.792 332.437  0.00  0.00    +0.000 OA
ATOM      2  O   UNL     1      63.021 217.767 334.781  0.00  0.00    +0.000 OA
ATOM      3  C   UNL     1      68.986 218.772 337.188  0.00  0.00    +0.000 C 
ATOM      4  C   UNL     1      67.819 217.990 339.297  0.00  0.00    +0.000 C 
ATOM      5  C   UNL     1      69.065 217.857 338.411  0.00  0.00    +0.000 C 
ATOM      6  C   UNL     1      66.551 217.631 338.508  0.00  0.00    +0.000 C 
ATOM      7  C   UNL     1      67.691 218.582 336.423  0.00  0.00    +0.000 A 
ATOM      8  C   UNL     1      66.538 218.080 337.058  0.00  0.00    +0.000 A 
ATOM      9  C   UNL     1      67.610 218.963 335.070  0.00  0.00    +0.000 A 
ATOM     10  C   UNL     1      65.350 217.948 336.317  0.00  0.00    +0.000 A 
ATOM     11  C   UNL     1      66.413 218.838 334.338  0.00  0.00    +0.000 A 
ATOM     12  C   UNL     1      65.283 218.327 334.966  0.00  0.00    +0.000 A 
ATOM     13  C   UNL     1      66.349 219.257 332.920  0.00  0.00    +0.000 C 
ATOM     14  C   UNL     1      64.024 218.187 334.211  0.00  0.00    +0.000 C 
ATOM     15  C   UNL     1      65.107 219.052 332.138  0.00  0.00    +0.000 A 
ATOM     16  C   UNL     1      63.977 218.542 332.781  0.00  0.00    +0.000 A 
ATOM     17  C   UNL     1      65.019 219.362 330.772  0.00  0.00    +0.000 A 
ATOM     18  C   UNL     1      62.779 218.346 332.076  0.00  0.00    +0.000 A 
ATOM     19  C   UNL     1      63.831 219.142 330.065  0.00  0.00    +0.000 A 
ATOM     20  C   UNL     1      62.708 218.645 330.719  0.00  0.00    +0.000 A 
ENDROOT
BRANCH   4  21
ATOM     21  O   UNL     1      67.712 219.321 339.818  0.00  0.00    +0.000 OA
ATOM     22  H   UNL     1      68.341 219.388 340.567  0.00  0.00    +0.000 HD
ENDBRANCH   4  21
BRANCH   9  23
ATOM     23  O   UNL     1      68.755 219.461 334.495  0.00  0.00    +0.000 OA
ATOM     24  H   UNL     1      68.613 219.535 333.522  0.00  0.00    +0.000 HD
ENDBRANCH   9  23
BRANCH  10  25
ATOM     25  O   UNL     1      64.266 217.427 336.980  0.00  0.00    +0.000 OA
ATOM     26  H   UNL     1      64.176 217.880 337.849  0.00  0.00    +0.000 HD
ENDBRANCH  10  25
BRANCH   4  28
ATOM     27  O   UNL     1      67.082 216.183 340.761  0.00  0.00    +0.000 OA
ATOM     28  C   UNL     1      67.933 217.041 340.502  0.00  0.00    +0.000 C 
BRANCH  28  29
ATOM     29  C   UNL     1      69.150 217.207 341.409  0.00  0.00    +0.000 C 
BRANCH  29  30
ATOM     30  O   UNL     1      69.143 218.473 342.059  0.00  0.00    +0.000 OA
ATOM     31  H   UNL     1      69.056 219.141 341.349  0.00  0.00    +0.000 HD
ENDBRANCH  29  30
ENDBRANCH  28  29
ENDBRANCH   4  28
BRANCH  17  32
ATOM     32  O   UNL     1      66.104 219.787 330.053  0.00  0.00    +0.000 OA
ATOM     33  C   UNL     1      65.687 220.464 328.865  0.00  0.00    +0.000 C 
ENDBRANCH  17  32
BRANCH   3  34
ATOM     34  O   UNL     1      68.994 220.139 337.633  0.00  0.00    +0.000 OA
BRANCH  34  36
ATOM     35  O   UNL     1      70.932 220.785 338.805  0.00  0.00    +0.000 OA
ATOM     36  C   UNL     1      70.291 220.735 337.532  0.00  0.00    +0.000 C 
ATOM     37  C   UNL     1      70.158 222.121 336.897  0.00  0.00    +0.000 C 
ATOM     38  C   UNL     1      69.476 223.101 337.855  0.00  0.00    +0.000 C 
ATOM     39  C   UNL     1      70.224 223.111 339.203  0.00  0.00    +0.000 C 
ATOM     40  C   UNL     1      70.302 221.669 339.741  0.00  0.00    +0.000 C 
ATOM     41  C   UNL     1      71.091 221.572 341.043  0.00  0.00    +0.000 C 
BRANCH  38  42
ATOM     42  N   UNL     1      69.438 224.455 337.275  0.00  0.00    +0.000 NA
ATOM     43  H   UNL     1      68.527 224.630 336.856  0.00  0.00    +0.000 HD
ATOM     44  H   UNL     1      70.112 224.467 336.502  0.00  0.00    +0.000 HD
ENDBRANCH  38  42
BRANCH  39  45
ATOM     45  O   UNL     1      71.534 223.669 338.989  0.00  0.00    +0.000 OA
ATOM     46  H   UNL     1      71.871 223.963 339.851  0.00  0.00    +0.000 HD
ENDBRANCH  39  45
ENDBRANCH  34  36
ENDBRANCH   3  34
TORSDOF 11
ENDMDL
MODEL 3
REMARK VINA RESULT:      -6.1     20.595     23.893
REMARK  Name = 
REMARK  13 active torsions:
REMARK  status: ('A' for Active; 'I' for Inactive)
REMARK    1  A    between atoms: O_1  and  C_13
REMARK    2  A    between atoms: O_1  and  C_19
REMARK    3  A    between atoms: O_3  and  C_14
REMARK    4  A    between atoms: O_4  and  C_22
REMARK    5  A    between atoms: O_5  and  C_24
REMARK    6  A    between atoms: O_6  and  C_26
REMARK    7  A    between atoms: O_8  and  C_30
REMARK    8  A    between atoms: O_11  and  C_35
REMARK    9  A    between atoms: O_11  and  C_39
REMARK   10  A    between atoms: N_12  and  C_21
REMARK   11  A    between atoms: C_14  and  C_25
REMARK   12  A    between atoms: C_23  and  C_29
REMARK   13  A    between atoms: C_25  and  C_30
REMARK                            x       y       z     vdW  Elec       q    Type
REMARK                         _______ _______ _______ _____ _____    ______ ____
ROOT
ATOM      1  O   UNL     1      61.548 227.032 323.609  0.00  0.00    +0.000 OA
ATOM      2  O   UNL     1      66.369 224.991 324.532  0.00  0.00    +0.000 OA
ATOM      3  C   UNL     1      60.672 223.689 327.400  0.00  0.00    +0.000 C 
ATOM      4  C   UNL     1      62.117 221.956 328.553  0.00  0.00    +0.000 C 
ATOM      5  C   UNL     1      61.053 223.046 328.735  0.00  0.00    +0.000 C 
ATOM      6  C   UNL     1      63.389 222.539 327.920  0.00  0.00    +0.000 C 
ATOM      7  C   UNL     1      61.890 224.170 326.637  0.00  0.00    +0.000 A 
ATOM      8  C   UNL     1      63.159 223.600 326.859  0.00  0.00    +0.000 A 
ATOM      9  C   UNL     1      61.755 225.163 325.648  0.00  0.00    +0.000 A 
ATOM     10  C   UNL     1      64.256 224.057 326.107  0.00  0.00    +0.000 A 
ATOM     11  C   UNL     1      62.857 225.607 324.892  0.00  0.00    +0.000 A 
ATOM     12  C   UNL     1      64.109 225.052 325.126  0.00  0.00    +0.000 A 
ATOM     13  C   UNL     1      62.687 226.642 323.848  0.00  0.00    +0.000 C 
ATOM     14  C   UNL     1      65.273 225.510 324.344  0.00  0.00    +0.000 C 
ATOM     15  C   UNL     1      63.865 227.156 323.110  0.00  0.00    +0.000 A 
ATOM     16  C   UNL     1      65.117 226.588 323.351  0.00  0.00    +0.000 A 
ATOM     17  C   UNL     1      63.768 228.190 322.165  0.00  0.00    +0.000 A 
ATOM     18  C   UNL     1      66.254 227.040 322.662  0.00  0.00    +0.000 A 
ATOM     19  C   UNL     1      64.906 228.657 321.498  0.00  0.00    +0.000 A 
ATOM     20  C   UNL     1      66.147 228.075 321.738  0.00  0.00    +0.000 A 
ENDROOT
BRANCH   4  21
ATOM     21  O   UNL     1      61.611 220.888 327.743  0.00  0.00    +0.000 OA
ATOM     22  H   UNL     1      61.363 220.159 328.350  0.00  0.00    +0.000 HD
ENDBRANCH   4  21
BRANCH   9  23
ATOM     23  O   UNL     1      60.496 225.681 325.456  0.00  0.00    +0.000 OA
ATOM     24  H   UNL     1      59.839 225.082 325.883  0.00  0.00    +0.000 HD
ENDBRANCH   9  23
BRANCH  10  25
ATOM     25  O   UNL     1      65.474 223.486 326.385  0.00  0.00    +0.000 OA
ATOM     26  H   UNL     1      65.334 222.546 326.643  0.00  0.00    +0.000 HD
ENDBRANCH  10  25
BRANCH   4  28
ATOM     27  O   UNL     1      61.678 220.704 330.601  0.00  0.00    +0.000 OA
ATOM     28  C   UNL     1      62.482 221.352 329.920  0.00  0.00    +0.000 C 
BRANCH  28  29
ATOM     29  C   UNL     1      63.897 221.597 330.437  0.00  0.00    +0.000 C 
BRANCH  29  30
ATOM     30  O   UNL     1      63.928 222.674 331.367  0.00  0.00    +0.000 OA
ATOM     31  H   UNL     1      64.252 222.296 332.210  0.00  0.00    +0.000 HD
ENDBRANCH  29  30
ENDBRANCH  28  29
ENDBRANCH   4  28
BRANCH  17  32
ATOM     32  O   UNL     1      62.592 228.854 321.934  0.00  0.00    +0.000 OA
ATOM     33  C   UNL     1      62.843 230.128 321.335  0.00  0.00    +0.000 C 
ENDBRANCH  17  32
BRANCH   3  34
ATOM     34  O   UNL     1      60.045 222.695 326.572  0.00  0.00    +0.000 OA
BRANCH  34  36
ATOM     35  O   UNL     1      58.503 221.036 327.216  0.00  0.00    +0.000 OA
ATOM     36  C   UNL     1      58.698 222.427 326.972  0.00  0.00    +0.000 C 
ATOM     37  C   UNL     1      57.741 222.966 325.905  0.00  0.00    +0.000 C 
ATOM     38  C   UNL     1      57.821 222.133 324.624  0.00  0.00    +0.000 C 
ATOM     39  C   UNL     1      57.593 220.645 324.960  0.00  0.00    +0.000 C 
ATOM     40  C   UNL     1      58.603 220.218 326.043  0.00  0.00    +0.000 C 
ATOM     41  C   UNL     1      58.404 218.774 326.491  0.00  0.00    +0.000 C 
BRANCH  38  42
ATOM     42  N   UNL     1      56.830 222.597 323.637  0.00  0.00    +0.000 NA
ATOM     43  H   UNL     1      57.265 222.685 322.721  0.00  0.00    +0.000 HD
ATOM     44  H   UNL     1      56.557 223.546 323.914  0.00  0.00    +0.000 HD
ENDBRANCH  38  42
BRANCH  39  45
ATOM     45  O   UNL     1      56.235 220.486 325.409  0.00  0.00    +0.000 OA
ATOM     46  H   UNL     1      56.208 220.722 326.351  0.00  0.00    +0.000 HD
ENDBRANCH  39  45
ENDBRANCH  34  36
ENDBRANCH   3  34
TORSDOF 11
ENDMDL
MODEL 4
REMARK VINA RESULT:      -6.1     28.855     31.479
REMARK  Name = 
REMARK  13 active torsions:
REMARK  status: ('A' for Active; 'I' for Inactive)
REMARK    1  A    between atoms: O_1  and  C_13
REMARK    2  A    between atoms: O_1  and  C_19
REMARK    3  A    between atoms: O_3  and  C_14
REMARK    4  A    between atoms: O_4  and  C_22
REMARK    5  A    between atoms: O_5  and  C_24
REMARK    6  A    between atoms: O_6  and  C_26
REMARK    7  A    between atoms: O_8  and  C_30
REMARK    8  A    between atoms: O_11  and  C_35
REMARK    9  A    between atoms: O_11  and  C_39
REMARK   10  A    between atoms: N_12  and  C_21
REMARK   11  A    between atoms: C_14  and  C_25
REMARK   12  A    between atoms: C_23  and  C_29
REMARK   13  A    between atoms: C_25  and  C_30
REMARK                            x       y       z     vdW  Elec       q    Type
REMARK                         _______ _______ _______ _____ _____    ______ ____
ROOT
ATOM      1  O   UNL     1      58.325 223.766 354.380  0.00  0.00    +0.000 OA
ATOM      2  O   UNL     1      53.284 224.386 352.808  0.00  0.00    +0.000 OA
ATOM      3  C   UNL     1      57.693 228.853 354.535  0.00  0.00    +0.000 C 
ATOM      4  C   UNL     1      55.812 230.391 353.814  0.00  0.00    +0.000 C 
ATOM      5  C   UNL     1      56.866 230.091 354.888  0.00  0.00    +0.000 C 
ATOM      6  C   UNL     1      54.852 229.203 353.649  0.00  0.00    +0.000 C 
ATOM      7  C   UNL     1      56.814 227.660 354.216  0.00  0.00    +0.000 A 
ATOM      8  C   UNL     1      55.491 227.831 353.765  0.00  0.00    +0.000 A 
ATOM      9  C   UNL     1      57.336 226.356 354.316  0.00  0.00    +0.000 A 
ATOM     10  C   UNL     1      54.722 226.695 353.453  0.00  0.00    +0.000 A 
ATOM     11  C   UNL     1      56.562 225.225 353.991  0.00  0.00    +0.000 A 
ATOM     12  C   UNL     1      55.252 225.399 353.561  0.00  0.00    +0.000 A 
ATOM     13  C   UNL     1      57.136 223.864 354.090  0.00  0.00    +0.000 C 
ATOM     14  C   UNL     1      54.429 224.223 353.220  0.00  0.00    +0.000 C 
ATOM     15  C   UNL     1      56.291 222.677 353.818  0.00  0.00    +0.000 A 
ATOM     16  C   UNL     1      54.978 222.865 353.383  0.00  0.00    +0.000 A 
ATOM     17  C   UNL     1      56.766 221.365 353.972  0.00  0.00    +0.000 A 
ATOM     18  C   UNL     1      54.152 221.765 353.103  0.00  0.00    +0.000 A 
ATOM     19  C   UNL     1      55.933 220.270 353.718  0.00  0.00    +0.000 A 
ATOM     20  C   UNL     1      54.630 220.469 353.272  0.00  0.00    +0.000 A 
ENDROOT
BRANCH   4  21
ATOM     21  O   UNL     1      56.439 230.692 352.562  0.00  0.00    +0.000 OA
ATOM     22  H   UNL     1      57.120 231.376 352.738  0.00  0.00    +0.000 HD
ENDBRANCH   4  21
BRANCH   9  23
ATOM     23  O   UNL     1      58.636 226.237 354.747  0.00  0.00    +0.000 OA
ATOM     24  H   UNL     1      59.167 225.809 354.035  0.00  0.00    +0.000 HD
ENDBRANCH   9  23
BRANCH  10  25
ATOM     25  O   UNL     1      53.430 226.920 353.044  0.00  0.00    +0.000 OA
ATOM     26  H   UNL     1      52.827 226.805 353.814  0.00  0.00    +0.000 HD
ENDBRANCH  10  25
BRANCH   4  28
ATOM     27  O   UNL     1      53.967 231.559 354.904  0.00  0.00    +0.000 OA
ATOM     28  C   UNL     1      54.994 231.630 354.219  0.00  0.00    +0.000 C 
BRANCH  28  29
ATOM     29  C   UNL     1      55.487 232.986 353.720  0.00  0.00    +0.000 C 
BRANCH  29  30
ATOM     30  O   UNL     1      55.005 233.261 352.410  0.00  0.00    +0.000 OA
ATOM     31  H   UNL     1      55.649 232.858 351.793  0.00  0.00    +0.000 HD
ENDBRANCH  29  30
ENDBRANCH  28  29
ENDBRANCH   4  28
BRANCH  17  32
ATOM     32  O   UNL     1      58.012 221.098 354.474  0.00  0.00    +0.000 OA
ATOM     33  C   UNL     1      58.316 219.707 354.356  0.00  0.00    +0.000 C 
ENDBRANCH  17  32
BRANCH   3  34
ATOM     34  O   UNL     1      58.448 229.127 353.342  0.00  0.00    +0.000 OA
BRANCH  34  36
ATOM     35  O   UNL     1      59.938 230.649 352.337  0.00  0.00    +0.000 OA
ATOM     36  C   UNL     1      59.489 230.083 353.566  0.00  0.00    +0.000 C 
ATOM     37  C   UNL     1      60.625 229.414 354.343  0.00  0.00    +0.000 C 
ATOM     38  C   UNL     1      61.364 228.398 353.469  0.00  0.00    +0.000 C 
ATOM     39  C   UNL     1      61.827 229.078 352.165  0.00  0.00    +0.000 C 
ATOM     40  C   UNL     1      60.607 229.719 351.476  0.00  0.00    +0.000 C 
ATOM     41  C   UNL     1      60.984 230.479 350.208  0.00  0.00    +0.000 C 
BRANCH  38  42
ATOM     42  N   UNL     1      62.516 227.829 354.192  0.00  0.00    +0.000 NA
ATOM     43  H   UNL     1      62.244 226.963 354.654  0.00  0.00    +0.000 HD
ATOM     44  H   UNL     1      62.751 228.488 354.942  0.00  0.00    +0.000 HD
ENDBRANCH  38  42
BRANCH  39  45
ATOM     45  O   UNL     1      62.826 230.061 352.498  0.00  0.00    +0.000 OA
ATOM     46  H   UNL     1      63.688 229.705 352.227  0.00  0.00    +0.000 HD
ENDBRANCH  39  45
ENDBRANCH  34  36
ENDBRANCH   3  34
TORSDOF 11
ENDMDL
MODEL 5
REMARK VINA RESULT:      -6.0     18.362     22.454
REMARK  Name = 
REMARK  13 active torsions:
REMARK  status: ('A' for Active; 'I' for Inactive)
REMARK    1  A    between atoms: O_1  and  C_13
REMARK    2  A    between atoms: O_1  and  C_19
REMARK    3  A    between atoms: O_3  and  C_14
REMARK    4  A    between atoms: O_4  and  C_22
REMARK    5  A    between atoms: O_5  and  C_24
REMARK    6  A    between atoms: O_6  and  C_26
REMARK    7  A    between atoms: O_8  and  C_30
REMARK    8  A    between atoms: O_11  and  C_35
REMARK    9  A    between atoms: O_11  and  C_39
REMARK   10  A    between atoms: N_12  and  C_21
REMARK   11  A    between atoms: C_14  and  C_25
REMARK   12  A    between atoms: C_23  and  C_29
REMARK   13  A    between atoms: C_25  and  C_30
REMARK                            x       y       z     vdW  Elec       q    Type
REMARK                         _______ _______ _______ _____ _____    ______ ____
ROOT
ATOM      1  O   UNL     1      67.645 242.788 332.060  0.00  0.00    +0.000 OA
ATOM      2  O   UNL     1      69.264 241.159 327.265  0.00  0.00    +0.000 OA
ATOM      3  C   UNL     1      71.009 239.082 333.183  0.00  0.00    +0.000 C 
ATOM      4  C   UNL     1      72.286 237.411 331.769  0.00  0.00    +0.000 C 
ATOM      5  C   UNL     1      72.347 238.375 332.962  0.00  0.00    +0.000 C 
ATOM      6  C   UNL     1      71.921 238.164 330.481  0.00  0.00    +0.000 C 
ATOM      7  C   UNL     1      70.501 239.739 331.915  0.00  0.00    +0.000 A 
ATOM      8  C   UNL     1      70.904 239.280 330.646  0.00  0.00    +0.000 A 
ATOM      9  C   UNL     1      69.568 240.790 331.992  0.00  0.00    +0.000 A 
ATOM     10  C   UNL     1      70.385 239.901 329.495  0.00  0.00    +0.000 A 
ATOM     11  C   UNL     1      69.044 241.399 330.835  0.00  0.00    +0.000 A 
ATOM     12  C   UNL     1      69.458 240.952 329.585  0.00  0.00    +0.000 A 
ATOM     13  C   UNL     1      68.053 242.494 330.941  0.00  0.00    +0.000 C 
ATOM     14  C   UNL     1      68.920 241.582 328.365  0.00  0.00    +0.000 C 
ATOM     15  C   UNL     1      67.565 243.177 329.719  0.00  0.00    +0.000 A 
ATOM     16  C   UNL     1      67.985 242.716 328.470  0.00  0.00    +0.000 A 
ATOM     17  C   UNL     1      66.685 244.270 329.771  0.00  0.00    +0.000 A 
ATOM     18  C   UNL     1      67.533 243.330 327.291  0.00  0.00    +0.000 A 
ATOM     19  C   UNL     1      66.256 244.897 328.595  0.00  0.00    +0.000 A 
ATOM     20  C   UNL     1      66.671 244.421 327.355  0.00  0.00    +0.000 A 
ENDROOT
BRANCH   4  21
ATOM     21  O   UNL     1      71.334 236.368 332.013  0.00  0.00    +0.000 OA
ATOM     22  H   UNL     1      70.494 236.800 332.277  0.00  0.00    +0.000 HD
ENDBRANCH   4  21
BRANCH   9  23
ATOM     23  O   UNL     1      69.192 241.197 333.250  0.00  0.00    +0.000 OA
ATOM     24  H   UNL     1      68.211 241.132 333.323  0.00  0.00    +0.000 HD
ENDBRANCH   9  23
BRANCH  10  25
ATOM     25  O   UNL     1      70.835 239.430 328.286  0.00  0.00    +0.000 OA
ATOM     26  H   UNL     1      71.384 240.125 327.857  0.00  0.00    +0.000 HD
ENDBRANCH  10  25
BRANCH   4  28
ATOM     27  O   UNL     1      74.620 236.955 332.314  0.00  0.00    +0.000 OA
ATOM     28  C   UNL     1      73.654 236.737 331.573  0.00  0.00    +0.000 C 
BRANCH  28  29
ATOM     29  C   UNL     1      73.799 235.781 330.392  0.00  0.00    +0.000 C 
BRANCH  29  30
ATOM     30  O   UNL     1      73.011 234.611 330.574  0.00  0.00    +0.000 OA
ATOM     31  H   UNL     1      72.710 234.344 329.681  0.00  0.00    +0.000 HD
ENDBRANCH  29  30
ENDBRANCH  28  29
ENDBRANCH   4  28
BRANCH  17  32
ATOM     32  O   UNL     1      66.294 244.833 330.957  0.00  0.00    +0.000 OA
ATOM     33  C   UNL     1      64.890 245.098 330.950  0.00  0.00    +0.000 C 
ENDBRANCH  17  32
BRANCH   3  34
ATOM     34  O   UNL     1      70.024 238.102 333.551  0.00  0.00    +0.000 OA
BRANCH  34  36
ATOM     35  O   UNL     1      69.256 236.612 335.205  0.00  0.00    +0.000 OA
ATOM     36  C   UNL     1      70.187 237.647 334.897  0.00  0.00    +0.000 C 
ATOM     37  C   UNL     1      70.063 238.839 335.848  0.00  0.00    +0.000 C 
ATOM     38  C   UNL     1      68.621 239.349 335.902  0.00  0.00    +0.000 C 
ATOM     39  C   UNL     1      67.672 238.184 336.248  0.00  0.00    +0.000 C 
ATOM     40  C   UNL     1      67.890 237.046 335.232  0.00  0.00    +0.000 C 
ATOM     41  C   UNL     1      67.040 235.818 335.539  0.00  0.00    +0.000 C 
BRANCH  38  42
ATOM     42  N   UNL     1      68.489 240.434 336.892  0.00  0.00    +0.000 NA
ATOM     43  H   UNL     1      69.359 240.960 336.951  0.00  0.00    +0.000 HD
ATOM     44  H   UNL     1      68.365 239.987 337.807  0.00  0.00    +0.000 HD
ENDBRANCH  38  42
BRANCH  39  45
ATOM     45  O   UNL     1      67.953 237.756 337.593  0.00  0.00    +0.000 OA
ATOM     46  H   UNL     1      67.629 236.845 337.684  0.00  0.00    +0.000 HD
ENDBRANCH  39  45
ENDBRANCH  34  36
ENDBRANCH   3  34
TORSDOF 11
ENDMDL
MODEL 6
REMARK VINA RESULT:      -5.9     24.333     28.579
REMARK  Name = 
REMARK  13 active torsions:
REMARK  status: ('A' for Active; 'I' for Inactive)
REMARK    1  A    between atoms: O_1  and  C_13
REMARK    2  A    between atoms: O_1  and  C_19
REMARK    3  A    between atoms: O_3  and  C_14
REMARK    4  A    between atoms: O_4  and  C_22
REMARK    5  A    between atoms: O_5  and  C_24
REMARK    6  A    between atoms: O_6  and  C_26
REMARK    7  A    between atoms: O_8  and  C_30
REMARK    8  A    between atoms: O_11  and  C_35
REMARK    9  A    between atoms: O_11  and  C_39
REMARK   10  A    between atoms: N_12  and  C_21
REMARK   11  A    between atoms: C_14  and  C_25
REMARK   12  A    between atoms: C_23  and  C_29
REMARK   13  A    between atoms: C_25  and  C_30
REMARK                            x       y       z     vdW  Elec       q    Type
REMARK                         _______ _______ _______ _____ _____    ______ ____
ROOT
ATOM      1  O   UNL     1      76.814 237.240 335.893  0.00  0.00    +0.000 OA
ATOM      2  O   UNL     1      72.145 234.709 336.149  0.00  0.00    +0.000 OA
ATOM      3  C   UNL     1      74.564 238.534 331.469  0.00  0.00    +0.000 C 
ATOM      4  C   UNL     1      72.422 237.798 330.332  0.00  0.00    +0.000 C 
ATOM      5  C   UNL     1      73.339 238.981 330.669  0.00  0.00    +0.000 C 
ATOM      6  C   UNL     1      71.933 237.108 331.613  0.00  0.00    +0.000 C 
ATOM      7  C   UNL     1      74.176 237.718 332.686  0.00  0.00    +0.000 A 
ATOM      8  C   UNL     1      72.954 237.019 332.734  0.00  0.00    +0.000 A 
ATOM      9  C   UNL     1      75.067 237.603 333.770  0.00  0.00    +0.000 A 
ATOM     10  C   UNL     1      72.648 236.251 333.871  0.00  0.00    +0.000 A 
ATOM     11  C   UNL     1      74.757 236.823 334.901  0.00  0.00    +0.000 A 
ATOM     12  C   UNL     1      73.543 236.148 334.949  0.00  0.00    +0.000 A 
ATOM     13  C   UNL     1      75.716 236.707 336.022  0.00  0.00    +0.000 C 
ATOM     14  C   UNL     1      73.205 235.329 336.128  0.00  0.00    +0.000 C 
ATOM     15  C   UNL     1      75.350 235.944 337.240  0.00  0.00    +0.000 A 
ATOM     16  C   UNL     1      74.129 235.267 337.274  0.00  0.00    +0.000 A 
ATOM     17  C   UNL     1      76.192 235.867 338.360  0.00  0.00    +0.000 A 
ATOM     18  C   UNL     1      73.754 234.524 338.404  0.00  0.00    +0.000 A 
ATOM     19  C   UNL     1      75.805 235.147 339.496  0.00  0.00    +0.000 A 
ATOM     20  C   UNL     1      74.592 234.467 339.514  0.00  0.00    +0.000 A 
ENDROOT
BRANCH   4  21
ATOM     21  O   UNL     1      73.104 236.855 329.496  0.00  0.00    +0.000 OA
ATOM     22  H   UNL     1      73.227 236.038 330.025  0.00  0.00    +0.000 HD
ENDBRANCH   4  21
BRANCH   9  23
ATOM     23  O   UNL     1      76.254 238.291 333.675  0.00  0.00    +0.000 OA
ATOM     24  H   UNL     1      76.067 239.197 333.333  0.00  0.00    +0.000 HD
ENDBRANCH   9  23
BRANCH  10  25
ATOM     25  O   UNL     1      71.431 235.614 333.875  0.00  0.00    +0.000 OA
ATOM     26  H   UNL     1      70.767 236.192 333.435  0.00  0.00    +0.000 HD
ENDBRANCH  10  25
BRANCH   4  28
ATOM     27  O   UNL     1      70.369 239.080 330.022  0.00  0.00    +0.000 OA
ATOM     28  C   UNL     1      71.198 238.296 329.544  0.00  0.00    +0.000 C 
BRANCH  28  29
ATOM     29  C   UNL     1      71.018 237.766 328.124  0.00  0.00    +0.000 C 
BRANCH  29  30
ATOM     30  O   UNL     1      70.268 236.556 328.115  0.00  0.00    +0.000 OA
ATOM     31  H   UNL     1      70.804 235.910 327.611  0.00  0.00    +0.000 HD
ENDBRANCH  29  30
ENDBRANCH  28  29
ENDBRANCH   4  28
BRANCH  17  32
ATOM     32  O   UNL     1      77.365 236.570 338.436  0.00  0.00    +0.000 OA
ATOM     33  C   UNL     1      78.256 235.962 339.374  0.00  0.00    +0.000 C 
ENDBRANCH  17  32
BRANCH   3  34
ATOM     34  O   UNL     1      75.364 237.670 330.644  0.00  0.00    +0.000 OA
BRANCH  34  36
ATOM     35  O   UNL     1      76.217 238.498 328.611  0.00  0.00    +0.000 OA
ATOM     36  C   UNL     1      76.441 238.368 330.012  0.00  0.00    +0.000 C 
ATOM     37  C   UNL     1      77.756 237.648 330.322  0.00  0.00    +0.000 C 
ATOM     38  C   UNL     1      77.830 236.304 329.593  0.00  0.00    +0.000 C 
ATOM     39  C   UNL     1      77.587 236.520 328.085  0.00  0.00    +0.000 C 
ATOM     40  C   UNL     1      76.246 237.256 327.897  0.00  0.00    +0.000 C 
ATOM     41  C   UNL     1      75.955 237.576 326.435  0.00  0.00    +0.000 C 
BRANCH  38  42
ATOM     42  N   UNL     1      79.137 235.660 329.818  0.00  0.00    +0.000 NA
ATOM     43  H   UNL     1      79.602 236.085 330.618  0.00  0.00    +0.000 HD
ATOM     44  H   UNL     1      79.720 235.879 329.003  0.00  0.00    +0.000 HD
ENDBRANCH  38  42
BRANCH  39  45
ATOM     45  O   UNL     1      78.689 237.280 327.554  0.00  0.00    +0.000 OA
ATOM     46  H   UNL     1      79.449 236.679 327.480  0.00  0.00    +0.000 HD
ENDBRANCH  39  45
ENDBRANCH  34  36
ENDBRANCH   3  34
TORSDOF 11
ENDMDL
MODEL 7
REMARK VINA RESULT:      -5.8     32.289     34.336
REMARK  Name = 
REMARK  13 active torsions:
REMARK  status: ('A' for Active; 'I' for Inactive)
REMARK    1  A    between atoms: O_1  and  C_13
REMARK    2  A    between atoms: O_1  and  C_19
REMARK    3  A    between atoms: O_3  and  C_14
REMARK    4  A    between atoms: O_4  and  C_22
REMARK    5  A    between atoms: O_5  and  C_24
REMARK    6  A    between atoms: O_6  and  C_26
REMARK    7  A    between atoms: O_8  and  C_30
REMARK    8  A    between atoms: O_11  and  C_35
REMARK    9  A    between atoms: O_11  and  C_39
REMARK   10  A    between atoms: N_12  and  C_21
REMARK   11  A    between atoms: C_14  and  C_25
REMARK   12  A    between atoms: C_23  and  C_29
REMARK   13  A    between atoms: C_25  and  C_30
REMARK                            x       y       z     vdW  Elec       q    Type
REMARK                         _______ _______ _______ _____ _____    ______ ____
ROOT
ATOM      1  O   UNL     1      72.004 220.853 342.758  0.00  0.00    +0.000 OA
ATOM      2  O   UNL     1      69.557 216.132 342.726  0.00  0.00    +0.000 OA
ATOM      3  C   UNL     1      69.143 221.071 338.506  0.00  0.00    +0.000 C 
ATOM      4  C   UNL     1      67.706 219.374 337.292  0.00  0.00    +0.000 C 
ATOM      5  C   UNL     1      67.829 220.829 337.761  0.00  0.00    +0.000 C 
ATOM      6  C   UNL     1      67.764 218.412 338.488  0.00  0.00    +0.000 C 
ATOM      7  C   UNL     1      69.351 220.069 339.624  0.00  0.00    +0.000 A 
ATOM      8  C   UNL     1      68.729 218.806 339.592  0.00  0.00    +0.000 A 
ATOM      9  C   UNL     1      70.221 220.372 340.688  0.00  0.00    +0.000 A 
ATOM     10  C   UNL     1      68.973 217.896 340.637  0.00  0.00    +0.000 A 
ATOM     11  C   UNL     1      70.469 219.451 341.724  0.00  0.00    +0.000 A 
ATOM     12  C   UNL     1      69.840 218.211 341.696  0.00  0.00    +0.000 A 
ATOM     13  C   UNL     1      71.398 219.787 342.826  0.00  0.00    +0.000 C 
ATOM     14  C   UNL     1      70.088 217.238 342.776  0.00  0.00    +0.000 C 
ATOM     15  C   UNL     1      71.594 218.841 343.950  0.00  0.00    +0.000 A 
ATOM     16  C   UNL     1      70.961 217.597 343.908  0.00  0.00    +0.000 A 
ATOM     17  C   UNL     1      72.405 219.145 345.055  0.00  0.00    +0.000 A 
ATOM     18  C   UNL     1      71.134 216.670 344.948  0.00  0.00    +0.000 A 
ATOM     19  C   UNL     1      72.556 218.229 346.103  0.00  0.00    +0.000 A 
ATOM     20  C   UNL     1      71.929 216.988 346.044  0.00  0.00    +0.000 A 
ENDROOT
BRANCH   4  21
ATOM     21  O   UNL     1      68.743 219.056 336.356  0.00  0.00    +0.000 OA
ATOM     22  H   UNL     1      68.960 219.882 335.875  0.00  0.00    +0.000 HD
ENDBRANCH   4  21
BRANCH   9  23
ATOM     23  O   UNL     1      70.816 221.611 340.671  0.00  0.00    +0.000 OA
ATOM     24  H   UNL     1      70.289 222.207 340.088  0.00  0.00    +0.000 HD
ENDBRANCH   9  23
BRANCH  10  25
ATOM     25  O   UNL     1      68.319 216.690 340.568  0.00  0.00    +0.000 OA
ATOM     26  H   UNL     1      68.534 216.259 339.710  0.00  0.00    +0.000 HD
ENDBRANCH  10  25
BRANCH   4  28
ATOM     27  O   UNL     1      65.432 218.522 337.051  0.00  0.00    +0.000 OA
ATOM     28  C   UNL     1      66.365 219.172 336.566  0.00  0.00    +0.000 C 
BRANCH  28  29
ATOM     29  C   UNL     1      66.221 219.796 335.180  0.00  0.00    +0.000 C 
BRANCH  29  30
ATOM     30  O   UNL     1      64.966 220.452 335.036  0.00  0.00    +0.000 OA
ATOM     31  H   UNL     1      64.489 219.973 334.327  0.00  0.00    +0.000 HD
ENDBRANCH  29  30
ENDBRANCH  28  29
ENDBRANCH   4  28
BRANCH  17  32
ATOM     32  O   UNL     1      72.992 220.372 345.210  0.00  0.00    +0.000 OA
ATOM     33  C   UNL     1      72.812 220.852 346.544  0.00  0.00    +0.000 C 
ENDBRANCH  17  32
BRANCH   3  34
ATOM     34  O   UNL     1      70.235 220.885 337.590  0.00  0.00    +0.000 OA
BRANCH  34  36
ATOM     35  O   UNL     1      71.180 221.624 335.564  0.00  0.00    +0.000 OA
ATOM     36  C   UNL     1      70.381 221.985 336.687  0.00  0.00    +0.000 C 
ATOM     37  C   UNL     1      70.957 223.183 337.446  0.00  0.00    +0.000 C 
ATOM     38  C   UNL     1      72.420 222.939 337.825  0.00  0.00    +0.000 C 
ATOM     39  C   UNL     1      73.225 222.563 336.565  0.00  0.00    +0.000 C 
ATOM     40  C   UNL     1      72.551 221.356 335.884  0.00  0.00    +0.000 C 
ATOM     41  C   UNL     1      73.242 220.957 334.585  0.00  0.00    +0.000 C 
BRANCH  38  42
ATOM     42  N   UNL     1      72.997 224.133 338.470  0.00  0.00    +0.000 NA
ATOM     43  H   UNL     1      72.797 224.121 339.468  0.00  0.00    +0.000 HD
ATOM     44  H   UNL     1      72.498 224.945 338.091  0.00  0.00    +0.000 HD
ENDBRANCH  38  42
BRANCH  39  45
ATOM     45  O   UNL     1      73.265 223.710 335.696  0.00  0.00    +0.000 OA
ATOM     46  H   UNL     1      73.845 223.490 334.948  0.00  0.00    +0.000 HD
ENDBRANCH  39  45
ENDBRANCH  34  36
ENDBRANCH   3  34
TORSDOF 11
ENDMDL
MODEL 8
REMARK VINA RESULT:      -5.8     17.785     20.562
REMARK  Name = 
REMARK  13 active torsions:
REMARK  status: ('A' for Active; 'I' for Inactive)
REMARK    1  A    between atoms: O_1  and  C_13
REMARK    2  A    between atoms: O_1  and  C_19
REMARK    3  A    between atoms: O_3  and  C_14
REMARK    4  A    between atoms: O_4  and  C_22
REMARK    5  A    between atoms: O_5  and  C_24
REMARK    6  A    between atoms: O_6  and  C_26
REMARK    7  A    between atoms: O_8  and  C_30
REMARK    8  A    between atoms: O_11  and  C_35
REMARK    9  A    between atoms: O_11  and  C_39
REMARK   10  A    between atoms: N_12  and  C_21
REMARK   11  A    between atoms: C_14  and  C_25
REMARK   12  A    between atoms: C_23  and  C_29
REMARK   13  A    between atoms: C_25  and  C_30
REMARK                            x       y       z     vdW  Elec       q    Type
REMARK                         _______ _______ _______ _____ _____    ______ ____
ROOT
ATOM      1  O   UNL     1      65.539 245.670 334.338  0.00  0.00    +0.000 OA
ATOM      2  O   UNL     1      66.262 243.731 329.440  0.00  0.00    +0.000 OA
ATOM      3  C   UNL     1      68.392 241.489 335.168  0.00  0.00    +0.000 C 
ATOM      4  C   UNL     1      69.200 239.614 333.667  0.00  0.00    +0.000 C 
ATOM      5  C   UNL     1      69.563 240.572 334.809  0.00  0.00    +0.000 C 
ATOM      6  C   UNL     1      68.799 240.396 332.408  0.00  0.00    +0.000 C 
ATOM      7  C   UNL     1      67.837 242.200 333.950  0.00  0.00    +0.000 A 
ATOM      8  C   UNL     1      68.000 241.663 332.658  0.00  0.00    +0.000 A 
ATOM      9  C   UNL     1      67.099 243.388 334.104  0.00  0.00    +0.000 A 
ATOM     10  C   UNL     1      67.444 242.342 331.559  0.00  0.00    +0.000 A 
ATOM     11  C   UNL     1      66.535 244.056 332.999  0.00  0.00    +0.000 A 
ATOM     12  C   UNL     1      66.712 243.530 331.725  0.00  0.00    +0.000 A 
ATOM     13  C   UNL     1      65.751 245.297 333.188  0.00  0.00    +0.000 C 
ATOM     14  C   UNL     1      66.131 244.220 330.558  0.00  0.00    +0.000 C 
ATOM     15  C   UNL     1      65.226 246.033 332.012  0.00  0.00    +0.000 A 
ATOM     16  C   UNL     1      65.407 245.492 330.738  0.00  0.00    +0.000 A 
ATOM     17  C   UNL     1      64.543 247.253 332.134  0.00  0.00    +0.000 A 
ATOM     18  C   UNL     1      64.912 246.153 329.603  0.00  0.00    +0.000 A 
ATOM     19  C   UNL     1      64.073 247.924 330.998  0.00  0.00    +0.000 A 
ATOM     20  C   UNL     1      64.248 247.369 329.734  0.00  0.00    +0.000 A 
ENDROOT
BRANCH   4  21
ATOM     21  O   UNL     1      68.135 238.740 334.062  0.00  0.00    +0.000 OA
ATOM     22  H   UNL     1      67.514 239.270 334.606  0.00  0.00    +0.000 HD
ENDBRANCH   4  21
BRANCH   9  23
ATOM     23  O   UNL     1      66.954 243.869 335.384  0.00  0.00    +0.000 OA
ATOM     24  H   UNL     1      66.572 244.777 335.339  0.00  0.00    +0.000 HD
ENDBRANCH   9  23
BRANCH  10  25
ATOM     25  O   UNL     1      67.657 241.788 330.320  0.00  0.00    +0.000 OA
ATOM     26  H   UNL     1      67.258 242.373 329.636  0.00  0.00    +0.000 HD
ENDBRANCH  10  25
BRANCH   4  28
ATOM     27  O   UNL     1      71.030 238.819 332.263  0.00  0.00    +0.000 OA
ATOM     28  C   UNL     1      70.410 238.726 333.329  0.00  0.00    +0.000 C 
BRANCH  28  29
ATOM     29  C   UNL     1      70.822 237.683 334.364  0.00  0.00    +0.000 C 
BRANCH  29  30
ATOM     30  O   UNL     1      70.163 236.442 334.140  0.00  0.00    +0.000 OA
ATOM     31  H   UNL     1      70.849 235.750 334.231  0.00  0.00    +0.000 HD
ENDBRANCH  29  30
ENDBRANCH  28  29
ENDBRANCH   4  28
BRANCH  17  32
ATOM     32  O   UNL     1      64.399 247.888 333.338  0.00  0.00    +0.000 OA
ATOM     33  C   UNL     1      64.030 249.256 333.145  0.00  0.00    +0.000 C 
ENDBRANCH  17  32
BRANCH   3  34
ATOM     34  O   UNL     1      67.319 240.685 335.688  0.00  0.00    +0.000 OA
BRANCH  34  36
ATOM     35  O   UNL     1      67.638 238.963 337.263  0.00  0.00    +0.000 OA
ATOM     36  C   UNL     1      67.498 240.369 337.071  0.00  0.00    +0.000 C 
ATOM     37  C   UNL     1      66.329 240.948 337.873  0.00  0.00    +0.000 C 
ATOM     38  C   UNL     1      65.033 240.188 337.580  0.00  0.00    +0.000 C 
ATOM     39  C   UNL     1      65.254 238.680 337.815  0.00  0.00    +0.000 C 
ATOM     40  C   UNL     1      66.453 238.213 336.967  0.00  0.00    +0.000 C 
ATOM     41  C   UNL     1      66.790 236.743 337.191  0.00  0.00    +0.000 C 
BRANCH  38  42
ATOM     42  N   UNL     1      63.934 240.687 338.426  0.00  0.00    +0.000 NA
ATOM     43  H   UNL     1      63.753 241.667 338.220  0.00  0.00    +0.000 HD
ATOM     44  H   UNL     1      64.269 240.659 339.395  0.00  0.00    +0.000 HD
ENDBRANCH  38  42
BRANCH  39  45
ATOM     45  O   UNL     1      65.485 238.471 339.221  0.00  0.00    +0.000 OA
ATOM     46  H   UNL     1      66.196 239.075 339.493  0.00  0.00    +0.000 HD
ENDBRANCH  39  45
ENDBRANCH  34  36
ENDBRANCH   3  34
TORSDOF 11
ENDMDL
MODEL 9
REMARK VINA RESULT:      -5.7      1.969      2.747
REMARK  Name = 
REMARK  13 active torsions:
REMARK  status: ('A' for Active; 'I' for Inactive)
REMARK    1  A    between atoms: O_1  and  C_13
REMARK    2  A    between atoms: O_1  and  C_19
REMARK    3  A    between atoms: O_3  and  C_14
REMARK    4  A    between atoms: O_4  and  C_22
REMARK    5  A    between atoms: O_5  and  C_24
REMARK    6  A    between atoms: O_6  and  C_26
REMARK    7  A    between atoms: O_8  and  C_30
REMARK    8  A    between atoms: O_11  and  C_35
REMARK    9  A    between atoms: O_11  and  C_39
REMARK   10  A    between atoms: N_12  and  C_21
REMARK   11  A    between atoms: C_14  and  C_25
REMARK   12  A    between atoms: C_23  and  C_29
REMARK   13  A    between atoms: C_25  and  C_30
REMARK                            x       y       z     vdW  Elec       q    Type
REMARK                         _______ _______ _______ _____ _____    ______ ____
ROOT
ATOM      1  O   UNL     1      44.583 238.990 324.700  0.00  0.00    +0.000 OA
ATOM      2  O   UNL     1      49.329 236.683 325.347  0.00  0.00    +0.000 OA
ATOM      3  C   UNL     1      47.537 242.870 326.288  0.00  0.00    +0.000 C 
ATOM      4  C   UNL     1      49.924 243.003 327.128  0.00  0.00    +0.000 C 
ATOM      5  C   UNL     1      48.847 243.659 326.253  0.00  0.00    +0.000 C 
ATOM      6  C   UNL     1      50.211 241.571 326.653  0.00  0.00    +0.000 C 
ATOM      7  C   UNL     1      47.751 241.404 325.967  0.00  0.00    +0.000 A 
ATOM      8  C   UNL     1      49.000 240.789 326.175  0.00  0.00    +0.000 A 
ATOM      9  C   UNL     1      46.676 240.621 325.505  0.00  0.00    +0.000 A 
ATOM     10  C   UNL     1      49.146 239.420 325.890  0.00  0.00    +0.000 A 
ATOM     11  C   UNL     1      46.827 239.248 325.233  0.00  0.00    +0.000 A 
ATOM     12  C   UNL     1      48.067 238.649 325.426  0.00  0.00    +0.000 A 
ATOM     13  C   UNL     1      45.679 238.441 324.762  0.00  0.00    +0.000 C 
ATOM     14  C   UNL     1      48.240 237.212 325.142  0.00  0.00    +0.000 C 
ATOM     15  C   UNL     1      45.866 237.014 324.407  0.00  0.00    +0.000 A 
ATOM     16  C   UNL     1      47.116 236.424 324.609  0.00  0.00    +0.000 A 
ATOM     17  C   UNL     1      44.828 236.228 323.884  0.00  0.00    +0.000 A 
ATOM     18  C   UNL     1      47.327 235.071 324.297  0.00  0.00    +0.000 A 
ATOM     19  C   UNL     1      45.048 234.886 323.549  0.00  0.00    +0.000 A 
ATOM     20  C   UNL     1      46.294 234.305 323.766  0.00  0.00    +0.000 A 
ENDROOT
BRANCH   4  21
ATOM     21  O   UNL     1      49.519 242.992 328.502  0.00  0.00    +0.000 OA
ATOM     22  H   UNL     1      49.040 243.832 328.668  0.00  0.00    +0.000 HD
ENDBRANCH   4  21
BRANCH   9  23
ATOM     23  O   UNL     1      45.471 241.260 325.330  0.00  0.00    +0.000 OA
ATOM     24  H   UNL     1      44.759 240.706 325.727  0.00  0.00    +0.000 HD
ENDBRANCH   9  23
BRANCH  10  25
ATOM     25  O   UNL     1      50.393 238.879 326.086  0.00  0.00    +0.000 OA
ATOM     26  H   UNL     1      50.320 237.897 326.075  0.00  0.00    +0.000 HD
ENDBRANCH  10  25
BRANCH   4  28
ATOM     27  O   UNL     1      51.620 244.350 326.004  0.00  0.00    +0.000 OA
ATOM     28  C   UNL     1      51.227 243.817 327.048  0.00  0.00    +0.000 C 
BRANCH  28  29
ATOM     29  C   UNL     1      52.056 243.935 328.324  0.00  0.00    +0.000 C 
BRANCH  29  30
ATOM     30  O   UNL     1      52.543 242.665 328.744  0.00  0.00    +0.000 OA
ATOM     31  H   UNL     1      53.363 242.843 329.249  0.00  0.00    +0.000 HD
ENDBRANCH  29  30
ENDBRANCH  28  29
ENDBRANCH   4  28
BRANCH  17  32
ATOM     32  O   UNL     1      43.601 236.754 323.579  0.00  0.00    +0.000 OA
ATOM     33  C   UNL     1      42.566 236.052 324.273  0.00  0.00    +0.000 C 
ENDBRANCH  17  32
BRANCH   3  34
ATOM     34  O   UNL     1      47.006 242.917 327.623  0.00  0.00    +0.000 OA
BRANCH  34  36
ATOM     35  O   UNL     1      46.970 244.763 329.085  0.00  0.00    +0.000 OA
ATOM     36  C   UNL     1      46.394 244.175 327.921  0.00  0.00    +0.000 C 
ATOM     37  C   UNL     1      44.883 243.976 328.061  0.00  0.00    +0.000 C 
ATOM     38  C   UNL     1      44.547 243.197 329.335  0.00  0.00    +0.000 C 
ATOM     39  C   UNL     1      45.193 243.891 330.552  0.00  0.00    +0.000 C 
ATOM     40  C   UNL     1      46.705 244.042 330.296  0.00  0.00    +0.000 C 
ATOM     41  C   UNL     1      47.417 244.785 331.421  0.00  0.00    +0.000 C 
BRANCH  38  42
ATOM     42  N   UNL     1      43.088 243.093 329.514  0.00  0.00    +0.000 NA
ATOM     43  H   UNL     1      42.735 242.269 329.030  0.00  0.00    +0.000 HD
ATOM     44  H   UNL     1      42.672 243.901 329.038  0.00  0.00    +0.000 HD
ENDBRANCH  38  42
BRANCH  39  45
ATOM     45  O   UNL     1      44.555 245.169 330.733  0.00  0.00    +0.000 OA
ATOM     46  H   UNL     1      44.295 245.236 331.667  0.00  0.00    +0.000 HD
ENDBRANCH  39  45
ENDBRANCH  34  36
ENDBRANCH   3  34
TORSDOF 11
ENDMDL
