REMARK  Name = 
REMARK  13 active torsions:
REMARK  status: ('A' for Active; 'I' for Inactive)
REMARK    1  A    between atoms: O_1  and  C_13
REMARK    2  A    between atoms: O_1  and  C_19
REMARK    3  A    between atoms: O_3  and  C_14
REMARK    4  A    between atoms: O_4  and  C_22
REMARK    5  A    between atoms: O_5  and  C_24
REMARK    6  A    between atoms: O_6  and  C_26
REMARK    7  A    between atoms: O_8  and  C_30
REMARK    8  A    between atoms: O_11  and  C_35
REMARK    9  A    between atoms: O_11  and  C_39
REMARK   10  A    between atoms: N_12  and  C_21
REMARK   11  A    between atoms: C_14  and  C_25
REMARK   12  A    between atoms: C_23  and  C_29
REMARK   13  A    between atoms: C_25  and  C_30
REMARK                            x       y       z     vdW  Elec       q    Type
REMARK                         _______ _______ _______ _____ _____    ______ ____
ROOT
ATOM      1  O   UNL     1      -2.979   2.009  -1.127  0.00  0.00    +0.000 OA
ATOM      2  O   UNL     1      -3.753  -2.696   1.225  0.00  0.00    +0.000 OA
ATOM      3  C   UNL     1       1.737  -0.005  -1.010  0.00  0.00    +0.000 C 
ATOM      4  C   UNL     1       2.705  -2.096   0.044  0.00  0.00    +0.000 C 
ATOM      5  C   UNL     1       2.696  -1.183  -1.189  0.00  0.00    +0.000 C 
ATOM      6  C   UNL     1       1.301  -2.656   0.315  0.00  0.00    +0.000 C 
ATOM      7  C   UNL     1       0.351  -0.462  -0.600  0.00  0.00    +0.000 A 
ATOM      8  C   UNL     1       0.156  -1.693   0.056  0.00  0.00    +0.000 A 
ATOM      9  C   UNL     1      -0.760   0.373  -0.823  0.00  0.00    +0.000 A 
ATOM     10  C   UNL     1      -1.144  -2.064   0.444  0.00  0.00    +0.000 A 
ATOM     11  C   UNL     1      -2.057  -0.001  -0.421  0.00  0.00    +0.000 A 
ATOM     12  C   UNL     1      -2.246  -1.224   0.212  0.00  0.00    +0.000 A 
ATOM     13  C   UNL     1      -3.208   0.900  -0.654  0.00  0.00    +0.000 C 
ATOM     14  C   UNL     1      -3.599  -1.630   0.636  0.00  0.00    +0.000 C 
ATOM     15  C   UNL     1      -4.579   0.465  -0.295  0.00  0.00    +0.000 A 
ATOM     16  C   UNL     1      -4.755  -0.764   0.344  0.00  0.00    +0.000 A 
ATOM     17  C   UNL     1      -5.711   1.250  -0.565  0.00  0.00    +0.000 A 
ATOM     18  C   UNL     1      -6.037  -1.203   0.711  0.00  0.00    +0.000 A 
ATOM     19  C   UNL     1      -6.991   0.799  -0.222  0.00  0.00    +0.000 A 
ATOM     20  C   UNL     1      -7.153  -0.422   0.426  0.00  0.00    +0.000 A 
ENDROOT
BRANCH   4  21
ATOM     21  O   UNL     1       3.180  -1.385   1.194  0.00  0.00    +0.000 OA
ATOM     22  H   UNL     1       2.775  -0.492   1.168  0.00  0.00    +0.000 HD
ENDBRANCH   4  21
BRANCH   9  23
ATOM     23  O   UNL     1      -0.521   1.571  -1.454  0.00  0.00    +0.000 OA
ATOM     24  H   UNL     1      -1.371   2.066  -1.524  0.00  0.00    +0.000 HD
ENDBRANCH   9  23
BRANCH  10  25
ATOM     25  O   UNL     1      -1.279  -3.287   1.055  0.00  0.00    +0.000 OA
ATOM     26  H   UNL     1      -2.224  -3.420   1.296  0.00  0.00    +0.000 HD
ENDBRANCH  10  25
BRANCH   4  28
ATOM     27  O   UNL     1       4.044  -3.619  -1.313  0.00  0.00    +0.000 OA
ATOM     28  C   UNL     1       3.667  -3.274  -0.187  0.00  0.00    +0.000 C 
BRANCH  28  29
ATOM     29  C   UNL     1       4.141  -4.041   1.045  0.00  0.00    +0.000 C 
BRANCH  29  30
ATOM     30  O   UNL     1       4.775  -5.262   0.682  0.00  0.00    +0.000 OA
ATOM     31  H   UNL     1       5.126  -5.127  -0.222  0.00  0.00    +0.000 HD
ENDBRANCH  29  30
ENDBRANCH  28  29
ENDBRANCH   4  28
BRANCH  17  32
ATOM     32  O   UNL     1      -5.630   2.426  -1.262  0.00  0.00    +0.000 OA
ATOM     33  C   UNL     1      -5.633   3.542  -0.369  0.00  0.00    +0.000 C 
ENDBRANCH  17  32
BRANCH   3  34
ATOM     34  O   UNL     1       2.220   0.825   0.060  0.00  0.00    +0.000 OA
BRANCH  34  36
ATOM     35  O   UNL     1       3.912   2.026  -1.054  0.00  0.00    +0.000 OA
ATOM     36  C   UNL     1       2.648   2.110  -0.400  0.00  0.00    +0.000 C 
ATOM     37  C   UNL     1       2.672   3.083   0.781  0.00  0.00    +0.000 C 
ATOM     38  C   UNL     1       3.808   2.743   1.749  0.00  0.00    +0.000 C 
ATOM     39  C   UNL     1       5.142   2.677   0.978  0.00  0.00    +0.000 C 
ATOM     40  C   UNL     1       4.997   1.677  -0.185  0.00  0.00    +0.000 C 
ATOM     41  C   UNL     1       6.251   1.599  -1.049  0.00  0.00    +0.000 C 
BRANCH  38  42
ATOM     42  N   UNL     1       3.886   3.740   2.832  0.00  0.00    +0.000 NA
ATOM     43  H   UNL     1       2.949   4.007   3.128  0.00  0.00    +0.000 HD
ATOM     44  H   UNL     1       4.307   4.584   2.429  0.00  0.00    +0.000 HD
ENDBRANCH  38  42
BRANCH  39  45
ATOM     45  O   UNL     1       5.456   4.000   0.505  0.00  0.00    +0.000 OA
ATOM     46  H   UNL     1       6.339   3.964   0.101  0.00  0.00    +0.000 HD
ENDBRANCH  39  45
ENDBRANCH  34  36
ENDBRANCH   3  34
TORSDOF 11
