MODEL 1
REMARK VINA RESULT:      -6.0      0.000      0.000
REMARK  Name = Dronabinol.pdbqt.pdb
REMARK  3 active torsions:
REMARK  status: ('A' for Active; 'I' for Inactive)
REMARK    1  A    between atoms: C_13  and  O_18
REMARK    2  A    between atoms: C_16  and  C_20
REMARK    3  A    between atoms: C_21  and  C_22
REMARK                            x       y       z     vdW  Elec       q    Type
REMARK                         _______ _______ _______ _____ _____    ______ ____
ROOT
ATOM      1  O   UNL     1      53.761 246.574 325.148  0.00  0.00    +0.000 OA
ATOM      2  C   UNL     1      55.377 247.326 323.445  0.00  0.00    +0.000 A 
ATOM      3  C   UNL     1      55.253 245.989 322.815  0.00  0.00    +0.000 A 
ATOM      4  C   UNL     1      54.342 247.711 324.467  0.00  0.00    +0.000 C 
ATOM      5  C   UNL     1      56.366 248.152 322.802  0.00  0.00    +0.000 A 
ATOM      6  C   UNL     1      54.234 245.051 323.281  0.00  0.00    +0.000 A 
ATOM      7  C   UNL     1      57.241 247.704 321.616  0.00  0.00    +0.000 A 
ATOM      8  C   UNL     1      56.185 245.792 321.726  0.00  0.00    +0.000 A 
ATOM      9  C   UNL     1      57.132 246.392 321.046  0.00  0.00    +0.000 A 
ATOM     10  C   UNL     1      53.537 245.417 324.443  0.00  0.00    +0.000 A 
ATOM     11  C   UNL     1      55.008 248.577 325.571  0.00  0.00    +0.000 C 
ATOM     12  C   UNL     1      53.199 248.509 323.772  0.00  0.00    +0.000 C 
ATOM     13  C   UNL     1      53.922 243.828 322.675  0.00  0.00    +0.000 A 
ATOM     14  C   UNL     1      52.583 244.562 324.997  0.00  0.00    +0.000 A 
ATOM     15  C   UNL     1      58.361 245.646 320.630  0.00  0.00    +0.000 C 
ATOM     16  C   UNL     1      52.287 243.351 324.381  0.00  0.00    +0.000 A 
ATOM     17  C   UNL     1      52.952 242.982 323.219  0.00  0.00    +0.000 A 
ENDROOT
BRANCH  13  18
ATOM     18  O   UNL     1      54.557 243.439 321.529  0.00  0.00    +0.000 OA
ATOM     19  H   UNL     1      54.509 244.159 320.875  0.00  0.00    +0.000 HD
ENDBRANCH  13  18
BRANCH  16  20
ATOM     20  C   UNL     1      51.293 242.495 324.936  0.00  0.00    +0.000 C 
ATOM     21  C   UNL     1      50.228 241.576 325.545  0.00  0.00    +0.000 C 
BRANCH  21  22
ATOM     22  C   UNL     1      49.166 240.663 326.164  0.00  0.00    +0.000 C 
ATOM     23  C   UNL     1      48.100 239.752 326.780  0.00  0.00    +0.000 C 
ATOM     24  C   UNL     1      47.033 238.840 327.394  0.00  0.00    +0.000 C 
ENDBRANCH  21  22
ENDBRANCH  16  20
TORSDOF 3
ENDMDL
MODEL 2
REMARK VINA RESULT:      -5.8     32.620     34.213
REMARK  Name = Dronabinol.pdbqt.pdb
REMARK  3 active torsions:
REMARK  status: ('A' for Active; 'I' for Inactive)
REMARK    1  A    between atoms: C_13  and  O_18
REMARK    2  A    between atoms: C_16  and  C_20
REMARK    3  A    between atoms: C_21  and  C_22
REMARK                            x       y       z     vdW  Elec       q    Type
REMARK                         _______ _______ _______ _____ _____    ______ ____
ROOT
ATOM      1  O   UNL     1      71.080 222.161 339.364  0.00  0.00    +0.000 OA
ATOM      2  C   UNL     1      69.657 221.357 337.519  0.00  0.00    +0.000 A 
ATOM      3  C   UNL     1      69.263 220.223 338.390  0.00  0.00    +0.000 A 
ATOM      4  C   UNL     1      70.348 222.525 338.170  0.00  0.00    +0.000 C 
ATOM      5  C   UNL     1      69.103 221.257 336.194  0.00  0.00    +0.000 A 
ATOM      6  C   UNL     1      69.659 220.206 339.796  0.00  0.00    +0.000 A 
ATOM      7  C   UNL     1      68.231 220.089 335.698  0.00  0.00    +0.000 A 
ATOM      8  C   UNL     1      68.451 219.242 337.702  0.00  0.00    +0.000 A 
ATOM      9  C   UNL     1      67.893 218.981 336.544  0.00  0.00    +0.000 A 
ATOM     10  C   UNL     1      70.561 221.202 340.200  0.00  0.00    +0.000 A 
ATOM     11  C   UNL     1      71.398 223.112 337.188  0.00  0.00    +0.000 C 
ATOM     12  C   UNL     1      69.295 223.608 338.547  0.00  0.00    +0.000 C 
ATOM     13  C   UNL     1      69.228 219.273 340.748  0.00  0.00    +0.000 A 
ATOM     14  C   UNL     1      71.042 221.237 341.510  0.00  0.00    +0.000 A 
ATOM     15  C   UNL     1      67.889 217.588 335.998  0.00  0.00    +0.000 C 
ATOM     16  C   UNL     1      70.602 220.302 342.441  0.00  0.00    +0.000 A 
ATOM     17  C   UNL     1      69.693 219.321 342.064  0.00  0.00    +0.000 A 
ENDROOT
BRANCH  13  18
ATOM     18  O   UNL     1      68.332 218.299 340.408  0.00  0.00    +0.000 OA
ATOM     19  H   UNL     1      68.804 217.566 339.973  0.00  0.00    +0.000 HD
ENDBRANCH  13  18
BRANCH  16  20
ATOM     20  C   UNL     1      71.075 220.357 343.783  0.00  0.00    +0.000 C 
ATOM     21  C   UNL     1      71.579 220.430 345.229  0.00  0.00    +0.000 C 
BRANCH  21  22
ATOM     22  C   UNL     1      72.076 220.512 346.675  0.00  0.00    +0.000 C 
ATOM     23  C   UNL     1      72.575 220.598 348.121  0.00  0.00    +0.000 C 
ATOM     24  C   UNL     1      73.072 220.686 349.567  0.00  0.00    +0.000 C 
ENDBRANCH  21  22
ENDBRANCH  16  20
TORSDOF 3
ENDMDL
MODEL 3
REMARK VINA RESULT:      -5.6     30.673     32.509
REMARK  Name = Dronabinol.pdbqt.pdb
REMARK  3 active torsions:
REMARK  status: ('A' for Active; 'I' for Inactive)
REMARK    1  A    between atoms: C_13  and  O_18
REMARK    2  A    between atoms: C_16  and  C_20
REMARK    3  A    between atoms: C_21  and  C_22
REMARK                            x       y       z     vdW  Elec       q    Type
REMARK                         _______ _______ _______ _____ _____    ______ ____
ROOT
ATOM      1  O   UNL     1      68.402 221.625 337.278  0.00  0.00    +0.000 OA
ATOM      2  C   UNL     1      70.131 221.699 339.034  0.00  0.00    +0.000 A 
ATOM      3  C   UNL     1      69.458 220.539 339.669  0.00  0.00    +0.000 A 
ATOM      4  C   UNL     1      69.749 222.033 337.617  0.00  0.00    +0.000 C 
ATOM      5  C   UNL     1      71.232 222.197 339.816  0.00  0.00    +0.000 A 
ATOM      6  C   UNL     1      68.376 219.848 338.972  0.00  0.00    +0.000 A 
ATOM      7  C   UNL     1      71.657 221.634 341.185  0.00  0.00    +0.000 A 
ATOM      8  C   UNL     1      70.025 220.197 340.956  0.00  0.00    +0.000 A 
ATOM      9  C   UNL     1      70.969 220.536 341.801  0.00  0.00    +0.000 A 
ATOM     10  C   UNL     1      67.911 220.450 337.793  0.00  0.00    +0.000 A 
ATOM     11  C   UNL     1      69.789 223.574 337.425  0.00  0.00    +0.000 C 
ATOM     12  C   UNL     1      70.738 221.340 336.635  0.00  0.00    +0.000 C 
ATOM     13  C   UNL     1      67.768 218.660 339.398  0.00  0.00    +0.000 A 
ATOM     14  C   UNL     1      66.845 219.894 337.085  0.00  0.00    +0.000 A 
ATOM     15  C   UNL     1      70.706 220.541 343.274  0.00  0.00    +0.000 C 
ATOM     16  C   UNL     1      66.253 218.715 337.523  0.00  0.00    +0.000 A 
ATOM     17  C   UNL     1      66.714 218.094 338.678  0.00  0.00    +0.000 A 
ENDROOT
BRANCH  13  18
ATOM     18  O   UNL     1      68.201 218.024 340.527  0.00  0.00    +0.000 OA
ATOM     19  H   UNL     1      68.588 218.679 341.136  0.00  0.00    +0.000 HD
ENDBRANCH  13  18
BRANCH  16  20
ATOM     20  C   UNL     1      65.182 218.138 336.783  0.00  0.00    +0.000 C 
ATOM     21  C   UNL     1      64.021 217.527 335.989  0.00  0.00    +0.000 C 
BRANCH  21  22
ATOM     22  C   UNL     1      62.857 216.927 335.197  0.00  0.00    +0.000 C 
ATOM     23  C   UNL     1      61.694 216.329 334.399  0.00  0.00    +0.000 C 
ATOM     24  C   UNL     1      60.532 215.729 333.600  0.00  0.00    +0.000 C 
ENDBRANCH  21  22
ENDBRANCH  16  20
TORSDOF 3
ENDMDL
MODEL 4
REMARK VINA RESULT:      -5.5     33.098     34.787
REMARK  Name = Dronabinol.pdbqt.pdb
REMARK  3 active torsions:
REMARK  status: ('A' for Active; 'I' for Inactive)
REMARK    1  A    between atoms: C_13  and  O_18
REMARK    2  A    between atoms: C_16  and  C_20
REMARK    3  A    between atoms: C_21  and  C_22
REMARK                            x       y       z     vdW  Elec       q    Type
REMARK                         _______ _______ _______ _____ _____    ______ ____
ROOT
ATOM      1  O   UNL     1      71.257 221.940 338.677  0.00  0.00    +0.000 OA
ATOM      2  C   UNL     1      69.026 220.982 338.250  0.00  0.00    +0.000 A 
ATOM      3  C   UNL     1      69.168 220.227 339.519  0.00  0.00    +0.000 A 
ATOM      4  C   UNL     1      69.987 222.114 338.004  0.00  0.00    +0.000 C 
ATOM      5  C   UNL     1      67.822 220.646 337.537  0.00  0.00    +0.000 A 
ATOM      6  C   UNL     1      70.286 220.506 340.417  0.00  0.00    +0.000 A 
ATOM      7  C   UNL     1      66.798 219.591 337.998  0.00  0.00    +0.000 A 
ATOM      8  C   UNL     1      68.090 219.286 339.736  0.00  0.00    +0.000 A 
ATOM      9  C   UNL     1      66.973 218.844 339.211  0.00  0.00    +0.000 A 
ATOM     10  C   UNL     1      71.278 221.367 339.925  0.00  0.00    +0.000 A 
ATOM     11  C   UNL     1      70.314 222.189 336.488  0.00  0.00    +0.000 C 
ATOM     12  C   UNL     1      69.349 223.450 338.487  0.00  0.00    +0.000 C 
ATOM     13  C   UNL     1      70.446 219.971 341.702  0.00  0.00    +0.000 A 
ATOM     14  C   UNL     1      72.413 221.652 340.687  0.00  0.00    +0.000 A 
ATOM     15  C   UNL     1      66.635 217.387 339.253  0.00  0.00    +0.000 C 
ATOM     16  C   UNL     1      72.554 221.111 341.960  0.00  0.00    +0.000 A 
ATOM     17  C   UNL     1      71.571 220.272 342.471  0.00  0.00    +0.000 A 
ENDROOT
BRANCH  13  18
ATOM     18  O   UNL     1      69.495 219.146 342.233  0.00  0.00    +0.000 OA
ATOM     19  H   UNL     1      69.916 218.317 342.526  0.00  0.00    +0.000 HD
ENDBRANCH  13  18
BRANCH  16  20
ATOM     20  C   UNL     1      73.700 221.426 342.744  0.00  0.00    +0.000 C 
ATOM     21  C   UNL     1      74.932 221.779 343.586  0.00  0.00    +0.000 C 
BRANCH  21  22
ATOM     22  C   UNL     1      76.157 222.141 344.430  0.00  0.00    +0.000 C 
ATOM     23  C   UNL     1      77.381 222.507 345.275  0.00  0.00    +0.000 C 
ATOM     24  C   UNL     1      78.604 222.873 346.124  0.00  0.00    +0.000 C 
ENDBRANCH  21  22
ENDBRANCH  16  20
TORSDOF 3
ENDMDL
MODEL 5
REMARK VINA RESULT:      -5.5     31.899     33.202
REMARK  Name = Dronabinol.pdbqt.pdb
REMARK  3 active torsions:
REMARK  status: ('A' for Active; 'I' for Inactive)
REMARK    1  A    between atoms: C_13  and  O_18
REMARK    2  A    between atoms: C_16  and  C_20
REMARK    3  A    between atoms: C_21  and  C_22
REMARK                            x       y       z     vdW  Elec       q    Type
REMARK                         _______ _______ _______ _____ _____    ______ ____
ROOT
ATOM      1  O   UNL     1      71.131 219.568 340.841  0.00  0.00    +0.000 OA
ATOM      2  C   UNL     1      72.675 221.441 341.274  0.00  0.00    +0.000 A 
ATOM      3  C   UNL     1      72.019 222.168 340.160  0.00  0.00    +0.000 A 
ATOM      4  C   UNL     1      71.975 220.224 341.817  0.00  0.00    +0.000 C 
ATOM      5  C   UNL     1      73.796 222.160 341.821  0.00  0.00    +0.000 A 
ATOM      6  C   UNL     1      70.809 221.628 339.545  0.00  0.00    +0.000 A 
ATOM      7  C   UNL     1      74.304 223.516 341.296  0.00  0.00    +0.000 A 
ATOM      8  C   UNL     1      72.679 223.414 339.837  0.00  0.00    +0.000 A 
ATOM      9  C   UNL     1      73.679 224.185 340.192  0.00  0.00    +0.000 A 
ATOM     10  C   UNL     1      70.435 220.334 339.938  0.00  0.00    +0.000 A 
ATOM     11  C   UNL     1      73.034 219.171 342.243  0.00  0.00    +0.000 C 
ATOM     12  C   UNL     1      71.097 220.631 343.037  0.00  0.00    +0.000 C 
ATOM     13  C   UNL     1      70.020 222.289 338.594  0.00  0.00    +0.000 A 
ATOM     14  C   UNL     1      69.324 219.711 339.367  0.00  0.00    +0.000 A 
ATOM     15  C   UNL     1      74.513 224.876 339.159  0.00  0.00    +0.000 C 
ATOM     16  C   UNL     1      68.554 220.382 338.424  0.00  0.00    +0.000 A 
ATOM     17  C   UNL     1      68.897 221.672 338.038  0.00  0.00    +0.000 A 
ENDROOT
BRANCH  13  18
ATOM     18  O   UNL     1      70.330 223.559 338.197  0.00  0.00    +0.000 OA
ATOM     19  H   UNL     1      69.540 224.123 338.276  0.00  0.00    +0.000 HD
ENDBRANCH  13  18
BRANCH  16  20
ATOM     20  C   UNL     1      67.406 219.753 337.864  0.00  0.00    +0.000 C 
ATOM     21  C   UNL     1      66.179 219.065 337.255  0.00  0.00    +0.000 C 
BRANCH  21  22
ATOM     22  C   UNL     1      64.959 218.369 336.645  0.00  0.00    +0.000 C 
ATOM     23  C   UNL     1      63.741 217.669 336.032  0.00  0.00    +0.000 C 
ATOM     24  C   UNL     1      62.525 216.967 335.421  0.00  0.00    +0.000 C 
ENDBRANCH  21  22
ENDBRANCH  16  20
TORSDOF 3
ENDMDL
MODEL 6
REMARK VINA RESULT:      -5.4     27.174     29.142
REMARK  Name = Dronabinol.pdbqt.pdb
REMARK  3 active torsions:
REMARK  status: ('A' for Active; 'I' for Inactive)
REMARK    1  A    between atoms: C_13  and  O_18
REMARK    2  A    between atoms: C_16  and  C_20
REMARK    3  A    between atoms: C_21  and  C_22
REMARK                            x       y       z     vdW  Elec       q    Type
REMARK                         _______ _______ _______ _____ _____    ______ ____
ROOT
ATOM      1  O   UNL     1      56.780 215.957 331.498  0.00  0.00    +0.000 OA
ATOM      2  C   UNL     1      55.595 216.535 329.416  0.00  0.00    +0.000 A 
ATOM      3  C   UNL     1      54.840 217.549 330.192  0.00  0.00    +0.000 A 
ATOM      4  C   UNL     1      56.828 215.950 330.052  0.00  0.00    +0.000 C 
ATOM      5  C   UNL     1      55.144 216.431 328.053  0.00  0.00    +0.000 A 
ATOM      6  C   UNL     1      55.222 217.853 331.568  0.00  0.00    +0.000 A 
ATOM      7  C   UNL     1      53.978 217.241 327.454  0.00  0.00    +0.000 A 
ATOM      8  C   UNL     1      53.785 218.173 329.422  0.00  0.00    +0.000 A 
ATOM      9  C   UNL     1      53.235 218.189 328.232  0.00  0.00    +0.000 A 
ATOM     10  C   UNL     1      56.193 217.018 332.143  0.00  0.00    +0.000 A 
ATOM     11  C   UNL     1      56.962 214.460 329.635  0.00  0.00    +0.000 C 
ATOM     12  C   UNL     1      58.080 216.754 329.594  0.00  0.00    +0.000 C 
ATOM     13  C   UNL     1      54.686 218.885 332.348  0.00  0.00    +0.000 A 
ATOM     14  C   UNL     1      56.585 217.194 333.470  0.00  0.00    +0.000 A 
ATOM     15  C   UNL     1      51.749 218.289 328.081  0.00  0.00    +0.000 C 
ATOM     16  C   UNL     1      56.042 218.224 334.230  0.00  0.00    +0.000 A 
ATOM     17  C   UNL     1      55.094 219.073 333.670  0.00  0.00    +0.000 A 
ENDROOT
BRANCH  13  18
ATOM     18  O   UNL     1      53.756 219.738 331.826  0.00  0.00    +0.000 OA
ATOM     19  H   UNL     1      53.765 220.572 332.330  0.00  0.00    +0.000 HD
ENDBRANCH  13  18
BRANCH  16  20
ATOM     20  C   UNL     1      56.465 218.416 335.575  0.00  0.00    +0.000 C 
ATOM     21  C   UNL     1      56.933 218.618 337.021  0.00  0.00    +0.000 C 
BRANCH  21  22
ATOM     22  C   UNL     1      57.411 218.820 338.462  0.00  0.00    +0.000 C 
ATOM     23  C   UNL     1      57.891 219.026 339.902  0.00  0.00    +0.000 C 
ATOM     24  C   UNL     1      58.371 219.234 341.342  0.00  0.00    +0.000 C 
ENDBRANCH  21  22
ENDBRANCH  16  20
TORSDOF 3
ENDMDL
MODEL 7
REMARK VINA RESULT:      -5.1     30.359     32.763
REMARK  Name = Dronabinol.pdbqt.pdb
REMARK  3 active torsions:
REMARK  status: ('A' for Active; 'I' for Inactive)
REMARK    1  A    between atoms: C_13  and  O_18
REMARK    2  A    between atoms: C_16  and  C_20
REMARK    3  A    between atoms: C_21  and  C_22
REMARK                            x       y       z     vdW  Elec       q    Type
REMARK                         _______ _______ _______ _____ _____    ______ ____
ROOT
ATOM      1  O   UNL     1      63.729 228.634 352.654  0.00  0.00    +0.000 OA
ATOM      2  C   UNL     1      65.236 229.674 351.004  0.00  0.00    +0.000 A 
ATOM      3  C   UNL     1      64.038 229.982 350.185  0.00  0.00    +0.000 A 
ATOM      4  C   UNL     1      65.012 229.265 352.435  0.00  0.00    +0.000 C 
ATOM      5  C   UNL     1      66.464 230.039 350.348  0.00  0.00    +0.000 A 
ATOM      6  C   UNL     1      62.700 229.762 350.731  0.00  0.00    +0.000 A 
ATOM      7  C   UNL     1      66.554 230.644 348.934  0.00  0.00    +0.000 A 
ATOM      8  C   UNL     1      64.370 230.535 348.890  0.00  0.00    +0.000 A 
ATOM      9  C   UNL     1      65.384 230.899 348.143  0.00  0.00    +0.000 A 
ATOM     10  C   UNL     1      62.634 229.089 351.960  0.00  0.00    +0.000 A 
ATOM     11  C   UNL     1      66.081 228.213 352.840  0.00  0.00    +0.000 C 
ATOM     12  C   UNL     1      65.112 230.517 353.355  0.00  0.00    +0.000 C 
ATOM     13  C   UNL     1      61.502 230.149 350.118  0.00  0.00    +0.000 A 
ATOM     14  C   UNL     1      61.400 228.783 352.537  0.00  0.00    +0.000 A 
ATOM     15  C   UNL     1      65.391 230.611 346.674  0.00  0.00    +0.000 C 
ATOM     16  C   UNL     1      60.220 229.175 351.913  0.00  0.00    +0.000 A 
ATOM     17  C   UNL     1      60.268 229.861 350.705  0.00  0.00    +0.000 A 
ENDROOT
BRANCH  13  18
ATOM     18  O   UNL     1      61.517 230.828 348.932  0.00  0.00    +0.000 OA
ATOM     19  H   UNL     1      62.243 230.489 348.377  0.00  0.00    +0.000 HD
ENDBRANCH  13  18
BRANCH  16  20
ATOM     20  C   UNL     1      58.965 228.885 352.518  0.00  0.00    +0.000 C 
ATOM     21  C   UNL     1      57.610 228.563 353.159  0.00  0.00    +0.000 C 
BRANCH  21  22
ATOM     22  C   UNL     1      56.256 228.233 353.793  0.00  0.00    +0.000 C 
ATOM     23  C   UNL     1      54.903 227.903 354.432  0.00  0.00    +0.000 C 
ATOM     24  C   UNL     1      53.550 227.576 355.073  0.00  0.00    +0.000 C 
ENDBRANCH  21  22
ENDBRANCH  16  20
TORSDOF 3
ENDMDL
MODEL 8
REMARK VINA RESULT:      -5.1      2.067      8.186
REMARK  Name = Dronabinol.pdbqt.pdb
REMARK  3 active torsions:
REMARK  status: ('A' for Active; 'I' for Inactive)
REMARK    1  A    between atoms: C_13  and  O_18
REMARK    2  A    between atoms: C_16  and  C_20
REMARK    3  A    between atoms: C_21  and  C_22
REMARK                            x       y       z     vdW  Elec       q    Type
REMARK                         _______ _______ _______ _____ _____    ______ ____
ROOT
ATOM      1  O   UNL     1      52.380 244.910 326.127  0.00  0.00    +0.000 OA
ATOM      2  C   UNL     1      50.605 243.255 326.558  0.00  0.00    +0.000 A 
ATOM      3  C   UNL     1      50.847 242.722 325.195  0.00  0.00    +0.000 A 
ATOM      4  C   UNL     1      51.641 244.181 327.135  0.00  0.00    +0.000 C 
ATOM      5  C   UNL     1      49.498 242.611 327.216  0.00  0.00    +0.000 A 
ATOM      6  C   UNL     1      51.987 243.196 324.414  0.00  0.00    +0.000 A 
ATOM      7  C   UNL     1      48.619 241.517 326.581  0.00  0.00    +0.000 A 
ATOM      8  C   UNL     1      49.888 241.708 324.810  0.00  0.00    +0.000 A 
ATOM      9  C   UNL     1      48.846 241.042 325.246  0.00  0.00    +0.000 A 
ATOM     10  C   UNL     1      52.696 244.283 324.947  0.00  0.00    +0.000 A 
ATOM     11  C   UNL     1      50.938 245.254 328.011  0.00  0.00    +0.000 C 
ATOM     12  C   UNL     1      52.650 243.361 327.992  0.00  0.00    +0.000 C 
ATOM     13  C   UNL     1      52.403 242.666 323.186  0.00  0.00    +0.000 A 
ATOM     14  C   UNL     1      53.768 244.842 324.249  0.00  0.00    +0.000 A 
ATOM     15  C   UNL     1      47.690 240.758 324.340  0.00  0.00    +0.000 C 
ATOM     16  C   UNL     1      54.167 244.304 323.031  0.00  0.00    +0.000 A 
ATOM     17  C   UNL     1      53.488 243.214 322.498  0.00  0.00    +0.000 A 
ENDROOT
BRANCH  13  18
ATOM     18  O   UNL     1      51.759 241.593 322.638  0.00  0.00    +0.000 OA
ATOM     19  H   UNL     1      51.888 241.600 321.673  0.00  0.00    +0.000 HD
ENDBRANCH  13  18
BRANCH  16  20
ATOM     20  C   UNL     1      55.277 244.861 322.336  0.00  0.00    +0.000 C 
ATOM     21  C   UNL     1      56.481 245.458 321.598  0.00  0.00    +0.000 C 
BRANCH  21  22
ATOM     22  C   UNL     1      57.690 246.048 320.867  0.00  0.00    +0.000 C 
ATOM     23  C   UNL     1      58.899 246.637 320.132  0.00  0.00    +0.000 C 
ATOM     24  C   UNL     1      60.105 247.227 319.394  0.00  0.00    +0.000 C 
ENDBRANCH  21  22
ENDBRANCH  16  20
TORSDOF 3
ENDMDL
MODEL 9
REMARK VINA RESULT:      -5.0     25.368     26.031
REMARK  Name = Dronabinol.pdbqt.pdb
REMARK  3 active torsions:
REMARK  status: ('A' for Active; 'I' for Inactive)
REMARK    1  A    between atoms: C_13  and  O_18
REMARK    2  A    between atoms: C_16  and  C_20
REMARK    3  A    between atoms: C_21  and  C_22
REMARK                            x       y       z     vdW  Elec       q    Type
REMARK                         _______ _______ _______ _____ _____    ______ ____
ROOT
ATOM      1  O   UNL     1      66.799 237.292 345.574  0.00  0.00    +0.000 OA
ATOM      2  C   UNL     1      66.653 238.449 343.402  0.00  0.00    +0.000 A 
ATOM      3  C   UNL     1      66.521 237.117 342.763  0.00  0.00    +0.000 A 
ATOM      4  C   UNL     1      66.466 238.525 344.894  0.00  0.00    +0.000 C 
ATOM      5  C   UNL     1      66.720 239.520 342.443  0.00  0.00    +0.000 A 
ATOM      6  C   UNL     1      66.348 235.923 343.586  0.00  0.00    +0.000 A 
ATOM      7  C   UNL     1      66.704 239.327 340.915  0.00  0.00    +0.000 A 
ATOM      8  C   UNL     1      66.539 237.184 341.317  0.00  0.00    +0.000 A 
ATOM      9  C   UNL     1      66.614 238.026 340.315  0.00  0.00    +0.000 A 
ATOM     10  C   UNL     1      66.499 236.095 344.971  0.00  0.00    +0.000 A 
ATOM     11  C   UNL     1      67.419 239.605 345.476  0.00  0.00    +0.000 C 
ATOM     12  C   UNL     1      64.985 238.883 345.214  0.00  0.00    +0.000 C 
ATOM     13  C   UNL     1      66.066 234.639 343.101  0.00  0.00    +0.000 A 
ATOM     14  C   UNL     1      66.406 235.004 345.836  0.00  0.00    +0.000 A 
ATOM     15  C   UNL     1      67.428 237.698 339.103  0.00  0.00    +0.000 C 
ATOM     16  C   UNL     1      66.127 233.737 345.337  0.00  0.00    +0.000 A 
ATOM     17  C   UNL     1      65.953 233.552 343.970  0.00  0.00    +0.000 A 
ENDROOT
BRANCH  13  18
ATOM     18  O   UNL     1      65.888 234.426 341.764  0.00  0.00    +0.000 OA
ATOM     19  H   UNL     1      66.647 233.926 341.414  0.00  0.00    +0.000 HD
ENDBRANCH  13  18
BRANCH  16  20
ATOM     20  C   UNL     1      66.006 232.631 346.226  0.00  0.00    +0.000 C 
ATOM     21  C   UNL     1      65.872 231.434 347.173  0.00  0.00    +0.000 C 
BRANCH  21  22
ATOM     22  C   UNL     1      65.736 230.231 348.111  0.00  0.00    +0.000 C 
ATOM     23  C   UNL     1      65.597 229.030 349.052  0.00  0.00    +0.000 C 
ATOM     24  C   UNL     1      65.455 227.828 349.991  0.00  0.00    +0.000 C 
ENDBRANCH  21  22
ENDBRANCH  16  20
TORSDOF 3
ENDMDL
