MODEL 1
REMARK VINA RESULT:      -6.1      0.000      0.000
REMARK  Name = Ellipticine.pdbqt.pdb
REMARK  0 active torsions:
REMARK  status: ('A' for Active; 'I' for Inactive)
REMARK                            x       y       z     vdW  Elec       q    Type
REMARK                         _______ _______ _______ _____ _____    ______ ____
ROOT
ATOM      1  N   UNL     1      72.009 223.599 339.106  0.00  0.00    +0.000 N 
ATOM      2  N   UNL     1      67.476 219.053 338.979  0.00  0.00    +0.000 NA
ATOM      3  C   UNL     1      71.410 221.706 340.142  0.00  0.00    +0.000 A 
ATOM      4  C   UNL     1      71.062 222.597 339.122  0.00  0.00    +0.000 A 
ATOM      5  C   UNL     1      70.581 220.576 340.363  0.00  0.00    +0.000 A 
ATOM      6  C   UNL     1      72.614 222.219 340.742  0.00  0.00    +0.000 A 
ATOM      7  C   UNL     1      69.931 222.422 338.309  0.00  0.00    +0.000 A 
ATOM      8  C   UNL     1      69.110 221.300 338.530  0.00  0.00    +0.000 A 
ATOM      9  C   UNL     1      69.437 220.384 339.553  0.00  0.00    +0.000 A 
ATOM     10  C   UNL     1      72.956 223.393 340.075  0.00  0.00    +0.000 A 
ATOM     11  C   UNL     1      70.929 219.592 341.458  0.00  0.00    +0.000 C 
ATOM     12  C   UNL     1      73.444 221.786 341.796  0.00  0.00    +0.000 A 
ATOM     13  C   UNL     1      69.649 223.447 337.236  0.00  0.00    +0.000 C 
ATOM     14  C   UNL     1      74.081 224.158 340.401  0.00  0.00    +0.000 A 
ATOM     15  C   UNL     1      67.964 221.060 337.756  0.00  0.00    +0.000 A 
ATOM     16  C   UNL     1      68.581 219.295 339.716  0.00  0.00    +0.000 A 
ATOM     17  C   UNL     1      74.572 222.535 342.139  0.00  0.00    +0.000 A 
ATOM     18  C   UNL     1      74.881 223.702 341.450  0.00  0.00    +0.000 A 
ATOM     19  C   UNL     1      67.190 219.943 338.013  0.00  0.00    +0.000 A 
ATOM     20  H   UNL     1      71.996 224.380 338.459  0.00  0.00    +0.000 HD
ENDROOT
TORSDOF 0
ENDMDL
MODEL 2
REMARK VINA RESULT:      -5.7      1.316      2.922
REMARK  Name = Ellipticine.pdbqt.pdb
REMARK  0 active torsions:
REMARK  status: ('A' for Active; 'I' for Inactive)
REMARK                            x       y       z     vdW  Elec       q    Type
REMARK                         _______ _______ _______ _____ _____    ______ ____
ROOT
ATOM      1  N   UNL     1      71.717 220.391 341.462  0.00  0.00    +0.000 N 
ATOM      2  N   UNL     1      66.674 220.279 337.489  0.00  0.00    +0.000 NA
ATOM      3  C   UNL     1      70.793 221.555 339.786  0.00  0.00    +0.000 A 
ATOM      4  C   UNL     1      70.653 220.416 340.585  0.00  0.00    +0.000 A 
ATOM      5  C   UNL     1      69.811 221.806 338.793  0.00  0.00    +0.000 A 
ATOM      6  C   UNL     1      71.994 222.218 340.222  0.00  0.00    +0.000 A 
ATOM      7  C   UNL     1      69.587 219.514 340.448  0.00  0.00    +0.000 A 
ATOM      8  C   UNL     1      68.614 219.765 339.462  0.00  0.00    +0.000 A 
ATOM      9  C   UNL     1      68.729 220.908 338.641  0.00  0.00    +0.000 A 
ATOM     10  C   UNL     1      72.540 221.469 341.262  0.00  0.00    +0.000 A 
ATOM     11  C   UNL     1      69.932 223.030 337.911  0.00  0.00    +0.000 C 
ATOM     12  C   UNL     1      72.664 223.392 339.823  0.00  0.00    +0.000 A 
ATOM     13  C   UNL     1      69.534 218.315 341.365  0.00  0.00    +0.000 C 
ATOM     14  C   UNL     1      73.719 221.827 341.925  0.00  0.00    +0.000 A 
ATOM     15  C   UNL     1      67.520 218.907 339.268  0.00  0.00    +0.000 A 
ATOM     16  C   UNL     1      67.731 221.096 337.686  0.00  0.00    +0.000 A 
ATOM     17  C   UNL     1      73.843 223.768 340.472  0.00  0.00    +0.000 A 
ATOM     18  C   UNL     1      74.358 222.995 341.505  0.00  0.00    +0.000 A 
ATOM     19  C   UNL     1      66.592 219.199 338.286  0.00  0.00    +0.000 A 
ATOM     20  H   UNL     1      71.862 219.668 342.158  0.00  0.00    +0.000 HD
ENDROOT
TORSDOF 0
ENDMDL
MODEL 3
REMARK VINA RESULT:      -5.5     32.340     33.204
REMARK  Name = Ellipticine.pdbqt.pdb
REMARK  0 active torsions:
REMARK  status: ('A' for Active; 'I' for Inactive)
REMARK                            x       y       z     vdW  Elec       q    Type
REMARK                         _______ _______ _______ _____ _____    ______ ____
ROOT
ATOM      1  N   UNL     1      54.957 244.715 322.199  0.00  0.00    +0.000 N 
ATOM      2  N   UNL     1      50.595 243.770 326.815  0.00  0.00    +0.000 NA
ATOM      3  C   UNL     1      54.089 245.713 324.006  0.00  0.00    +0.000 A 
ATOM      4  C   UNL     1      54.034 244.563 323.212  0.00  0.00    +0.000 A 
ATOM      5  C   UNL     1      53.224 245.800 325.127  0.00  0.00    +0.000 A 
ATOM      6  C   UNL     1      55.090 246.567 323.424  0.00  0.00    +0.000 A 
ATOM      7  C   UNL     1      53.163 243.495 323.475  0.00  0.00    +0.000 A 
ATOM      8  C   UNL     1      52.305 243.583 324.588  0.00  0.00    +0.000 A 
ATOM      9  C   UNL     1      52.339 244.732 325.407  0.00  0.00    +0.000 A 
ATOM     10  C   UNL     1      55.607 245.917 322.306  0.00  0.00    +0.000 A 
ATOM     11  C   UNL     1      53.257 247.030 326.008  0.00  0.00    +0.000 C 
ATOM     12  C   UNL     1      55.602 247.839 323.751  0.00  0.00    +0.000 A 
ATOM     13  C   UNL     1      53.187 242.300 322.551  0.00  0.00    +0.000 C 
ATOM     14  C   UNL     1      56.608 246.466 321.496  0.00  0.00    +0.000 A 
ATOM     15  C   UNL     1      51.408 242.554 324.912  0.00  0.00    +0.000 A 
ATOM     16  C   UNL     1      51.463 244.754 326.493  0.00  0.00    +0.000 A 
ATOM     17  C   UNL     1      56.602 248.406 322.956  0.00  0.00    +0.000 A 
ATOM     18  C   UNL     1      57.093 247.727 321.848  0.00  0.00    +0.000 A 
ATOM     19  C   UNL     1      50.587 242.689 326.016  0.00  0.00    +0.000 A 
ATOM     20  H   UNL     1      55.125 244.023 321.477  0.00  0.00    +0.000 HD
ENDROOT
TORSDOF 0
ENDMDL
MODEL 4
REMARK VINA RESULT:      -5.5     13.176     14.942
REMARK  Name = Ellipticine.pdbqt.pdb
REMARK  0 active torsions:
REMARK  status: ('A' for Active; 'I' for Inactive)
REMARK                            x       y       z     vdW  Elec       q    Type
REMARK                         _______ _______ _______ _____ _____    ______ ____
ROOT
ATOM      1  N   UNL     1      56.858 214.886 340.022  0.00  0.00    +0.000 N 
ATOM      2  N   UNL     1      57.214 220.153 336.366  0.00  0.00    +0.000 NA
ATOM      3  C   UNL     1      57.602 216.998 340.077  0.00  0.00    +0.000 A 
ATOM      4  C   UNL     1      56.961 216.045 339.280  0.00  0.00    +0.000 A 
ATOM      5  C   UNL     1      57.828 218.289 339.532  0.00  0.00    +0.000 A 
ATOM      6  C   UNL     1      57.882 216.361 341.336  0.00  0.00    +0.000 A 
ATOM      7  C   UNL     1      56.532 216.308 337.969  0.00  0.00    +0.000 A 
ATOM      8  C   UNL     1      56.758 217.589 337.431  0.00  0.00    +0.000 A 
ATOM      9  C   UNL     1      57.403 218.572 338.213  0.00  0.00    +0.000 A 
ATOM     10  C   UNL     1      57.407 215.053 341.267  0.00  0.00    +0.000 A 
ATOM     11  C   UNL     1      58.519 219.345 340.367  0.00  0.00    +0.000 C 
ATOM     12  C   UNL     1      58.498 216.783 342.531  0.00  0.00    +0.000 A 
ATOM     13  C   UNL     1      55.850 215.202 337.198  0.00  0.00    +0.000 C 
ATOM     14  C   UNL     1      57.514 214.143 342.324  0.00  0.00    +0.000 A 
ATOM     15  C   UNL     1      56.357 217.923 336.129  0.00  0.00    +0.000 A 
ATOM     16  C   UNL     1      57.594 219.819 337.618  0.00  0.00    +0.000 A 
ATOM     17  C   UNL     1      58.616 215.890 343.599  0.00  0.00    +0.000 A 
ATOM     18  C   UNL     1      58.130 214.593 343.493  0.00  0.00    +0.000 A 
ATOM     19  C   UNL     1      56.602 219.196 335.647  0.00  0.00    +0.000 A 
ATOM     20  H   UNL     1      56.431 214.032 339.682  0.00  0.00    +0.000 HD
ENDROOT
TORSDOF 0
ENDMDL
MODEL 5
REMARK VINA RESULT:      -5.4      2.274      4.422
REMARK  Name = Ellipticine.pdbqt.pdb
REMARK  0 active torsions:
REMARK  status: ('A' for Active; 'I' for Inactive)
REMARK                            x       y       z     vdW  Elec       q    Type
REMARK                         _______ _______ _______ _____ _____    ______ ____
ROOT
ATOM      1  N   UNL     1      68.825 218.892 340.891  0.00  0.00    +0.000 N 
ATOM      2  N   UNL     1      65.848 219.610 335.247  0.00  0.00    +0.000 NA
ATOM      3  C   UNL     1      68.874 220.157 339.044  0.00  0.00    +0.000 A 
ATOM      4  C   UNL     1      68.221 219.090 339.667  0.00  0.00    +0.000 A 
ATOM      5  C   UNL     1      68.432 220.559 337.757  0.00  0.00    +0.000 A 
ATOM      6  C   UNL     1      69.903 220.596 339.951  0.00  0.00    +0.000 A 
ATOM      7  C   UNL     1      67.150 218.400 339.077  0.00  0.00    +0.000 A 
ATOM      8  C   UNL     1      66.713 218.801 337.800  0.00  0.00    +0.000 A 
ATOM      9  C   UNL     1      67.354 219.876 337.147  0.00  0.00    +0.000 A 
ATOM     10  C   UNL     1      69.843 219.789 341.085  0.00  0.00    +0.000 A 
ATOM     11  C   UNL     1      69.117 221.711 337.054  0.00  0.00    +0.000 C 
ATOM     12  C   UNL     1      70.881 221.609 339.905  0.00  0.00    +0.000 A 
ATOM     13  C   UNL     1      66.517 217.261 339.840  0.00  0.00    +0.000 C 
ATOM     14  C   UNL     1      70.705 219.939 342.176  0.00  0.00    +0.000 A 
ATOM     15  C   UNL     1      65.649 218.159 337.148  0.00  0.00    +0.000 A 
ATOM     16  C   UNL     1      66.871 220.220 335.885  0.00  0.00    +0.000 A 
ATOM     17  C   UNL     1      71.752 221.776 340.984  0.00  0.00    +0.000 A 
ATOM     18  C   UNL     1      71.662 220.952 342.099  0.00  0.00    +0.000 A 
ATOM     19  C   UNL     1      65.258 218.590 335.894  0.00  0.00    +0.000 A 
ATOM     20  H   UNL     1      68.545 218.175 341.552  0.00  0.00    +0.000 HD
ENDROOT
TORSDOF 0
ENDMDL
MODEL 6
REMARK VINA RESULT:      -5.4     31.312     32.905
REMARK  Name = Ellipticine.pdbqt.pdb
REMARK  0 active torsions:
REMARK  status: ('A' for Active; 'I' for Inactive)
REMARK                            x       y       z     vdW  Elec       q    Type
REMARK                         _______ _______ _______ _____ _____    ______ ____
ROOT
ATOM      1  N   UNL     1      54.018 247.450 325.311  0.00  0.00    +0.000 N 
ATOM      2  N   UNL     1      50.833 243.746 329.478  0.00  0.00    +0.000 NA
ATOM      3  C   UNL     1      53.414 245.318 325.639  0.00  0.00    +0.000 A 
ATOM      4  C   UNL     1      53.345 246.609 326.173  0.00  0.00    +0.000 A 
ATOM      5  C   UNL     1      52.789 244.262 326.350  0.00  0.00    +0.000 A 
ATOM      6  C   UNL     1      54.161 245.419 324.413  0.00  0.00    +0.000 A 
ATOM      7  C   UNL     1      52.686 246.904 327.377  0.00  0.00    +0.000 A 
ATOM      8  C   UNL     1      52.067 245.853 328.080  0.00  0.00    +0.000 A 
ATOM      9  C   UNL     1      52.121 244.540 327.566  0.00  0.00    +0.000 A 
ATOM     10  C   UNL     1      54.520 246.754 324.242  0.00  0.00    +0.000 A 
ATOM     11  C   UNL     1      52.844 242.852 325.802  0.00  0.00    +0.000 C 
ATOM     12  C   UNL     1      54.565 244.490 323.434  0.00  0.00    +0.000 A 
ATOM     13  C   UNL     1      52.674 248.335 327.860  0.00  0.00    +0.000 C 
ATOM     14  C   UNL     1      55.258 247.213 323.146  0.00  0.00    +0.000 A 
ATOM     15  C   UNL     1      51.391 246.073 329.290  0.00  0.00    +0.000 A 
ATOM     16  C   UNL     1      51.486 243.548 328.313  0.00  0.00    +0.000 A 
ATOM     17  C   UNL     1      55.303 244.927 322.331  0.00  0.00    +0.000 A 
ATOM     18  C   UNL     1      55.642 246.267 322.194  0.00  0.00    +0.000 A 
ATOM     19  C   UNL     1      50.799 245.007 329.942  0.00  0.00    +0.000 A 
ATOM     20  H   UNL     1      54.122 248.448 325.459  0.00  0.00    +0.000 HD
ENDROOT
TORSDOF 0
ENDMDL
MODEL 7
REMARK VINA RESULT:      -5.4     16.539     18.583
REMARK  Name = Ellipticine.pdbqt.pdb
REMARK  0 active torsions:
REMARK  status: ('A' for Active; 'I' for Inactive)
REMARK                            x       y       z     vdW  Elec       q    Type
REMARK                         _______ _______ _______ _____ _____    ______ ____
ROOT
ATOM      1  N   UNL     1      61.079 225.376 326.804  0.00  0.00    +0.000 N 
ATOM      2  N   UNL     1      56.869 220.996 324.725  0.00  0.00    +0.000 NA
ATOM      3  C   UNL     1      60.217 224.550 324.909  0.00  0.00    +0.000 A 
ATOM      4  C   UNL     1      60.187 224.451 326.303  0.00  0.00    +0.000 A 
ATOM      5  C   UNL     1      59.376 223.692 324.154  0.00  0.00    +0.000 A 
ATOM      6  C   UNL     1      61.170 225.580 324.590  0.00  0.00    +0.000 A 
ATOM      7  C   UNL     1      59.364 223.542 326.987  0.00  0.00    +0.000 A 
ATOM      8  C   UNL     1      58.530 222.692 326.236  0.00  0.00    +0.000 A 
ATOM      9  C   UNL     1      58.540 222.769 324.827  0.00  0.00    +0.000 A 
ATOM     10  C   UNL     1      61.685 226.070 325.788  0.00  0.00    +0.000 A 
ATOM     11  C   UNL     1      59.383 223.772 322.643  0.00  0.00    +0.000 C 
ATOM     12  C   UNL     1      61.641 226.139 323.385  0.00  0.00    +0.000 A 
ATOM     13  C   UNL     1      59.412 223.521 328.496  0.00  0.00    +0.000 C 
ATOM     14  C   UNL     1      62.644 227.087 325.850  0.00  0.00    +0.000 A 
ATOM     15  C   UNL     1      57.682 221.759 326.851  0.00  0.00    +0.000 A 
ATOM     16  C   UNL     1      57.690 221.898 324.145  0.00  0.00    +0.000 A 
ATOM     17  C   UNL     1      62.599 227.155 323.424  0.00  0.00    +0.000 A 
ATOM     18  C   UNL     1      63.089 227.619 324.638  0.00  0.00    +0.000 A 
ATOM     19  C   UNL     1      56.882 220.946 326.068  0.00  0.00    +0.000 A 
ATOM     20  H   UNL     1      61.255 225.516 327.792  0.00  0.00    +0.000 HD
ENDROOT
TORSDOF 0
ENDMDL
MODEL 8
REMARK VINA RESULT:      -5.3     32.549     33.795
REMARK  Name = Ellipticine.pdbqt.pdb
REMARK  0 active torsions:
REMARK  status: ('A' for Active; 'I' for Inactive)
REMARK                            x       y       z     vdW  Elec       q    Type
REMARK                         _______ _______ _______ _____ _____    ______ ____
ROOT
ATOM      1  N   UNL     1      54.681 248.477 325.163  0.00  0.00    +0.000 N 
ATOM      2  N   UNL     1      52.652 242.660 323.354  0.00  0.00    +0.000 NA
ATOM      3  C   UNL     1      55.085 246.887 323.637  0.00  0.00    +0.000 A 
ATOM      4  C   UNL     1      54.285 247.228 324.732  0.00  0.00    +0.000 A 
ATOM      5  C   UNL     1      54.869 245.634 323.010  0.00  0.00    +0.000 A 
ATOM      6  C   UNL     1      55.985 247.991 323.427  0.00  0.00    +0.000 A 
ATOM      7  C   UNL     1      53.280 246.387 325.235  0.00  0.00    +0.000 A 
ATOM      8  C   UNL     1      53.068 245.143 324.610  0.00  0.00    +0.000 A 
ATOM      9  C   UNL     1      53.861 244.773 323.503  0.00  0.00    +0.000 A 
ATOM     10  C   UNL     1      55.707 248.958 324.390  0.00  0.00    +0.000 A 
ATOM     11  C   UNL     1      55.717 245.233 321.822  0.00  0.00    +0.000 C 
ATOM     12  C   UNL     1      57.014 248.251 322.499  0.00  0.00    +0.000 A 
ATOM     13  C   UNL     1      52.475 246.856 326.424  0.00  0.00    +0.000 C 
ATOM     14  C   UNL     1      56.398 250.171 324.478  0.00  0.00    +0.000 A 
ATOM     15  C   UNL     1      52.082 244.251 325.058  0.00  0.00    +0.000 A 
ATOM     16  C   UNL     1      53.597 243.528 322.932  0.00  0.00    +0.000 A 
ATOM     17  C   UNL     1      57.717 249.456 322.570  0.00  0.00    +0.000 A 
ATOM     18  C   UNL     1      57.411 250.397 323.545  0.00  0.00    +0.000 A 
ATOM     19  C   UNL     1      51.913 243.041 324.410  0.00  0.00    +0.000 A 
ATOM     20  H   UNL     1      54.263 248.965 325.947  0.00  0.00    +0.000 HD
ENDROOT
TORSDOF 0
ENDMDL
MODEL 9
REMARK VINA RESULT:      -5.2     32.189     33.073
REMARK  Name = Ellipticine.pdbqt.pdb
REMARK  0 active torsions:
REMARK  status: ('A' for Active; 'I' for Inactive)
REMARK                            x       y       z     vdW  Elec       q    Type
REMARK                         _______ _______ _______ _____ _____    ______ ____
ROOT
ATOM      1  N   UNL     1      54.191 247.007 324.850  0.00  0.00    +0.000 N 
ATOM      2  N   UNL     1      50.269 242.087 326.131  0.00  0.00    +0.000 NA
ATOM      3  C   UNL     1      53.636 244.976 324.085  0.00  0.00    +0.000 A 
ATOM      4  C   UNL     1      53.370 245.922 325.079  0.00  0.00    +0.000 A 
ATOM      5  C   UNL     1      52.910 243.757 324.104  0.00  0.00    +0.000 A 
ATOM      6  C   UNL     1      54.658 245.540 323.243  0.00  0.00    +0.000 A 
ATOM      7  C   UNL     1      52.419 245.720 326.092  0.00  0.00    +0.000 A 
ATOM      8  C   UNL     1      51.700 244.510 326.108  0.00  0.00    +0.000 A 
ATOM      9  C   UNL     1      51.948 243.536 325.117  0.00  0.00    +0.000 A 
ATOM     10  C   UNL     1      54.978 246.799 323.746  0.00  0.00    +0.000 A 
ATOM     11  C   UNL     1      53.173 242.710 323.043  0.00  0.00    +0.000 C 
ATOM     12  C   UNL     1      55.340 245.089 322.095  0.00  0.00    +0.000 A 
ATOM     13  C   UNL     1      52.213 246.811 327.116  0.00  0.00    +0.000 C 
ATOM     14  C   UNL     1      55.941 247.632 323.167  0.00  0.00    +0.000 A 
ATOM     15  C   UNL     1      50.735 244.238 327.089  0.00  0.00    +0.000 A 
ATOM     16  C   UNL     1      51.201 242.361 325.193  0.00  0.00    +0.000 A 
ATOM     17  C   UNL     1      56.305 245.905 321.500  0.00  0.00    +0.000 A 
ATOM     18  C   UNL     1      56.598 247.155 322.031  0.00  0.00    +0.000 A 
ATOM     19  C   UNL     1      50.056 243.034 327.062  0.00  0.00    +0.000 A 
ATOM     20  H   UNL     1      54.203 247.841 325.426  0.00  0.00    +0.000 HD
ENDROOT
TORSDOF 0
ENDMDL
