MODEL 1
REMARK VINA RESULT:      -5.6      0.000      0.000
REMARK  Name = Enterolactone.pdbqt.pdb
REMARK  2 active torsions:
REMARK  status: ('A' for Active; 'I' for Inactive)
REMARK    1  A    between atoms: C_10  and  O_14
REMARK    2  A    between atoms: C_19  and  O_23
REMARK                            x       y       z     vdW  Elec       q    Type
REMARK                         _______ _______ _______ _____ _____    ______ ____
ROOT
ATOM      1  O   UNL     1      73.559 224.235 338.778  0.00  0.00    +0.000 OA
ATOM      2  O   UNL     1      72.694 224.180 336.614  0.00  0.00    +0.000 OA
ATOM      3  C   UNL     1      72.034 222.763 339.840  0.00  0.00    +0.000 C 
ATOM      4  C   UNL     1      71.696 222.885 338.442  0.00  0.00    +0.000 C 
ATOM      5  C   UNL     1      73.148 223.602 339.866  0.00  0.00    +0.000 C 
ATOM      6  C   UNL     1      72.675 223.837 337.782  0.00  0.00    +0.000 C 
ATOM      7  C   UNL     1      71.671 221.704 340.694  0.00  0.00    +0.000 C 
ATOM      8  C   UNL     1      71.287 220.628 341.546  0.00  0.00    +0.000 C 
ATOM      9  C   UNL     1      71.126 219.350 341.017  0.00  0.00    +0.000 C 
ATOM     10  C   UNL     1      70.740 218.310 341.858  0.00  0.00    +0.000 C 
ATOM     11  C   UNL     1      70.515 218.532 343.212  0.00  0.00    +0.000 C 
ATOM     12  C   UNL     1      70.678 219.812 343.735  0.00  0.00    +0.000 C 
ATOM     13  C   UNL     1      71.064 220.861 342.902  0.00  0.00    +0.000 C 
ATOM     14  C   UNL     1      70.677 222.172 337.773  0.00  0.00    +0.000 C 
ATOM     15  C   UNL     1      69.649 221.444 337.105  0.00  0.00    +0.000 C 
ATOM     16  C   UNL     1      68.438 221.207 337.748  0.00  0.00    +0.000 C 
ATOM     17  C   UNL     1      67.447 220.486 337.088  0.00  0.00    +0.000 C 
ATOM     18  C   UNL     1      67.653 220.002 335.801  0.00  0.00    +0.000 C 
ATOM     19  C   UNL     1      68.867 220.244 335.162  0.00  0.00    +0.000 C 
ATOM     20  C   UNL     1      69.867 220.965 335.814  0.00  0.00    +0.000 C 
ENDROOT
BRANCH  10  21
ATOM     21  O   UNL     1      70.573 217.046 341.371  0.00  0.00    +0.000 OA
ATOM     22  H   UNL     1      70.692 217.067 340.406  0.00  0.00    +0.000 HD
ENDBRANCH  10  21
BRANCH  17  23
ATOM     23  O   UNL     1      66.249 220.234 337.690  0.00  0.00    +0.000 OA
ATOM     24  H   UNL     1      66.338 220.418 338.643  0.00  0.00    +0.000 HD
ENDBRANCH  17  23
TORSDOF 2
ENDMDL
MODEL 2
REMARK VINA RESULT:      -5.4      2.739      7.380
REMARK  Name = Enterolactone.pdbqt.pdb
REMARK  2 active torsions:
REMARK  status: ('A' for Active; 'I' for Inactive)
REMARK    1  A    between atoms: C_10  and  O_14
REMARK    2  A    between atoms: C_19  and  O_23
REMARK                            x       y       z     vdW  Elec       q    Type
REMARK                         _______ _______ _______ _____ _____    ______ ____
ROOT
ATOM      1  O   UNL     1      70.946 219.202 343.479  0.00  0.00    +0.000 OA
ATOM      2  O   UNL     1      73.155 219.140 344.220  0.00  0.00    +0.000 OA
ATOM      3  C   UNL     1      71.106 220.994 341.936  0.00  0.00    +0.000 C 
ATOM      4  C   UNL     1      72.396 220.755 342.537  0.00  0.00    +0.000 C 
ATOM      5  C   UNL     1      70.378 219.997 342.586  0.00  0.00    +0.000 C 
ATOM      6  C   UNL     1      72.273 219.613 343.528  0.00  0.00    +0.000 C 
ATOM      7  C   UNL     1      70.866 221.645 340.712  0.00  0.00    +0.000 C 
ATOM      8  C   UNL     1      70.642 222.315 339.473  0.00  0.00    +0.000 C 
ATOM      9  C   UNL     1      71.593 222.230 338.459  0.00  0.00    +0.000 C 
ATOM     10  C   UNL     1      71.368 222.897 337.259  0.00  0.00    +0.000 C 
ATOM     11  C   UNL     1      70.210 223.642 337.062  0.00  0.00    +0.000 C 
ATOM     12  C   UNL     1      69.263 223.723 338.080  0.00  0.00    +0.000 C 
ATOM     13  C   UNL     1      69.479 223.059 339.286  0.00  0.00    +0.000 C 
ATOM     14  C   UNL     1      73.599 221.414 342.200  0.00  0.00    +0.000 C 
ATOM     15  C   UNL     1      74.810 222.080 341.851  0.00  0.00    +0.000 C 
ATOM     16  C   UNL     1      74.793 223.443 341.565  0.00  0.00    +0.000 C 
ATOM     17  C   UNL     1      75.980 224.079 341.215  0.00  0.00    +0.000 C 
ATOM     18  C   UNL     1      77.176 223.373 341.146  0.00  0.00    +0.000 C 
ATOM     19  C   UNL     1      77.186 222.010 341.433  0.00  0.00    +0.000 C 
ATOM     20  C   UNL     1      76.003 221.362 341.786  0.00  0.00    +0.000 C 
ENDROOT
BRANCH  10  21
ATOM     21  O   UNL     1      72.279 222.835 336.245  0.00  0.00    +0.000 OA
ATOM     22  H   UNL     1      73.050 222.327 336.551  0.00  0.00    +0.000 HD
ENDBRANCH  10  21
BRANCH  17  23
ATOM     23  O   UNL     1      75.999 225.412 340.927  0.00  0.00    +0.000 OA
ATOM     24  H   UNL     1      75.448 225.566 340.139  0.00  0.00    +0.000 HD
ENDBRANCH  17  23
TORSDOF 2
ENDMDL
MODEL 3
REMARK VINA RESULT:      -5.3      2.299      2.660
REMARK  Name = Enterolactone.pdbqt.pdb
REMARK  2 active torsions:
REMARK  status: ('A' for Active; 'I' for Inactive)
REMARK    1  A    between atoms: C_10  and  O_14
REMARK    2  A    between atoms: C_19  and  O_23
REMARK                            x       y       z     vdW  Elec       q    Type
REMARK                         _______ _______ _______ _____ _____    ______ ____
ROOT
ATOM      1  O   UNL     1      71.244 223.427 338.633  0.00  0.00    +0.000 OA
ATOM      2  O   UNL     1      70.023 222.509 336.872  0.00  0.00    +0.000 OA
ATOM      3  C   UNL     1      70.677 221.885 340.341  0.00  0.00    +0.000 C 
ATOM      4  C   UNL     1      70.025 221.506 339.110  0.00  0.00    +0.000 C 
ATOM      5  C   UNL     1      71.356 223.015 339.886  0.00  0.00    +0.000 C 
ATOM      6  C   UNL     1      70.391 222.509 338.032  0.00  0.00    +0.000 C 
ATOM      7  C   UNL     1      70.945 221.039 341.434  0.00  0.00    +0.000 C 
ATOM      8  C   UNL     1      71.201 220.170 342.534  0.00  0.00    +0.000 C 
ATOM      9  C   UNL     1      71.437 218.816 342.307  0.00  0.00    +0.000 C 
ATOM     10  C   UNL     1      71.675 217.977 343.391  0.00  0.00    +0.000 C 
ATOM     11  C   UNL     1      71.681 218.471 344.691  0.00  0.00    +0.000 C 
ATOM     12  C   UNL     1      71.445 219.826 344.911  0.00  0.00    +0.000 C 
ATOM     13  C   UNL     1      71.205 220.676 343.833  0.00  0.00    +0.000 C 
ATOM     14  C   UNL     1      69.242 220.347 338.912  0.00  0.00    +0.000 C 
ATOM     15  C   UNL     1      68.458 219.173 338.719  0.00  0.00    +0.000 C 
ATOM     16  C   UNL     1      67.603 218.737 339.728  0.00  0.00    +0.000 C 
ATOM     17  C   UNL     1      66.851 217.583 339.531  0.00  0.00    +0.000 C 
ATOM     18  C   UNL     1      66.944 216.862 338.345  0.00  0.00    +0.000 C 
ATOM     19  C   UNL     1      67.801 217.304 337.340  0.00  0.00    +0.000 C 
ATOM     20  C   UNL     1      68.560 218.459 337.526  0.00  0.00    +0.000 C 
ENDROOT
BRANCH  10  21
ATOM     21  O   UNL     1      71.910 216.645 343.203  0.00  0.00    +0.000 OA
ATOM     22  H   UNL     1      71.583 216.394 342.321  0.00  0.00    +0.000 HD
ENDBRANCH  10  21
BRANCH  17  23
ATOM     23  O   UNL     1      66.005 217.128 340.499  0.00  0.00    +0.000 OA
ATOM     24  H   UNL     1      65.603 216.296 340.192  0.00  0.00    +0.000 HD
ENDBRANCH  17  23
TORSDOF 2
ENDMDL
MODEL 4
REMARK VINA RESULT:      -5.0     19.470     21.240
REMARK  Name = Enterolactone.pdbqt.pdb
REMARK  2 active torsions:
REMARK  status: ('A' for Active; 'I' for Inactive)
REMARK    1  A    between atoms: C_10  and  O_14
REMARK    2  A    between atoms: C_19  and  O_23
REMARK                            x       y       z     vdW  Elec       q    Type
REMARK                         _______ _______ _______ _____ _____    ______ ____
ROOT
ATOM      1  O   UNL     1      52.644 222.534 352.547  0.00  0.00    +0.000 OA
ATOM      2  O   UNL     1      52.373 224.829 352.242  0.00  0.00    +0.000 OA
ATOM      3  C   UNL     1      54.942 222.491 353.129  0.00  0.00    +0.000 C 
ATOM      4  C   UNL     1      54.526 223.853 352.894  0.00  0.00    +0.000 C 
ATOM      5  C   UNL     1      53.723 221.852 352.897  0.00  0.00    +0.000 C 
ATOM      6  C   UNL     1      53.058 223.860 352.513  0.00  0.00    +0.000 C 
ATOM      7  C   UNL     1      56.057 222.080 353.884  0.00  0.00    +0.000 C 
ATOM      8  C   UNL     1      57.194 221.683 354.644  0.00  0.00    +0.000 C 
ATOM      9  C   UNL     1      57.619 222.466 355.715  0.00  0.00    +0.000 C 
ATOM     10  C   UNL     1      58.738 222.072 356.443  0.00  0.00    +0.000 C 
ATOM     11  C   UNL     1      59.433 220.913 356.115  0.00  0.00    +0.000 C 
ATOM     12  C   UNL     1      59.003 220.134 355.044  0.00  0.00    +0.000 C 
ATOM     13  C   UNL     1      57.884 220.519 354.308  0.00  0.00    +0.000 C 
ATOM     14  C   UNL     1      55.327 225.003 353.071  0.00  0.00    +0.000 C 
ATOM     15  C   UNL     1      56.140 226.159 353.257  0.00  0.00    +0.000 C 
ATOM     16  C   UNL     1      57.484 226.125 352.897  0.00  0.00    +0.000 C 
ATOM     17  C   UNL     1      58.270 227.257 353.094  0.00  0.00    +0.000 C 
ATOM     18  C   UNL     1      57.731 228.415 353.644  0.00  0.00    +0.000 C 
ATOM     19  C   UNL     1      56.385 228.442 354.002  0.00  0.00    +0.000 C 
ATOM     20  C   UNL     1      55.588 227.314 353.809  0.00  0.00    +0.000 C 
ENDROOT
BRANCH  10  21
ATOM     21  O   UNL     1      59.180 222.816 357.498  0.00  0.00    +0.000 OA
ATOM     22  H   UNL     1      58.769 222.476 358.312  0.00  0.00    +0.000 HD
ENDBRANCH  10  21
BRANCH  17  23
ATOM     23  O   UNL     1      59.591 227.257 352.753  0.00  0.00    +0.000 OA
ATOM     24  H   UNL     1      59.929 226.347 352.827  0.00  0.00    +0.000 HD
ENDBRANCH  17  23
TORSDOF 2
ENDMDL
MODEL 5
REMARK VINA RESULT:      -5.0     31.840     33.896
REMARK  Name = Enterolactone.pdbqt.pdb
REMARK  2 active torsions:
REMARK  status: ('A' for Active; 'I' for Inactive)
REMARK    1  A    between atoms: C_10  and  O_14
REMARK    2  A    between atoms: C_19  and  O_23
REMARK                            x       y       z     vdW  Elec       q    Type
REMARK                         _______ _______ _______ _____ _____    ______ ____
ROOT
ATOM      1  O   UNL     1      56.133 246.229 321.560  0.00  0.00    +0.000 OA
ATOM      2  O   UNL     1      55.286 244.132 322.124  0.00  0.00    +0.000 OA
ATOM      3  C   UNL     1      55.225 247.504 323.340  0.00  0.00    +0.000 C 
ATOM      4  C   UNL     1      54.831 246.122 323.483  0.00  0.00    +0.000 C 
ATOM      5  C   UNL     1      55.988 247.391 322.178  0.00  0.00    +0.000 C 
ATOM      6  C   UNL     1      55.413 245.324 322.331  0.00  0.00    +0.000 C 
ATOM      7  C   UNL     1      55.263 248.467 324.365  0.00  0.00    +0.000 C 
ATOM      8  C   UNL     1      55.287 249.432 325.414  0.00  0.00    +0.000 C 
ATOM      9  C   UNL     1      55.556 249.029 326.719  0.00  0.00    +0.000 C 
ATOM     10  C   UNL     1      55.566 249.979 327.736  0.00  0.00    +0.000 C 
ATOM     11  C   UNL     1      55.313 251.320 327.464  0.00  0.00    +0.000 C 
ATOM     12  C   UNL     1      55.045 251.717 326.156  0.00  0.00    +0.000 C 
ATOM     13  C   UNL     1      55.032 250.773 325.131  0.00  0.00    +0.000 C 
ATOM     14  C   UNL     1      54.098 245.579 324.561  0.00  0.00    +0.000 C 
ATOM     15  C   UNL     1      53.362 245.038 325.655  0.00  0.00    +0.000 C 
ATOM     16  C   UNL     1      52.319 245.769 326.217  0.00  0.00    +0.000 C 
ATOM     17  C   UNL     1      51.616 245.234 327.292  0.00  0.00    +0.000 C 
ATOM     18  C   UNL     1      51.941 243.985 327.809  0.00  0.00    +0.000 C 
ATOM     19  C   UNL     1      52.986 243.258 327.242  0.00  0.00    +0.000 C 
ATOM     20  C   UNL     1      53.698 243.784 326.165  0.00  0.00    +0.000 C 
ENDROOT
BRANCH  10  21
ATOM     21  O   UNL     1      55.826 249.618 329.026  0.00  0.00    +0.000 OA
ATOM     22  H   UNL     1      55.101 249.051 329.341  0.00  0.00    +0.000 HD
ENDBRANCH  10  21
BRANCH  17  23
ATOM     23  O   UNL     1      50.589 245.924 327.867  0.00  0.00    +0.000 OA
ATOM     24  H   UNL     1      49.899 246.068 327.195  0.00  0.00    +0.000 HD
ENDBRANCH  17  23
TORSDOF 2
ENDMDL
MODEL 6
REMARK VINA RESULT:      -5.0      2.933      7.594
REMARK  Name = Enterolactone.pdbqt.pdb
REMARK  2 active torsions:
REMARK  status: ('A' for Active; 'I' for Inactive)
REMARK    1  A    between atoms: C_10  and  O_14
REMARK    2  A    between atoms: C_19  and  O_23
REMARK                            x       y       z     vdW  Elec       q    Type
REMARK                         _______ _______ _______ _____ _____    ______ ____
ROOT
ATOM      1  O   UNL     1      67.956 216.437 336.897  0.00  0.00    +0.000 OA
ATOM      2  O   UNL     1      67.905 217.439 339.002  0.00  0.00    +0.000 OA
ATOM      3  C   UNL     1      68.727 218.275 335.614  0.00  0.00    +0.000 C 
ATOM      4  C   UNL     1      68.621 218.663 337.000  0.00  0.00    +0.000 C 
ATOM      5  C   UNL     1      68.314 216.947 335.729  0.00  0.00    +0.000 C 
ATOM      6  C   UNL     1      68.117 217.478 337.804  0.00  0.00    +0.000 C 
ATOM      7  C   UNL     1      69.521 218.901 334.634  0.00  0.00    +0.000 C 
ATOM      8  C   UNL     1      70.324 219.552 333.654  0.00  0.00    +0.000 C 
ATOM      9  C   UNL     1      71.514 220.169 334.033  0.00  0.00    +0.000 C 
ATOM     10  C   UNL     1      72.284 220.810 333.067  0.00  0.00    +0.000 C 
ATOM     11  C   UNL     1      71.882 220.841 331.736  0.00  0.00    +0.000 C 
ATOM     12  C   UNL     1      70.692 220.222 331.364  0.00  0.00    +0.000 C 
ATOM     13  C   UNL     1      69.912 219.577 332.322  0.00  0.00    +0.000 C 
ATOM     14  C   UNL     1      69.003 219.911 337.541  0.00  0.00    +0.000 C 
ATOM     15  C   UNL     1      69.395 221.170 338.080  0.00  0.00    +0.000 C 
ATOM     16  C   UNL     1      69.152 222.337 337.361  0.00  0.00    +0.000 C 
ATOM     17  C   UNL     1      69.550 223.560 337.893  0.00  0.00    +0.000 C 
ATOM     18  C   UNL     1      70.186 223.629 339.128  0.00  0.00    +0.000 C 
ATOM     19  C   UNL     1      70.426 222.457 339.843  0.00  0.00    +0.000 C 
ATOM     20  C   UNL     1      70.032 221.227 339.319  0.00  0.00    +0.000 C 
ENDROOT
BRANCH  10  21
ATOM     21  O   UNL     1      73.455 221.425 333.405  0.00  0.00    +0.000 OA
ATOM     22  H   UNL     1      73.499 222.282 332.946  0.00  0.00    +0.000 HD
ENDBRANCH  10  21
BRANCH  17  23
ATOM     23  O   UNL     1      69.328 224.722 337.214  0.00  0.00    +0.000 OA
ATOM     24  H   UNL     1      69.111 225.419 337.858  0.00  0.00    +0.000 HD
ENDBRANCH  17  23
TORSDOF 2
ENDMDL
MODEL 7
REMARK VINA RESULT:      -5.0     31.424     32.439
REMARK  Name = Enterolactone.pdbqt.pdb
REMARK  2 active torsions:
REMARK  status: ('A' for Active; 'I' for Inactive)
REMARK    1  A    between atoms: C_10  and  O_14
REMARK    2  A    between atoms: C_19  and  O_23
REMARK                            x       y       z     vdW  Elec       q    Type
REMARK                         _______ _______ _______ _____ _____    ______ ____
ROOT
ATOM      1  O   UNL     1      48.834 235.618 320.785  0.00  0.00    +0.000 OA
ATOM      2  O   UNL     1      49.430 237.820 321.263  0.00  0.00    +0.000 OA
ATOM      3  C   UNL     1      47.590 235.121 322.741  0.00  0.00    +0.000 C 
ATOM      4  C   UNL     1      48.071 236.480 322.804  0.00  0.00    +0.000 C 
ATOM      5  C   UNL     1      48.113 234.766 321.496  0.00  0.00    +0.000 C 
ATOM      6  C   UNL     1      48.873 236.777 321.551  0.00  0.00    +0.000 C 
ATOM      7  C   UNL     1      46.501 234.590 323.456  0.00  0.00    +0.000 C 
ATOM      8  C   UNL     1      45.400 234.067 324.195  0.00  0.00    +0.000 C 
ATOM      9  C   UNL     1      44.333 234.898 324.528  0.00  0.00    +0.000 C 
ATOM     10  C   UNL     1      43.269 234.379 325.259  0.00  0.00    +0.000 C 
ATOM     11  C   UNL     1      43.259 233.046 325.658  0.00  0.00    +0.000 C 
ATOM     12  C   UNL     1      44.328 232.220 325.322  0.00  0.00    +0.000 C 
ATOM     13  C   UNL     1      45.399 232.730 324.590  0.00  0.00    +0.000 C 
ATOM     14  C   UNL     1      47.776 237.414 323.823  0.00  0.00    +0.000 C 
ATOM     15  C   UNL     1      47.470 238.351 324.851  0.00  0.00    +0.000 C 
ATOM     16  C   UNL     1      47.407 237.930 326.176  0.00  0.00    +0.000 C 
ATOM     17  C   UNL     1      47.096 238.854 327.170  0.00  0.00    +0.000 C 
ATOM     18  C   UNL     1      46.848 240.185 326.856  0.00  0.00    +0.000 C 
ATOM     19  C   UNL     1      46.914 240.601 325.528  0.00  0.00    +0.000 C 
ATOM     20  C   UNL     1      47.224 239.685 324.524  0.00  0.00    +0.000 C 
ENDROOT
BRANCH  10  21
ATOM     21  O   UNL     1      42.208 235.166 325.602  0.00  0.00    +0.000 OA
ATOM     22  H   UNL     1      42.282 235.392 326.546  0.00  0.00    +0.000 HD
ENDBRANCH  10  21
BRANCH  17  23
ATOM     23  O   UNL     1      47.025 238.473 328.478  0.00  0.00    +0.000 OA
ATOM     24  H   UNL     1      47.744 238.912 328.967  0.00  0.00    +0.000 HD
ENDBRANCH  17  23
TORSDOF 2
ENDMDL
MODEL 8
REMARK VINA RESULT:      -5.0     12.440     14.949
REMARK  Name = Enterolactone.pdbqt.pdb
REMARK  2 active torsions:
REMARK  status: ('A' for Active; 'I' for Inactive)
REMARK    1  A    between atoms: C_10  and  O_14
REMARK    2  A    between atoms: C_19  and  O_23
REMARK                            x       y       z     vdW  Elec       q    Type
REMARK                         _______ _______ _______ _____ _____    ______ ____
ROOT
ATOM      1  O   UNL     1      61.328 216.658 331.976  0.00  0.00    +0.000 OA
ATOM      2  O   UNL     1      59.948 216.121 330.176  0.00  0.00    +0.000 OA
ATOM      3  C   UNL     1      59.700 217.525 333.466  0.00  0.00    +0.000 C 
ATOM      4  C   UNL     1      59.062 217.104 332.241  0.00  0.00    +0.000 C 
ATOM      5  C   UNL     1      61.016 217.185 333.150  0.00  0.00    +0.000 C 
ATOM      6  C   UNL     1      60.119 216.562 331.298  0.00  0.00    +0.000 C 
ATOM      7  C   UNL     1      59.075 217.685 334.717  0.00  0.00    +0.000 C 
ATOM      8  C   UNL     1      58.424 217.849 335.974  0.00  0.00    +0.000 C 
ATOM      9  C   UNL     1      57.332 217.048 336.298  0.00  0.00    +0.000 C 
ATOM     10  C   UNL     1      56.699 217.225 337.524  0.00  0.00    +0.000 C 
ATOM     11  C   UNL     1      57.141 218.188 338.424  0.00  0.00    +0.000 C 
ATOM     12  C   UNL     1      58.234 218.986 338.095  0.00  0.00    +0.000 C 
ATOM     13  C   UNL     1      58.876 218.817 336.869  0.00  0.00    +0.000 C 
ATOM     14  C   UNL     1      57.672 217.112 331.989  0.00  0.00    +0.000 C 
ATOM     15  C   UNL     1      56.268 217.118 331.744  0.00  0.00    +0.000 C 
ATOM     16  C   UNL     1      55.489 218.172 332.212  0.00  0.00    +0.000 C 
ATOM     17  C   UNL     1      54.117 218.161 331.975  0.00  0.00    +0.000 C 
ATOM     18  C   UNL     1      53.520 217.114 331.282  0.00  0.00    +0.000 C 
ATOM     19  C   UNL     1      54.306 216.063 330.816  0.00  0.00    +0.000 C 
ATOM     20  C   UNL     1      55.681 216.063 331.047  0.00  0.00    +0.000 C 
ENDROOT
BRANCH  10  21
ATOM     21  O   UNL     1      55.626 216.457 337.872  0.00  0.00    +0.000 OA
ATOM     22  H   UNL     1      54.963 217.026 338.301  0.00  0.00    +0.000 HD
ENDBRANCH  10  21
BRANCH  17  23
ATOM     23  O   UNL     1      53.324 219.177 332.421  0.00  0.00    +0.000 OA
ATOM     24  H   UNL     1      52.805 218.854 333.180  0.00  0.00    +0.000 HD
ENDBRANCH  17  23
TORSDOF 2
ENDMDL
MODEL 9
REMARK VINA RESULT:      -5.0     30.791     32.313
REMARK  Name = Enterolactone.pdbqt.pdb
REMARK  2 active torsions:
REMARK  status: ('A' for Active; 'I' for Inactive)
REMARK    1  A    between atoms: C_10  and  O_14
REMARK    2  A    between atoms: C_19  and  O_23
REMARK                            x       y       z     vdW  Elec       q    Type
REMARK                         _______ _______ _______ _____ _____    ______ ____
ROOT
ATOM      1  O   UNL     1      47.895 232.612 322.602  0.00  0.00    +0.000 OA
ATOM      2  O   UNL     1      46.306 231.250 323.628  0.00  0.00    +0.000 OA
ATOM      3  C   UNL     1      47.163 234.724 323.391  0.00  0.00    +0.000 C 
ATOM      4  C   UNL     1      46.309 233.686 323.919  0.00  0.00    +0.000 C 
ATOM      5  C   UNL     1      48.040 233.927 322.655  0.00  0.00    +0.000 C 
ATOM      6  C   UNL     1      46.786 232.344 323.395  0.00  0.00    +0.000 C 
ATOM      7  C   UNL     1      47.337 236.011 323.932  0.00  0.00    +0.000 C 
ATOM      8  C   UNL     1      47.495 237.314 324.489  0.00  0.00    +0.000 C 
ATOM      9  C   UNL     1      47.372 237.499 325.864  0.00  0.00    +0.000 C 
ATOM     10  C   UNL     1      47.518 238.777 326.394  0.00  0.00    +0.000 C 
ATOM     11  C   UNL     1      47.783 239.866 325.570  0.00  0.00    +0.000 C 
ATOM     12  C   UNL     1      47.905 239.675 324.196  0.00  0.00    +0.000 C 
ATOM     13  C   UNL     1      47.760 238.399 323.655  0.00  0.00    +0.000 C 
ATOM     14  C   UNL     1      45.254 233.872 324.840  0.00  0.00    +0.000 C 
ATOM     15  C   UNL     1      44.195 234.068 325.773  0.00  0.00    +0.000 C 
ATOM     16  C   UNL     1      43.375 235.188 325.664  0.00  0.00    +0.000 C 
ATOM     17  C   UNL     1      42.351 235.373 326.589  0.00  0.00    +0.000 C 
ATOM     18  C   UNL     1      42.139 234.458 327.614  0.00  0.00    +0.000 C 
ATOM     19  C   UNL     1      42.962 233.339 327.716  0.00  0.00    +0.000 C 
ATOM     20  C   UNL     1      43.992 233.143 326.796  0.00  0.00    +0.000 C 
ENDROOT
BRANCH  10  21
ATOM     21  O   UNL     1      47.404 238.993 327.736  0.00  0.00    +0.000 OA
ATOM     22  H   UNL     1      47.584 239.932 327.916  0.00  0.00    +0.000 HD
ENDBRANCH  10  21
BRANCH  17  23
ATOM     23  O   UNL     1      41.530 236.460 326.512  0.00  0.00    +0.000 OA
ATOM     24  H   UNL     1      40.624 236.180 326.734  0.00  0.00    +0.000 HD
ENDBRANCH  17  23
TORSDOF 2
ENDMDL
