MODEL 1
REMARK VINA RESULT:      -6.2      0.000      0.000
REMARK  Name = 
REMARK  12 active torsions:
REMARK  status: ('A' for Active; 'I' for Inactive)
REMARK    1  A    between atoms: O_2  and  C_12
REMARK    2  A    between atoms: O_2  and  C_24
REMARK    3  A    between atoms: O_3  and  C_18
REMARK    4  A    between atoms: O_4  and  C_23
REMARK    5  A    between atoms: O_5  and  C_25
REMARK    6  A    between atoms: O_6  and  C_26
REMARK    7  A    between atoms: O_8  and  C_27
REMARK    8  A    between atoms: O_9  and  C_31
REMARK    9  A    between atoms: O_10  and  C_32
REMARK   10  A    between atoms: O_11  and  C_33
REMARK   11  A    between atoms: C_13  and  C_16
REMARK   12  A    between atoms: C_24  and  C_28
REMARK                            x       y       z     vdW  Elec       q    Type
REMARK                         _______ _______ _______ _____ _____    ______ ____
ROOT
ATOM      1  O   UNL     1      58.976 223.989 323.889  0.00  0.00    +0.000 OA
ATOM      2  C   UNL     1      61.004 224.169 322.489  0.00  0.00    +0.000 C 
ATOM      3  C   UNL     1      60.348 223.581 323.750  0.00  0.00    +0.000 C 
ATOM      4  C   UNL     1      60.258 223.640 321.265  0.00  0.00    +0.000 C 
ATOM      5  C   UNL     1      58.765 223.674 321.475  0.00  0.00    +0.000 A 
ATOM      6  C   UNL     1      58.222 223.838 322.756  0.00  0.00    +0.000 A 
ATOM      7  C   UNL     1      57.889 223.518 320.394  0.00  0.00    +0.000 A 
ATOM      8  C   UNL     1      56.839 223.892 322.944  0.00  0.00    +0.000 A 
ATOM      9  C   UNL     1      56.508 223.557 320.572  0.00  0.00    +0.000 A 
ATOM     10  C   UNL     1      55.994 223.749 321.848  0.00  0.00    +0.000 A 
ENDROOT
BRANCH   3  11
ATOM     11  C   UNL     1      61.108 223.968 325.011  0.00  0.00    +0.000 A 
ATOM     12  C   UNL     1      62.515 223.892 325.031  0.00  0.00    +0.000 A 
ATOM     13  C   UNL     1      60.434 224.436 326.154  0.00  0.00    +0.000 A 
ATOM     14  C   UNL     1      61.157 224.811 327.282  0.00  0.00    +0.000 A 
ATOM     15  C   UNL     1      63.227 224.269 326.172  0.00  0.00    +0.000 A 
ATOM     16  C   UNL     1      62.547 224.728 327.294  0.00  0.00    +0.000 A 
BRANCH  14  17
ATOM     17  O   UNL     1      60.537 225.277 328.411  0.00  0.00    +0.000 OA
ATOM     18  H   UNL     1      60.969 226.107 328.677  0.00  0.00    +0.000 HD
ENDBRANCH  14  17
BRANCH  15  19
ATOM     19  O   UNL     1      64.590 224.193 326.195  0.00  0.00    +0.000 OA
ATOM     20  H   UNL     1      64.902 223.696 325.424  0.00  0.00    +0.000 HD
ENDBRANCH  15  19
BRANCH  16  21
ATOM     21  O   UNL     1      63.226 225.106 328.420  0.00  0.00    +0.000 OA
ATOM     22  H   UNL     1      63.923 225.708 328.098  0.00  0.00    +0.000 HD
ENDBRANCH  16  21
ENDBRANCH   3  11
BRANCH   7  23
ATOM     23  O   UNL     1      58.416 223.325 319.148  0.00  0.00    +0.000 OA
ATOM     24  H   UNL     1      58.349 222.382 318.922  0.00  0.00    +0.000 HD
ENDBRANCH   7  23
BRANCH  10  25
ATOM     25  O   UNL     1      54.638 223.786 321.986  0.00  0.00    +0.000 OA
ATOM     26  H   UNL     1      54.381 224.662 322.321  0.00  0.00    +0.000 HD
ENDBRANCH  10  25
BRANCH   2  27
ATOM     27  O   UNL     1      60.900 225.615 322.515  0.00  0.00    +0.000 OA
BRANCH  27  29
ATOM     28  O   UNL     1      62.360 226.448 320.952  0.00  0.00    +0.000 OA
ATOM     29  C   UNL     1      61.987 226.305 322.105  0.00  0.00    +0.000 C 
BRANCH  29  30
ATOM     30  C   UNL     1      62.709 226.851 323.282  0.00  0.00    +0.000 A 
ATOM     31  C   UNL     1      61.949 227.435 324.307  0.00  0.00    +0.000 A 
ATOM     32  C   UNL     1      64.109 226.784 323.387  0.00  0.00    +0.000 A 
ATOM     33  C   UNL     1      64.743 227.315 324.509  0.00  0.00    +0.000 A 
ATOM     34  C   UNL     1      62.599 227.961 325.417  0.00  0.00    +0.000 A 
ATOM     35  C   UNL     1      63.989 227.907 325.517  0.00  0.00    +0.000 A 
BRANCH  33  36
ATOM     36  O   UNL     1      66.103 227.261 324.626  0.00  0.00    +0.000 OA
ATOM     37  H   UNL     1      66.502 227.996 324.138  0.00  0.00    +0.000 HD
ENDBRANCH  33  36
BRANCH  34  38
ATOM     38  O   UNL     1      61.909 228.547 326.443  0.00  0.00    +0.000 OA
ATOM     39  H   UNL     1      61.789 227.891 327.153  0.00  0.00    +0.000 HD
ENDBRANCH  34  38
BRANCH  35  40
ATOM     40  O   UNL     1      64.595 228.435 326.624  0.00  0.00    +0.000 OA
ATOM     41  H   UNL     1      64.058 229.217 326.858  0.00  0.00    +0.000 HD
ENDBRANCH  35  40
ENDBRANCH  29  30
ENDBRANCH  27  29
ENDBRANCH   2  27
TORSDOF 12
ENDMDL
MODEL 2
REMARK VINA RESULT:      -5.7     20.988     23.557
REMARK  Name = 
REMARK  12 active torsions:
REMARK  status: ('A' for Active; 'I' for Inactive)
REMARK    1  A    between atoms: O_2  and  C_12
REMARK    2  A    between atoms: O_2  and  C_24
REMARK    3  A    between atoms: O_3  and  C_18
REMARK    4  A    between atoms: O_4  and  C_23
REMARK    5  A    between atoms: O_5  and  C_25
REMARK    6  A    between atoms: O_6  and  C_26
REMARK    7  A    between atoms: O_8  and  C_27
REMARK    8  A    between atoms: O_9  and  C_31
REMARK    9  A    between atoms: O_10  and  C_32
REMARK   10  A    between atoms: O_11  and  C_33
REMARK   11  A    between atoms: C_13  and  C_16
REMARK   12  A    between atoms: C_24  and  C_28
REMARK                            x       y       z     vdW  Elec       q    Type
REMARK                         _______ _______ _______ _____ _____    ______ ____
ROOT
ATOM      1  O   UNL     1      53.083 246.425 324.303  0.00  0.00    +0.000 OA
ATOM      2  C   UNL     1      52.860 247.062 326.680  0.00  0.00    +0.000 C 
ATOM      3  C   UNL     1      53.386 246.041 325.655  0.00  0.00    +0.000 C 
ATOM      4  C   UNL     1      53.560 248.398 326.432  0.00  0.00    +0.000 C 
ATOM      5  C   UNL     1      53.633 248.714 324.959  0.00  0.00    +0.000 A 
ATOM      6  C   UNL     1      53.400 247.722 323.997  0.00  0.00    +0.000 A 
ATOM      7  C   UNL     1      53.960 250.003 324.522  0.00  0.00    +0.000 A 
ATOM      8  C   UNL     1      53.446 248.024 322.635  0.00  0.00    +0.000 A 
ATOM      9  C   UNL     1      54.021 250.312 323.165  0.00  0.00    +0.000 A 
ATOM     10  C   UNL     1      53.759 249.318 322.231  0.00  0.00    +0.000 A 
ENDROOT
BRANCH   3  11
ATOM     11  C   UNL     1      52.823 244.649 325.911  0.00  0.00    +0.000 A 
ATOM     12  C   UNL     1      52.974 244.056 327.179  0.00  0.00    +0.000 A 
ATOM     13  C   UNL     1      52.120 243.953 324.910  0.00  0.00    +0.000 A 
ATOM     14  C   UNL     1      51.592 242.695 325.181  0.00  0.00    +0.000 A 
ATOM     15  C   UNL     1      52.440 242.791 327.436  0.00  0.00    +0.000 A 
ATOM     16  C   UNL     1      51.750 242.113 326.437  0.00  0.00    +0.000 A 
BRANCH  14  17
ATOM     17  O   UNL     1      50.897 241.988 324.236  0.00  0.00    +0.000 OA
ATOM     18  H   UNL     1      50.922 241.047 324.479  0.00  0.00    +0.000 HD
ENDBRANCH  14  17
BRANCH  15  19
ATOM     19  O   UNL     1      52.587 242.212 328.664  0.00  0.00    +0.000 OA
ATOM     20  H   UNL     1      51.782 242.346 329.186  0.00  0.00    +0.000 HD
ENDBRANCH  15  19
BRANCH  16  21
ATOM     21  O   UNL     1      51.216 240.876 326.669  0.00  0.00    +0.000 OA
ATOM     22  H   UNL     1      50.258 241.035 326.772  0.00  0.00    +0.000 HD
ENDBRANCH  16  21
ENDBRANCH   3  11
BRANCH   7  23
ATOM     23  O   UNL     1      54.219 250.965 325.458  0.00  0.00    +0.000 OA
ATOM     24  H   UNL     1      55.148 251.238 325.377  0.00  0.00    +0.000 HD
ENDBRANCH   7  23
BRANCH  10  25
ATOM     25  O   UNL     1      53.823 249.655 320.912  0.00  0.00    +0.000 OA
ATOM     26  H   UNL     1      54.251 248.931 320.423  0.00  0.00    +0.000 HD
ENDBRANCH  10  25
BRANCH   2  27
ATOM     27  O   UNL     1      51.432 247.239 326.504  0.00  0.00    +0.000 OA
BRANCH  27  29
ATOM     28  O   UNL     1      50.357 248.756 327.849  0.00  0.00    +0.000 OA
ATOM     29  C   UNL     1      50.734 247.624 327.594  0.00  0.00    +0.000 C 
BRANCH  29  30
ATOM     30  C   UNL     1      50.513 246.458 328.487  0.00  0.00    +0.000 A 
ATOM     31  C   UNL     1      51.016 246.527 329.796  0.00  0.00    +0.000 A 
ATOM     32  C   UNL     1      49.815 245.317 328.055  0.00  0.00    +0.000 A 
ATOM     33  C   UNL     1      49.637 244.245 328.927  0.00  0.00    +0.000 A 
ATOM     34  C   UNL     1      50.830 245.447 330.651  0.00  0.00    +0.000 A 
ATOM     35  C   UNL     1      50.149 244.309 330.220  0.00  0.00    +0.000 A 
BRANCH  33  36
ATOM     36  O   UNL     1      48.963 243.128 328.523  0.00  0.00    +0.000 OA
ATOM     37  H   UNL     1      49.510 242.625 327.901  0.00  0.00    +0.000 HD
ENDBRANCH  33  36
BRANCH  34  38
ATOM     38  O   UNL     1      51.304 245.458 331.934  0.00  0.00    +0.000 OA
ATOM     39  H   UNL     1      52.194 245.854 331.935  0.00  0.00    +0.000 HD
ENDBRANCH  34  38
BRANCH  35  40
ATOM     40  O   UNL     1      49.986 243.265 331.089  0.00  0.00    +0.000 OA
ATOM     41  H   UNL     1      49.024 243.221 331.254  0.00  0.00    +0.000 HD
ENDBRANCH  35  40
ENDBRANCH  29  30
ENDBRANCH  27  29
ENDBRANCH   2  27
TORSDOF 12
ENDMDL
MODEL 3
REMARK VINA RESULT:      -5.6      3.940      7.841
REMARK  Name = 
REMARK  12 active torsions:
REMARK  status: ('A' for Active; 'I' for Inactive)
REMARK    1  A    between atoms: O_2  and  C_12
REMARK    2  A    between atoms: O_2  and  C_24
REMARK    3  A    between atoms: O_3  and  C_18
REMARK    4  A    between atoms: O_4  and  C_23
REMARK    5  A    between atoms: O_5  and  C_25
REMARK    6  A    between atoms: O_6  and  C_26
REMARK    7  A    between atoms: O_8  and  C_27
REMARK    8  A    between atoms: O_9  and  C_31
REMARK    9  A    between atoms: O_10  and  C_32
REMARK   10  A    between atoms: O_11  and  C_33
REMARK   11  A    between atoms: C_13  and  C_16
REMARK   12  A    between atoms: C_24  and  C_28
REMARK                            x       y       z     vdW  Elec       q    Type
REMARK                         _______ _______ _______ _____ _____    ______ ____
ROOT
ATOM      1  O   UNL     1      61.594 220.553 329.141  0.00  0.00    +0.000 OA
ATOM      2  C   UNL     1      62.848 222.678 329.011  0.00  0.00    +0.000 C 
ATOM      3  C   UNL     1      61.478 221.986 329.126  0.00  0.00    +0.000 C 
ATOM      4  C   UNL     1      63.676 222.314 330.243  0.00  0.00    +0.000 C 
ATOM      5  C   UNL     1      63.550 220.848 330.575  0.00  0.00    +0.000 A 
ATOM      6  C   UNL     1      62.528 220.068 330.018  0.00  0.00    +0.000 A 
ATOM      7  C   UNL     1      64.440 220.242 331.470  0.00  0.00    +0.000 A 
ATOM      8  C   UNL     1      62.428 218.707 330.311  0.00  0.00    +0.000 A 
ATOM      9  C   UNL     1      64.342 218.886 331.779  0.00  0.00    +0.000 A 
ATOM     10  C   UNL     1      63.337 218.129 331.192  0.00  0.00    +0.000 A 
ENDROOT
BRANCH   3  11
ATOM     11  C   UNL     1      60.547 222.394 327.992  0.00  0.00    +0.000 A 
ATOM     12  C   UNL     1      60.022 223.700 327.953  0.00  0.00    +0.000 A 
ATOM     13  C   UNL     1      60.226 221.497 326.955  0.00  0.00    +0.000 A 
ATOM     14  C   UNL     1      59.396 221.907 325.916  0.00  0.00    +0.000 A 
ATOM     15  C   UNL     1      59.188 224.096 326.905  0.00  0.00    +0.000 A 
ATOM     16  C   UNL     1      58.877 223.200 325.889  0.00  0.00    +0.000 A 
BRANCH  14  17
ATOM     17  O   UNL     1      59.065 221.067 324.887  0.00  0.00    +0.000 OA
ATOM     18  H   UNL     1      58.265 221.412 324.456  0.00  0.00    +0.000 HD
ENDBRANCH  14  17
BRANCH  15  19
ATOM     19  O   UNL     1      58.675 225.361 326.867  0.00  0.00    +0.000 OA
ATOM     20  H   UNL     1      59.353 225.978 326.555  0.00  0.00    +0.000 HD
ENDBRANCH  15  19
BRANCH  16  21
ATOM     21  O   UNL     1      58.066 223.568 324.852  0.00  0.00    +0.000 OA
ATOM     22  H   UNL     1      57.239 223.068 324.994  0.00  0.00    +0.000 HD
ENDBRANCH  16  21
ENDBRANCH   3  11
BRANCH   7  23
ATOM     23  O   UNL     1      65.418 221.007 332.040  0.00  0.00    +0.000 OA
ATOM     24  H   UNL     1      66.258 220.834 331.582  0.00  0.00    +0.000 HD
ENDBRANCH   7  23
BRANCH  10  25
ATOM     25  O   UNL     1      63.271 216.805 331.513  0.00  0.00    +0.000 OA
ATOM     26  H   UNL     1      64.048 216.574 332.050  0.00  0.00    +0.000 HD
ENDBRANCH  10  25
BRANCH   2  27
ATOM     27  O   UNL     1      63.535 222.206 327.826  0.00  0.00    +0.000 OA
BRANCH  27  29
ATOM     28  O   UNL     1      65.495 223.235 327.218  0.00  0.00    +0.000 OA
ATOM     29  C   UNL     1      64.282 223.114 327.160  0.00  0.00    +0.000 C 
BRANCH  29  30
ATOM     30  C   UNL     1      63.400 223.996 326.354  0.00  0.00    +0.000 A 
ATOM     31  C   UNL     1      62.814 223.461 325.197  0.00  0.00    +0.000 A 
ATOM     32  C   UNL     1      63.143 225.326 326.730  0.00  0.00    +0.000 A 
ATOM     33  C   UNL     1      62.313 226.118 325.939  0.00  0.00    +0.000 A 
ATOM     34  C   UNL     1      61.991 224.266 324.420  0.00  0.00    +0.000 A 
ATOM     35  C   UNL     1      61.744 225.590 324.784  0.00  0.00    +0.000 A 
BRANCH  33  36
ATOM     36  O   UNL     1      62.054 227.413 326.287  0.00  0.00    +0.000 OA
ATOM     37  H   UNL     1      62.649 227.684 327.002  0.00  0.00    +0.000 HD
ENDBRANCH  33  36
BRANCH  34  38
ATOM     38  O   UNL     1      61.397 223.798 323.279  0.00  0.00    +0.000 OA
ATOM     39  H   UNL     1      61.819 224.224 322.511  0.00  0.00    +0.000 HD
ENDBRANCH  34  38
BRANCH  35  40
ATOM     40  O   UNL     1      60.928 226.354 323.994  0.00  0.00    +0.000 OA
ATOM     41  H   UNL     1      61.393 227.208 323.902  0.00  0.00    +0.000 HD
ENDBRANCH  35  40
ENDBRANCH  29  30
ENDBRANCH  27  29
ENDBRANCH   2  27
TORSDOF 12
ENDMDL
MODEL 4
REMARK VINA RESULT:      -5.4     28.742     30.905
REMARK  Name = 
REMARK  12 active torsions:
REMARK  status: ('A' for Active; 'I' for Inactive)
REMARK    1  A    between atoms: O_2  and  C_12
REMARK    2  A    between atoms: O_2  and  C_24
REMARK    3  A    between atoms: O_3  and  C_18
REMARK    4  A    between atoms: O_4  and  C_23
REMARK    5  A    between atoms: O_5  and  C_25
REMARK    6  A    between atoms: O_6  and  C_26
REMARK    7  A    between atoms: O_8  and  C_27
REMARK    8  A    between atoms: O_9  and  C_31
REMARK    9  A    between atoms: O_10  and  C_32
REMARK   10  A    between atoms: O_11  and  C_33
REMARK   11  A    between atoms: C_13  and  C_16
REMARK   12  A    between atoms: C_24  and  C_28
REMARK                            x       y       z     vdW  Elec       q    Type
REMARK                         _______ _______ _______ _____ _____    ______ ____
ROOT
ATOM      1  O   UNL     1      57.361 244.429 347.960  0.00  0.00    +0.000 OA
ATOM      2  C   UNL     1      54.980 244.193 347.341  0.00  0.00    +0.000 C 
ATOM      3  C   UNL     1      56.017 244.360 348.466  0.00  0.00    +0.000 C 
ATOM      4  C   UNL     1      55.050 245.422 346.436  0.00  0.00    +0.000 C 
ATOM      5  C   UNL     1      56.478 245.814 346.151  0.00  0.00    +0.000 A 
ATOM      6  C   UNL     1      57.531 245.306 346.921  0.00  0.00    +0.000 A 
ATOM      7  C   UNL     1      56.777 246.714 345.121  0.00  0.00    +0.000 A 
ATOM      8  C   UNL     1      58.854 245.654 346.640  0.00  0.00    +0.000 A 
ATOM      9  C   UNL     1      58.093 247.077 344.839  0.00  0.00    +0.000 A 
ATOM     10  C   UNL     1      59.122 246.539 345.601  0.00  0.00    +0.000 A 
ENDROOT
BRANCH   3  11
ATOM     11  C   UNL     1      55.930 243.228 349.482  0.00  0.00    +0.000 A 
ATOM     12  C   UNL     1      54.713 242.976 350.146  0.00  0.00    +0.000 A 
ATOM     13  C   UNL     1      57.037 242.401 349.747  0.00  0.00    +0.000 A 
ATOM     14  C   UNL     1      56.920 241.356 350.658  0.00  0.00    +0.000 A 
ATOM     15  C   UNL     1      54.612 241.925 351.060  0.00  0.00    +0.000 A 
ATOM     16  C   UNL     1      55.714 241.117 351.314  0.00  0.00    +0.000 A 
BRANCH  14  17
ATOM     17  O   UNL     1      57.972 240.526 350.938  0.00  0.00    +0.000 OA
ATOM     18  H   UNL     1      58.748 241.075 351.145  0.00  0.00    +0.000 HD
ENDBRANCH  14  17
BRANCH  15  19
ATOM     19  O   UNL     1      53.435 241.681 351.707  0.00  0.00    +0.000 OA
ATOM     20  H   UNL     1      53.479 242.034 352.608  0.00  0.00    +0.000 HD
ENDBRANCH  15  19
BRANCH  16  21
ATOM     21  O   UNL     1      55.635 240.080 352.202  0.00  0.00    +0.000 OA
ATOM     22  H   UNL     1      56.058 239.329 351.744  0.00  0.00    +0.000 HD
ENDBRANCH  16  21
ENDBRANCH   3  11
BRANCH   7  23
ATOM     23  O   UNL     1      55.749 247.236 344.388  0.00  0.00    +0.000 OA
ATOM     24  H   UNL     1      55.114 247.654 344.993  0.00  0.00    +0.000 HD
ENDBRANCH   7  23
BRANCH  10  25
ATOM     25  O   UNL     1      60.398 246.912 345.296  0.00  0.00    +0.000 OA
ATOM     26  H   UNL     1      60.737 247.481 346.008  0.00  0.00    +0.000 HD
ENDBRANCH  10  25
BRANCH   2  27
ATOM     27  O   UNL     1      55.295 243.014 346.559  0.00  0.00    +0.000 OA
BRANCH  27  29
ATOM     28  O   UNL     1      53.593 242.467 345.119  0.00  0.00    +0.000 OA
ATOM     29  C   UNL     1      54.246 242.277 346.132  0.00  0.00    +0.000 C 
BRANCH  29  30
ATOM     30  C   UNL     1      53.963 241.194 347.108  0.00  0.00    +0.000 A 
ATOM     31  C   UNL     1      55.024 240.360 347.492  0.00  0.00    +0.000 A 
ATOM     32  C   UNL     1      52.679 241.002 347.647  0.00  0.00    +0.000 A 
ATOM     33  C   UNL     1      52.459 239.969 348.556  0.00  0.00    +0.000 A 
ATOM     34  C   UNL     1      54.786 239.333 348.397  0.00  0.00    +0.000 A 
ATOM     35  C   UNL     1      53.510 239.134 348.925  0.00  0.00    +0.000 A 
BRANCH  33  36
ATOM     36  O   UNL     1      51.218 239.767 349.089  0.00  0.00    +0.000 OA
ATOM     37  H   UNL     1      50.578 239.620 348.377  0.00  0.00    +0.000 HD
ENDBRANCH  33  36
BRANCH  34  38
ATOM     38  O   UNL     1      55.781 238.487 348.802  0.00  0.00    +0.000 OA
ATOM     39  H   UNL     1      56.494 238.504 348.139  0.00  0.00    +0.000 HD
ENDBRANCH  34  38
BRANCH  35  40
ATOM     40  O   UNL     1      53.312 238.112 349.814  0.00  0.00    +0.000 OA
ATOM     41  H   UNL     1      52.394 238.223 350.126  0.00  0.00    +0.000 HD
ENDBRANCH  35  40
ENDBRANCH  29  30
ENDBRANCH  27  29
ENDBRANCH   2  27
TORSDOF 12
ENDMDL
MODEL 5
REMARK VINA RESULT:      -5.4     19.933     22.397
REMARK  Name = 
REMARK  12 active torsions:
REMARK  status: ('A' for Active; 'I' for Inactive)
REMARK    1  A    between atoms: O_2  and  C_12
REMARK    2  A    between atoms: O_2  and  C_24
REMARK    3  A    between atoms: O_3  and  C_18
REMARK    4  A    between atoms: O_4  and  C_23
REMARK    5  A    between atoms: O_5  and  C_25
REMARK    6  A    between atoms: O_6  and  C_26
REMARK    7  A    between atoms: O_8  and  C_27
REMARK    8  A    between atoms: O_9  and  C_31
REMARK    9  A    between atoms: O_10  and  C_32
REMARK   10  A    between atoms: O_11  and  C_33
REMARK   11  A    between atoms: C_13  and  C_16
REMARK   12  A    between atoms: C_24  and  C_28
REMARK                            x       y       z     vdW  Elec       q    Type
REMARK                         _______ _______ _______ _____ _____    ______ ____
ROOT
ATOM      1  O   UNL     1      54.464 244.566 323.118  0.00  0.00    +0.000 OA
ATOM      2  C   UNL     1      53.851 246.310 324.758  0.00  0.00    +0.000 C 
ATOM      3  C   UNL     1      54.319 244.864 324.518  0.00  0.00    +0.000 C 
ATOM      4  C   UNL     1      54.916 247.259 324.210  0.00  0.00    +0.000 C 
ATOM      5  C   UNL     1      55.423 246.799 322.866  0.00  0.00    +0.000 A 
ATOM      6  C   UNL     1      55.175 245.498 322.410  0.00  0.00    +0.000 A 
ATOM      7  C   UNL     1      56.173 247.659 322.056  0.00  0.00    +0.000 A 
ATOM      8  C   UNL     1      55.627 245.083 321.155  0.00  0.00    +0.000 A 
ATOM      9  C   UNL     1      56.639 247.252 320.807  0.00  0.00    +0.000 A 
ATOM     10  C   UNL     1      56.357 245.965 320.366  0.00  0.00    +0.000 A 
ENDROOT
BRANCH   3  11
ATOM     11  C   UNL     1      53.365 243.854 325.141  0.00  0.00    +0.000 A 
ATOM     12  C   UNL     1      53.417 243.607 326.527  0.00  0.00    +0.000 A 
ATOM     13  C   UNL     1      52.403 243.184 324.363  0.00  0.00    +0.000 A 
ATOM     14  C   UNL     1      51.525 242.289 324.965  0.00  0.00    +0.000 A 
ATOM     15  C   UNL     1      52.531 242.703 327.117  0.00  0.00    +0.000 A 
ATOM     16  C   UNL     1      51.586 242.047 326.336  0.00  0.00    +0.000 A 
BRANCH  14  17
ATOM     17  O   UNL     1      50.571 241.622 324.244  0.00  0.00    +0.000 OA
ATOM     18  H   UNL     1      49.732 241.664 324.733  0.00  0.00    +0.000 HD
ENDBRANCH  14  17
BRANCH  15  19
ATOM     19  O   UNL     1      52.580 242.459 328.460  0.00  0.00    +0.000 OA
ATOM     20  H   UNL     1      52.913 243.243 328.921  0.00  0.00    +0.000 HD
ENDBRANCH  15  19
BRANCH  16  21
ATOM     21  O   UNL     1      50.706 241.161 326.894  0.00  0.00    +0.000 OA
ATOM     22  H   UNL     1      50.987 240.288 326.558  0.00  0.00    +0.000 HD
ENDBRANCH  16  21
ENDBRANCH   3  11
BRANCH   7  23
ATOM     23  O   UNL     1      56.443 248.919 322.512  0.00  0.00    +0.000 OA
ATOM     24  H   UNL     1      57.388 248.976 322.731  0.00  0.00    +0.000 HD
ENDBRANCH   7  23
BRANCH  10  25
ATOM     25  O   UNL     1      56.824 245.600 319.138  0.00  0.00    +0.000 OA
ATOM     26  H   UNL     1      57.790 245.497 319.187  0.00  0.00    +0.000 HD
ENDBRANCH  10  25
BRANCH   2  27
ATOM     27  O   UNL     1      52.606 246.543 324.052  0.00  0.00    +0.000 OA
BRANCH  27  29
ATOM     28  O   UNL     1      51.425 248.473 324.435  0.00  0.00    +0.000 OA
ATOM     29  C   UNL     1      51.689 247.308 324.684  0.00  0.00    +0.000 C 
BRANCH  29  30
ATOM     30  C   UNL     1      51.055 246.532 325.779  0.00  0.00    +0.000 A 
ATOM     31  C   UNL     1      50.020 245.646 325.443  0.00  0.00    +0.000 A 
ATOM     32  C   UNL     1      51.472 246.661 327.115  0.00  0.00    +0.000 A 
ATOM     33  C   UNL     1      50.843 245.915 328.110  0.00  0.00    +0.000 A 
ATOM     34  C   UNL     1      49.403 244.912 326.449  0.00  0.00    +0.000 A 
ATOM     35  C   UNL     1      49.807 245.048 327.777  0.00  0.00    +0.000 A 
BRANCH  33  36
ATOM     36  O   UNL     1      51.235 246.030 329.414  0.00  0.00    +0.000 OA
ATOM     37  H   UNL     1      51.818 246.797 329.513  0.00  0.00    +0.000 HD
ENDBRANCH  33  36
BRANCH  34  38
ATOM     38  O   UNL     1      48.385 244.038 326.180  0.00  0.00    +0.000 OA
ATOM     39  H   UNL     1      48.757 243.142 326.096  0.00  0.00    +0.000 HD
ENDBRANCH  34  38
BRANCH  35  40
ATOM     40  O   UNL     1      49.176 244.310 328.741  0.00  0.00    +0.000 OA
ATOM     41  H   UNL     1      49.532 244.642 329.588  0.00  0.00    +0.000 HD
ENDBRANCH  35  40
ENDBRANCH  29  30
ENDBRANCH  27  29
ENDBRANCH   2  27
TORSDOF 12
ENDMDL
MODEL 6
REMARK VINA RESULT:      -5.4     19.864     22.292
REMARK  Name = 
REMARK  12 active torsions:
REMARK  status: ('A' for Active; 'I' for Inactive)
REMARK    1  A    between atoms: O_2  and  C_12
REMARK    2  A    between atoms: O_2  and  C_24
REMARK    3  A    between atoms: O_3  and  C_18
REMARK    4  A    between atoms: O_4  and  C_23
REMARK    5  A    between atoms: O_5  and  C_25
REMARK    6  A    between atoms: O_6  and  C_26
REMARK    7  A    between atoms: O_8  and  C_27
REMARK    8  A    between atoms: O_9  and  C_31
REMARK    9  A    between atoms: O_10  and  C_32
REMARK   10  A    between atoms: O_11  and  C_33
REMARK   11  A    between atoms: C_13  and  C_16
REMARK   12  A    between atoms: C_24  and  C_28
REMARK                            x       y       z     vdW  Elec       q    Type
REMARK                         _______ _______ _______ _____ _____    ______ ____
ROOT
ATOM      1  O   UNL     1      54.331 244.397 322.977  0.00  0.00    +0.000 OA
ATOM      2  C   UNL     1      53.954 246.206 324.617  0.00  0.00    +0.000 C 
ATOM      3  C   UNL     1      54.303 244.727 324.376  0.00  0.00    +0.000 C 
ATOM      4  C   UNL     1      55.044 247.068 323.980  0.00  0.00    +0.000 C 
ATOM      5  C   UNL     1      55.425 246.551 322.616  0.00  0.00    +0.000 A 
ATOM      6  C   UNL     1      55.056 245.264 322.204  0.00  0.00    +0.000 A 
ATOM      7  C   UNL     1      56.178 247.342 321.739  0.00  0.00    +0.000 A 
ATOM      8  C   UNL     1      55.392 244.798 320.931  0.00  0.00    +0.000 A 
ATOM      9  C   UNL     1      56.529 246.882 320.471  0.00  0.00    +0.000 A 
ATOM     10  C   UNL     1      56.127 245.612 320.076  0.00  0.00    +0.000 A 
ENDROOT
BRANCH   3  11
ATOM     11  C   UNL     1      53.324 243.798 325.083  0.00  0.00    +0.000 A 
ATOM     12  C   UNL     1      52.336 243.126 324.338  0.00  0.00    +0.000 A 
ATOM     13  C   UNL     1      53.410 243.568 326.469  0.00  0.00    +0.000 A 
ATOM     14  C   UNL     1      52.522 242.691 327.082  0.00  0.00    +0.000 A 
ATOM     15  C   UNL     1      51.449 242.250 324.968  0.00  0.00    +0.000 A 
ATOM     16  C   UNL     1      51.544 242.034 326.339  0.00  0.00    +0.000 A 
BRANCH  14  17
ATOM     17  O   UNL     1      52.576 242.437 328.427  0.00  0.00    +0.000 OA
ATOM     18  H   UNL     1      51.796 241.910 328.670  0.00  0.00    +0.000 HD
ENDBRANCH  14  17
BRANCH  15  19
ATOM     19  O   UNL     1      50.488 241.599 324.249  0.00  0.00    +0.000 OA
ATOM     20  H   UNL     1      50.333 240.722 324.632  0.00  0.00    +0.000 HD
ENDBRANCH  15  19
BRANCH  16  21
ATOM     21  O   UNL     1      50.688 241.178 326.975  0.00  0.00    +0.000 OA
ATOM     22  H   UNL     1      50.122 241.755 327.522  0.00  0.00    +0.000 HD
ENDBRANCH  16  21
ENDBRANCH   3  11
BRANCH   7  23
ATOM     23  O   UNL     1      56.566 248.586 322.150  0.00  0.00    +0.000 OA
ATOM     24  H   UNL     1      55.810 249.192 322.074  0.00  0.00    +0.000 HD
ENDBRANCH   7  23
BRANCH  10  25
ATOM     25  O   UNL     1      56.484 245.195 318.828  0.00  0.00    +0.000 OA
ATOM     26  H   UNL     1      56.378 245.935 318.207  0.00  0.00    +0.000 HD
ENDBRANCH  10  25
BRANCH   2  27
ATOM     27  O   UNL     1      52.684 246.516 323.990  0.00  0.00    +0.000 OA
BRANCH  27  29
ATOM     28  O   UNL     1      51.698 248.525 324.499  0.00  0.00    +0.000 OA
ATOM     29  C   UNL     1      51.855 247.329 324.680  0.00  0.00    +0.000 C 
BRANCH  29  30
ATOM     30  C   UNL     1      51.167 246.558 325.746  0.00  0.00    +0.000 A 
ATOM     31  C   UNL     1      51.606 246.727 327.069  0.00  0.00    +0.000 A 
ATOM     32  C   UNL     1      50.101 245.687 325.459  0.00  0.00    +0.000 A 
ATOM     33  C   UNL     1      49.489 244.980 326.493  0.00  0.00    +0.000 A 
ATOM     34  C   UNL     1      50.986 246.012 328.086  0.00  0.00    +0.000 A 
ATOM     35  C   UNL     1      49.936 245.139 327.802  0.00  0.00    +0.000 A 
BRANCH  33  36
ATOM     36  O   UNL     1      48.454 244.129 326.232  0.00  0.00    +0.000 OA
ATOM     37  H   UNL     1      47.621 244.624 326.214  0.00  0.00    +0.000 HD
ENDBRANCH  33  36
BRANCH  34  38
ATOM     38  O   UNL     1      51.377 246.133 329.392  0.00  0.00    +0.000 OA
ATOM     39  H   UNL     1      50.798 246.782 329.831  0.00  0.00    +0.000 HD
ENDBRANCH  34  38
BRANCH  35  40
ATOM     40  O   UNL     1      49.350 244.450 328.829  0.00  0.00    +0.000 OA
ATOM     41  H   UNL     1      48.869 245.126 329.344  0.00  0.00    +0.000 HD
ENDBRANCH  35  40
ENDBRANCH  29  30
ENDBRANCH  27  29
ENDBRANCH   2  27
TORSDOF 12
ENDMDL
MODEL 7
REMARK VINA RESULT:      -5.3     16.285     18.461
REMARK  Name = 
REMARK  12 active torsions:
REMARK  status: ('A' for Active; 'I' for Inactive)
REMARK    1  A    between atoms: O_2  and  C_12
REMARK    2  A    between atoms: O_2  and  C_24
REMARK    3  A    between atoms: O_3  and  C_18
REMARK    4  A    between atoms: O_4  and  C_23
REMARK    5  A    between atoms: O_5  and  C_25
REMARK    6  A    between atoms: O_6  and  C_26
REMARK    7  A    between atoms: O_8  and  C_27
REMARK    8  A    between atoms: O_9  and  C_31
REMARK    9  A    between atoms: O_10  and  C_32
REMARK   10  A    between atoms: O_11  and  C_33
REMARK   11  A    between atoms: C_13  and  C_16
REMARK   12  A    between atoms: C_24  and  C_28
REMARK                            x       y       z     vdW  Elec       q    Type
REMARK                         _______ _______ _______ _____ _____    ______ ____
ROOT
ATOM      1  O   UNL     1      48.659 238.073 324.533  0.00  0.00    +0.000 OA
ATOM      2  C   UNL     1      48.019 238.388 322.167  0.00  0.00    +0.000 C 
ATOM      3  C   UNL     1      47.787 237.623 323.482  0.00  0.00    +0.000 C 
ATOM      4  C   UNL     1      47.699 239.864 322.406  0.00  0.00    +0.000 C 
ATOM      5  C   UNL     1      48.268 240.343 323.717  0.00  0.00    +0.000 A 
ATOM      6  C   UNL     1      48.702 239.433 324.690  0.00  0.00    +0.000 A 
ATOM      7  C   UNL     1      48.352 241.712 323.999  0.00  0.00    +0.000 A 
ATOM      8  C   UNL     1      49.249 239.882 325.894  0.00  0.00    +0.000 A 
ATOM      9  C   UNL     1      48.885 242.171 325.202  0.00  0.00    +0.000 A 
ATOM     10  C   UNL     1      49.334 241.249 326.140  0.00  0.00    +0.000 A 
ENDROOT
BRANCH   3  11
ATOM     11  C   UNL     1      47.971 236.122 323.298  0.00  0.00    +0.000 A 
ATOM     12  C   UNL     1      48.814 235.408 324.171  0.00  0.00    +0.000 A 
ATOM     13  C   UNL     1      47.284 235.423 322.287  0.00  0.00    +0.000 A 
ATOM     14  C   UNL     1      47.448 234.047 322.162  0.00  0.00    +0.000 A 
ATOM     15  C   UNL     1      48.971 234.028 324.031  0.00  0.00    +0.000 A 
ATOM     16  C   UNL     1      48.288 233.350 323.027  0.00  0.00    +0.000 A 
BRANCH  14  17
ATOM     17  O   UNL     1      46.794 233.331 321.196  0.00  0.00    +0.000 OA
ATOM     18  H   UNL     1      47.228 233.501 320.342  0.00  0.00    +0.000 HD
ENDBRANCH  14  17
BRANCH  15  19
ATOM     19  O   UNL     1      49.790 233.333 324.875  0.00  0.00    +0.000 OA
ATOM     20  H   UNL     1      49.283 232.642 325.325  0.00  0.00    +0.000 HD
ENDBRANCH  15  19
BRANCH  16  21
ATOM     21  O   UNL     1      48.425 231.998 322.875  0.00  0.00    +0.000 OA
ATOM     22  H   UNL     1      49.304 231.794 323.248  0.00  0.00    +0.000 HD
ENDBRANCH  16  21
ENDBRANCH   3  11
BRANCH   7  23
ATOM     23  O   UNL     1      47.901 242.601 323.065  0.00  0.00    +0.000 OA
ATOM     24  H   UNL     1      47.580 243.398 323.520  0.00  0.00    +0.000 HD
ENDBRANCH   7  23
BRANCH  10  25
ATOM     25  O   UNL     1      49.853 241.731 327.304  0.00  0.00    +0.000 OA
ATOM     26  H   UNL     1      49.905 241.005 327.949  0.00  0.00    +0.000 HD
ENDBRANCH  10  25
BRANCH   2  27
ATOM     27  O   UNL     1      49.407 238.266 321.770  0.00  0.00    +0.000 OA
BRANCH  27  29
ATOM     28  O   UNL     1      49.256 238.592 319.503  0.00  0.00    +0.000 OA
ATOM     29  C   UNL     1      49.749 238.833 320.593  0.00  0.00    +0.000 C 
BRANCH  29  30
ATOM     30  C   UNL     1      50.865 239.791 320.801  0.00  0.00    +0.000 A 
ATOM     31  C   UNL     1      52.178 239.303 320.702  0.00  0.00    +0.000 A 
ATOM     32  C   UNL     1      50.632 241.148 321.080  0.00  0.00    +0.000 A 
ATOM     33  C   UNL     1      51.711 242.009 321.273  0.00  0.00    +0.000 A 
ATOM     34  C   UNL     1      53.241 240.175 320.900  0.00  0.00    +0.000 A 
ATOM     35  C   UNL     1      53.012 241.520 321.189  0.00  0.00    +0.000 A 
BRANCH  33  36
ATOM     36  O   UNL     1      51.503 243.330 321.548  0.00  0.00    +0.000 OA
ATOM     37  H   UNL     1      51.442 243.829 320.720  0.00  0.00    +0.000 HD
ENDBRANCH  33  36
BRANCH  34  38
ATOM     38  O   UNL     1      54.540 239.754 320.821  0.00  0.00    +0.000 OA
ATOM     39  H   UNL     1      55.065 240.236 321.485  0.00  0.00    +0.000 HD
ENDBRANCH  34  38
BRANCH  35  40
ATOM     40  O   UNL     1      54.083 242.350 321.379  0.00  0.00    +0.000 OA
ATOM     41  H   UNL     1      53.918 243.115 320.796  0.00  0.00    +0.000 HD
ENDBRANCH  35  40
ENDBRANCH  29  30
ENDBRANCH  27  29
ENDBRANCH   2  27
TORSDOF 12
ENDMDL
MODEL 8
REMARK VINA RESULT:      -5.2     16.803     21.563
REMARK  Name = 
REMARK  12 active torsions:
REMARK  status: ('A' for Active; 'I' for Inactive)
REMARK    1  A    between atoms: O_2  and  C_12
REMARK    2  A    between atoms: O_2  and  C_24
REMARK    3  A    between atoms: O_3  and  C_18
REMARK    4  A    between atoms: O_4  and  C_23
REMARK    5  A    between atoms: O_5  and  C_25
REMARK    6  A    between atoms: O_6  and  C_26
REMARK    7  A    between atoms: O_8  and  C_27
REMARK    8  A    between atoms: O_9  and  C_31
REMARK    9  A    between atoms: O_10  and  C_32
REMARK   10  A    between atoms: O_11  and  C_33
REMARK   11  A    between atoms: C_13  and  C_16
REMARK   12  A    between atoms: C_24  and  C_28
REMARK                            x       y       z     vdW  Elec       q    Type
REMARK                         _______ _______ _______ _____ _____    ______ ____
ROOT
ATOM      1  O   UNL     1      74.911 223.480 341.667  0.00  0.00    +0.000 OA
ATOM      2  C   UNL     1      73.546 221.616 340.789  0.00  0.00    +0.000 C 
ATOM      3  C   UNL     1      74.666 222.639 340.527  0.00  0.00    +0.000 C 
ATOM      4  C   UNL     1      73.988 220.700 341.930  0.00  0.00    +0.000 C 
ATOM      5  C   UNL     1      74.628 221.484 343.047  0.00  0.00    +0.000 A 
ATOM      6  C   UNL     1      75.050 222.806 342.851  0.00  0.00    +0.000 A 
ATOM      7  C   UNL     1      74.836 220.897 344.301  0.00  0.00    +0.000 A 
ATOM      8  C   UNL     1      75.622 223.536 343.895  0.00  0.00    +0.000 A 
ATOM      9  C   UNL     1      75.416 221.613 345.347  0.00  0.00    +0.000 A 
ATOM     10  C   UNL     1      75.801 222.931 345.134  0.00  0.00    +0.000 A 
ENDROOT
BRANCH   3  11
ATOM     11  C   UNL     1      74.353 223.517 339.323  0.00  0.00    +0.000 A 
ATOM     12  C   UNL     1      74.626 224.898 339.375  0.00  0.00    +0.000 A 
ATOM     13  C   UNL     1      73.826 222.969 338.138  0.00  0.00    +0.000 A 
ATOM     14  C   UNL     1      73.578 223.791 337.044  0.00  0.00    +0.000 A 
ATOM     15  C   UNL     1      74.369 225.712 338.269  0.00  0.00    +0.000 A 
ATOM     16  C   UNL     1      73.846 225.157 337.106  0.00  0.00    +0.000 A 
BRANCH  14  17
ATOM     17  O   UNL     1      73.071 223.295 335.873  0.00  0.00    +0.000 OA
ATOM     18  H   UNL     1      73.317 222.357 335.806  0.00  0.00    +0.000 HD
ENDBRANCH  14  17
BRANCH  15  19
ATOM     19  O   UNL     1      74.630 227.051 338.317  0.00  0.00    +0.000 OA
ATOM     20  H   UNL     1      73.797 227.544 338.361  0.00  0.00    +0.000 HD
ENDBRANCH  15  19
BRANCH  16  21
ATOM     21  O   UNL     1      73.591 225.935 336.010  0.00  0.00    +0.000 OA
ATOM     22  H   UNL     1      72.631 226.108 336.048  0.00  0.00    +0.000 HD
ENDBRANCH  16  21
ENDBRANCH   3  11
BRANCH   7  23
ATOM     23  O   UNL     1      74.454 219.599 344.487  0.00  0.00    +0.000 OA
ATOM     24  H   UNL     1      73.484 219.551 344.468  0.00  0.00    +0.000 HD
ENDBRANCH   7  23
BRANCH  10  25
ATOM     25  O   UNL     1      76.362 223.603 346.179  0.00  0.00    +0.000 OA
ATOM     26  H   UNL     1      75.988 223.262 347.009  0.00  0.00    +0.000 HD
ENDBRANCH  10  25
BRANCH   2  27
ATOM     27  O   UNL     1      72.336 222.309 341.184  0.00  0.00    +0.000 OA
BRANCH  27  29
ATOM     28  O   UNL     1      70.690 220.946 342.022  0.00  0.00    +0.000 OA
ATOM     29  C   UNL     1      71.188 221.601 341.120  0.00  0.00    +0.000 C 
BRANCH  29  30
ATOM     30  C   UNL     1      70.614 221.695 339.754  0.00  0.00    +0.000 A 
ATOM     31  C   UNL     1      70.229 220.505 339.118  0.00  0.00    +0.000 A 
ATOM     32  C   UNL     1      70.447 222.931 339.106  0.00  0.00    +0.000 A 
ATOM     33  C   UNL     1      69.908 222.970 337.821  0.00  0.00    +0.000 A 
ATOM     34  C   UNL     1      69.697 220.562 337.836  0.00  0.00    +0.000 A 
ATOM     35  C   UNL     1      69.541 221.787 337.187  0.00  0.00    +0.000 A 
BRANCH  33  36
ATOM     36  O   UNL     1      69.740 224.162 337.176  0.00  0.00    +0.000 OA
ATOM     37  H   UNL     1      69.257 224.020 336.349  0.00  0.00    +0.000 HD
ENDBRANCH  33  36
BRANCH  34  38
ATOM     38  O   UNL     1      69.310 219.433 337.166  0.00  0.00    +0.000 OA
ATOM     39  H   UNL     1      68.855 219.698 336.347  0.00  0.00    +0.000 HD
ENDBRANCH  34  38
BRANCH  35  40
ATOM     40  O   UNL     1      69.014 221.806 335.924  0.00  0.00    +0.000 OA
ATOM     41  H   UNL     1      68.266 221.178 335.952  0.00  0.00    +0.000 HD
ENDBRANCH  35  40
ENDBRANCH  29  30
ENDBRANCH  27  29
ENDBRANCH   2  27
TORSDOF 12
ENDMDL
MODEL 9
REMARK VINA RESULT:      -5.2     13.507     17.299
REMARK  Name = 
REMARK  12 active torsions:
REMARK  status: ('A' for Active; 'I' for Inactive)
REMARK    1  A    between atoms: O_2  and  C_12
REMARK    2  A    between atoms: O_2  and  C_24
REMARK    3  A    between atoms: O_3  and  C_18
REMARK    4  A    between atoms: O_4  and  C_23
REMARK    5  A    between atoms: O_5  and  C_25
REMARK    6  A    between atoms: O_6  and  C_26
REMARK    7  A    between atoms: O_8  and  C_27
REMARK    8  A    between atoms: O_9  and  C_31
REMARK    9  A    between atoms: O_10  and  C_32
REMARK   10  A    between atoms: O_11  and  C_33
REMARK   11  A    between atoms: C_13  and  C_16
REMARK   12  A    between atoms: C_24  and  C_28
REMARK                            x       y       z     vdW  Elec       q    Type
REMARK                         _______ _______ _______ _____ _____    ______ ____
ROOT
ATOM      1  O   UNL     1      68.004 220.775 335.768  0.00  0.00    +0.000 OA
ATOM      2  C   UNL     1      67.710 220.098 338.126  0.00  0.00    +0.000 C 
ATOM      3  C   UNL     1      68.019 221.231 337.131  0.00  0.00    +0.000 C 
ATOM      4  C   UNL     1      66.299 219.583 337.846  0.00  0.00    +0.000 C 
ATOM      5  C   UNL     1      66.052 219.432 336.366  0.00  0.00    +0.000 A 
ATOM      6  C   UNL     1      66.903 220.033 335.430  0.00  0.00    +0.000 A 
ATOM      7  C   UNL     1      64.951 218.706 335.898  0.00  0.00    +0.000 A 
ATOM      8  C   UNL     1      66.684 219.872 334.060  0.00  0.00    +0.000 A 
ATOM      9  C   UNL     1      64.716 218.549 334.533  0.00  0.00    +0.000 A 
ATOM     10  C   UNL     1      65.590 219.132 333.624  0.00  0.00    +0.000 A 
ENDROOT
BRANCH   3  11
ATOM     11  C   UNL     1      69.366 221.879 337.420  0.00  0.00    +0.000 A 
ATOM     12  C   UNL     1      70.330 221.974 336.398  0.00  0.00    +0.000 A 
ATOM     13  C   UNL     1      69.657 222.422 338.686  0.00  0.00    +0.000 A 
ATOM     14  C   UNL     1      70.884 223.036 338.912  0.00  0.00    +0.000 A 
ATOM     15  C   UNL     1      71.560 222.590 336.641  0.00  0.00    +0.000 A 
ATOM     16  C   UNL     1      71.834 223.120 337.897  0.00  0.00    +0.000 A 
BRANCH  14  17
ATOM     17  O   UNL     1      71.203 223.580 340.128  0.00  0.00    +0.000 OA
ATOM     18  H   UNL     1      72.172 223.627 340.198  0.00  0.00    +0.000 HD
ENDBRANCH  14  17
BRANCH  15  19
ATOM     19  O   UNL     1      72.498 222.680 335.653  0.00  0.00    +0.000 OA
ATOM     20  H   UNL     1      73.043 223.469 335.792  0.00  0.00    +0.000 HD
ENDBRANCH  15  19
BRANCH  16  21
ATOM     21  O   UNL     1      73.031 223.731 338.155  0.00  0.00    +0.000 OA
ATOM     22  H   UNL     1      72.801 224.501 338.708  0.00  0.00    +0.000 HD
ENDBRANCH  16  21
ENDBRANCH   3  11
BRANCH   7  23
ATOM     23  O   UNL     1      64.101 218.145 336.809  0.00  0.00    +0.000 OA
ATOM     24  H   UNL     1      64.242 217.184 336.819  0.00  0.00    +0.000 HD
ENDBRANCH   7  23
BRANCH  10  25
ATOM     25  O   UNL     1      65.334 218.957 332.297  0.00  0.00    +0.000 OA
ATOM     26  H   UNL     1      64.387 219.108 332.137  0.00  0.00    +0.000 HD
ENDBRANCH  10  25
BRANCH   2  27
ATOM     27  O   UNL     1      68.653 219.013 337.937  0.00  0.00    +0.000 OA
BRANCH  27  29
ATOM     28  O   UNL     1      68.479 217.224 339.364  0.00  0.00    +0.000 OA
ATOM     29  C   UNL     1      68.969 218.292 339.035  0.00  0.00    +0.000 C 
BRANCH  29  30
ATOM     30  C   UNL     1      69.995 219.011 339.831  0.00  0.00    +0.000 A 
ATOM     31  C   UNL     1      71.254 219.219 339.247  0.00  0.00    +0.000 A 
ATOM     32  C   UNL     1      69.727 219.486 341.127  0.00  0.00    +0.000 A 
ATOM     33  C   UNL     1      70.723 220.152 341.838  0.00  0.00    +0.000 A 
ATOM     34  C   UNL     1      72.236 219.882 339.973  0.00  0.00    +0.000 A 
ATOM     35  C   UNL     1      71.976 220.343 341.263  0.00  0.00    +0.000 A 
BRANCH  33  36
ATOM     36  O   UNL     1      70.481 220.617 343.099  0.00  0.00    +0.000 OA
ATOM     37  H   UNL     1      69.746 220.124 343.493  0.00  0.00    +0.000 HD
ENDBRANCH  33  36
BRANCH  34  38
ATOM     38  O   UNL     1      73.483 220.107 339.456  0.00  0.00    +0.000 OA
ATOM     39  H   UNL     1      74.142 219.694 340.042  0.00  0.00    +0.000 HD
ENDBRANCH  34  38
BRANCH  35  40
ATOM     40  O   UNL     1      72.967 220.992 341.948  0.00  0.00    +0.000 OA
ATOM     41  H   UNL     1      73.801 220.650 341.571  0.00  0.00    +0.000 HD
ENDBRANCH  35  40
ENDBRANCH  29  30
ENDBRANCH  27  29
ENDBRANCH   2  27
TORSDOF 12
ENDMDL
