MODEL 1
REMARK VINA RESULT:      -6.0      0.000      0.000
REMARK  Name = Estradiol.pdbqt.pdb
REMARK  2 active torsions:
REMARK  status: ('A' for Active; 'I' for Inactive)
REMARK    1  A    between atoms: C_5  and  O_19
REMARK    2  A    between atoms: C_18  and  O_21
REMARK                            x       y       z     vdW  Elec       q    Type
REMARK                         _______ _______ _______ _____ _____    ______ ____
ROOT
ATOM      1  C   UNL     1      52.689 245.934 325.758  0.00  0.00    +0.000 C 
ATOM      2  C   UNL     1      53.487 244.999 324.725  0.00  0.00    +0.000 C 
ATOM      3  C   UNL     1      54.474 245.556 323.787  0.00  0.00    +0.000 A 
ATOM      4  C   UNL     1      55.047 246.957 323.816  0.00  0.00    +0.000 A 
ATOM      5  C   UNL     1      52.750 245.121 327.068  0.00  0.00    +0.000 C 
ATOM      6  C   UNL     1      53.425 247.199 325.808  0.00  0.00    +0.000 C 
ATOM      7  C   UNL     1      53.759 243.767 325.403  0.00  0.00    +0.000 C 
ATOM      8  C   UNL     1      54.511 247.708 324.891  0.00  0.00    +0.000 C 
ATOM      9  C   UNL     1      53.339 243.847 326.849  0.00  0.00    +0.000 C 
ATOM     10  C   UNL     1      55.044 244.784 322.742  0.00  0.00    +0.000 A 
ATOM     11  C   UNL     1      51.224 246.078 325.271  0.00  0.00    +0.000 C 
ATOM     12  C   UNL     1      56.057 247.478 322.834  0.00  0.00    +0.000 A 
ATOM     13  C   UNL     1      56.068 245.308 321.766  0.00  0.00    +0.000 A 
ATOM     14  C   UNL     1      56.571 246.641 321.798  0.00  0.00    +0.000 A 
ATOM     15  C   UNL     1      56.513 248.795 322.909  0.00  0.00    +0.000 A 
ATOM     16  C   UNL     1      57.497 247.107 320.875  0.00  0.00    +0.000 A 
ATOM     17  C   UNL     1      57.444 249.269 321.984  0.00  0.00    +0.000 A 
ATOM     18  C   UNL     1      57.924 248.425 320.981  0.00  0.00    +0.000 A 
ENDROOT
BRANCH   5  19
ATOM     19  O   UNL     1      52.699 245.707 328.315  0.00  0.00    +0.000 OA
ATOM     20  H   UNL     1      53.517 245.549 328.821  0.00  0.00    +0.000 HD
ENDBRANCH   5  19
BRANCH  18  21
ATOM     21  O   UNL     1      58.833 248.884 320.070  0.00  0.00    +0.000 OA
ATOM     22  H   UNL     1      59.727 248.732 320.425  0.00  0.00    +0.000 HD
ENDBRANCH  18  21
TORSDOF 2
ENDMDL
MODEL 2
REMARK VINA RESULT:      -5.6     32.248     35.042
REMARK  Name = Estradiol.pdbqt.pdb
REMARK  2 active torsions:
REMARK  status: ('A' for Active; 'I' for Inactive)
REMARK    1  A    between atoms: C_5  and  O_19
REMARK    2  A    between atoms: C_18  and  O_21
REMARK                            x       y       z     vdW  Elec       q    Type
REMARK                         _______ _______ _______ _____ _____    ______ ____
ROOT
ATOM      1  C   UNL     1      70.348 222.630 338.365  0.00  0.00    +0.000 C 
ATOM      2  C   UNL     1      70.939 222.369 339.835  0.00  0.00    +0.000 C 
ATOM      3  C   UNL     1      70.599 221.157 340.596  0.00  0.00    +0.000 A 
ATOM      4  C   UNL     1      69.899 219.927 340.058  0.00  0.00    +0.000 A 
ATOM      5  C   UNL     1      71.582 223.135 337.588  0.00  0.00    +0.000 C 
ATOM      6  C   UNL     1      69.839 221.340 337.899  0.00  0.00    +0.000 C 
ATOM      7  C   UNL     1      72.283 222.863 339.837  0.00  0.00    +0.000 C 
ATOM      8  C   UNL     1      69.594 220.072 338.681  0.00  0.00    +0.000 C 
ATOM      9  C   UNL     1      72.694 223.304 338.455  0.00  0.00    +0.000 C 
ATOM     10  C   UNL     1      70.951 220.998 341.961  0.00  0.00    +0.000 A 
ATOM     11  C   UNL     1      69.266 223.739 338.452  0.00  0.00    +0.000 C 
ATOM     12  C   UNL     1      69.576 218.711 340.877  0.00  0.00    +0.000 A 
ATOM     13  C   UNL     1      70.636 219.769 342.777  0.00  0.00    +0.000 A 
ATOM     14  C   UNL     1      69.949 218.635 342.253  0.00  0.00    +0.000 A 
ATOM     15  C   UNL     1      68.898 217.629 340.315  0.00  0.00    +0.000 A 
ATOM     16  C   UNL     1      69.652 217.523 343.030  0.00  0.00    +0.000 A 
ATOM     17  C   UNL     1      68.596 216.509 341.090  0.00  0.00    +0.000 A 
ATOM     18  C   UNL     1      68.973 216.467 342.434  0.00  0.00    +0.000 A 
ENDROOT
BRANCH   5  19
ATOM     19  O   UNL     1      71.725 222.976 336.226  0.00  0.00    +0.000 OA
ATOM     20  H   UNL     1      70.931 223.269 335.744  0.00  0.00    +0.000 HD
ENDBRANCH   5  19
BRANCH  18  21
ATOM     21  O   UNL     1      68.677 215.377 343.200  0.00  0.00    +0.000 OA
ATOM     22  H   UNL     1      67.729 215.404 343.419  0.00  0.00    +0.000 HD
ENDBRANCH  18  21
TORSDOF 2
ENDMDL
MODEL 3
REMARK VINA RESULT:      -5.5     31.253     33.693
REMARK  Name = Estradiol.pdbqt.pdb
REMARK  2 active torsions:
REMARK  status: ('A' for Active; 'I' for Inactive)
REMARK    1  A    between atoms: C_5  and  O_19
REMARK    2  A    between atoms: C_18  and  O_21
REMARK                            x       y       z     vdW  Elec       q    Type
REMARK                         _______ _______ _______ _____ _____    ______ ____
ROOT
ATOM      1  C   UNL     1      75.145 224.813 338.400  0.00  0.00    +0.000 C 
ATOM      2  C   UNL     1      73.948 224.208 337.516  0.00  0.00    +0.000 C 
ATOM      3  C   UNL     1      72.985 223.249 338.078  0.00  0.00    +0.000 A 
ATOM      4  C   UNL     1      72.819 222.898 339.541  0.00  0.00    +0.000 A 
ATOM      5  C   UNL     1      75.120 226.310 338.028  0.00  0.00    +0.000 C 
ATOM      6  C   UNL     1      74.793 224.541 339.795  0.00  0.00    +0.000 C 
ATOM      7  C   UNL     1      73.493 225.261 336.657  0.00  0.00    +0.000 C 
ATOM      8  C   UNL     1      73.727 223.626 340.350  0.00  0.00    +0.000 C 
ATOM      9  C   UNL     1      74.185 226.559 336.988  0.00  0.00    +0.000 C 
ATOM     10  C   UNL     1      72.045 222.560 337.269  0.00  0.00    +0.000 A 
ATOM     11  C   UNL     1      76.477 224.159 337.949  0.00  0.00    +0.000 C 
ATOM     12  C   UNL     1      71.817 221.911 340.065  0.00  0.00    +0.000 A 
ATOM     13  C   UNL     1      71.031 221.578 337.802  0.00  0.00    +0.000 A 
ATOM     14  C   UNL     1      70.914 221.244 339.182  0.00  0.00    +0.000 A 
ATOM     15  C   UNL     1      71.747 221.617 341.427  0.00  0.00    +0.000 A 
ATOM     16  C   UNL     1      69.986 220.321 339.646  0.00  0.00    +0.000 A 
ATOM     17  C   UNL     1      70.817 220.691 341.900  0.00  0.00    +0.000 A 
ATOM     18  C   UNL     1      69.950 220.054 341.010  0.00  0.00    +0.000 A 
ENDROOT
BRANCH   5  19
ATOM     19  O   UNL     1      75.557 227.300 338.881  0.00  0.00    +0.000 OA
ATOM     20  H   UNL     1      75.157 228.162 338.667  0.00  0.00    +0.000 HD
ENDBRANCH   5  19
BRANCH  18  21
ATOM     21  O   UNL     1      69.041 219.143 341.464  0.00  0.00    +0.000 OA
ATOM     22  H   UNL     1      68.191 219.309 341.019  0.00  0.00    +0.000 HD
ENDBRANCH  18  21
TORSDOF 2
ENDMDL
MODEL 4
REMARK VINA RESULT:      -5.4      2.010      6.700
REMARK  Name = Estradiol.pdbqt.pdb
REMARK  2 active torsions:
REMARK  status: ('A' for Active; 'I' for Inactive)
REMARK    1  A    between atoms: C_5  and  O_19
REMARK    2  A    between atoms: C_18  and  O_21
REMARK                            x       y       z     vdW  Elec       q    Type
REMARK                         _______ _______ _______ _____ _____    ______ ____
ROOT
ATOM      1  C   UNL     1      54.649 247.430 323.041  0.00  0.00    +0.000 C 
ATOM      2  C   UNL     1      54.721 245.856 323.352  0.00  0.00    +0.000 C 
ATOM      3  C   UNL     1      54.100 245.281 324.555  0.00  0.00    +0.000 A 
ATOM      4  C   UNL     1      53.142 245.982 325.492  0.00  0.00    +0.000 A 
ATOM      5  C   UNL     1      54.314 247.465 321.536  0.00  0.00    +0.000 C 
ATOM      6  C   UNL     1      53.590 247.963 323.899  0.00  0.00    +0.000 C 
ATOM      7  C   UNL     1      54.612 245.179 322.094  0.00  0.00    +0.000 C 
ATOM      8  C   UNL     1      52.892 247.312 325.069  0.00  0.00    +0.000 C 
ATOM      9  C   UNL     1      54.330 246.157 320.982  0.00  0.00    +0.000 C 
ATOM     10  C   UNL     1      54.315 243.934 324.945  0.00  0.00    +0.000 A 
ATOM     11  C   UNL     1      56.045 248.055 323.305  0.00  0.00    +0.000 C 
ATOM     12  C   UNL     1      52.532 245.348 326.709  0.00  0.00    +0.000 A 
ATOM     13  C   UNL     1      53.690 243.296 326.161  0.00  0.00    +0.000 A 
ATOM     14  C   UNL     1      52.812 243.989 327.045  0.00  0.00    +0.000 A 
ATOM     15  C   UNL     1      51.680 246.073 327.543  0.00  0.00    +0.000 A 
ATOM     16  C   UNL     1      52.266 243.387 328.170  0.00  0.00    +0.000 A 
ATOM     17  C   UNL     1      51.128 245.475 328.675  0.00  0.00    +0.000 A 
ATOM     18  C   UNL     1      51.425 244.144 328.977  0.00  0.00    +0.000 A 
ENDROOT
BRANCH   5  19
ATOM     19  O   UNL     1      53.636 248.509 320.944  0.00  0.00    +0.000 OA
ATOM     20  H   UNL     1      54.118 249.350 321.038  0.00  0.00    +0.000 HD
ENDBRANCH   5  19
BRANCH  18  21
ATOM     21  O   UNL     1      50.891 243.552 330.086  0.00  0.00    +0.000 OA
ATOM     22  H   UNL     1      50.689 242.624 329.872  0.00  0.00    +0.000 HD
ENDBRANCH  18  21
TORSDOF 2
ENDMDL
MODEL 5
REMARK VINA RESULT:      -5.4     33.535     35.820
REMARK  Name = Estradiol.pdbqt.pdb
REMARK  2 active torsions:
REMARK  status: ('A' for Active; 'I' for Inactive)
REMARK    1  A    between atoms: C_5  and  O_19
REMARK    2  A    between atoms: C_18  and  O_21
REMARK                            x       y       z     vdW  Elec       q    Type
REMARK                         _______ _______ _______ _____ _____    ______ ____
ROOT
ATOM      1  C   UNL     1      72.137 219.395 344.631  0.00  0.00    +0.000 C 
ATOM      2  C   UNL     1      73.326 220.257 343.981  0.00  0.00    +0.000 C 
ATOM      3  C   UNL     1      73.155 220.959 342.699  0.00  0.00    +0.000 A 
ATOM      4  C   UNL     1      71.850 221.183 341.966  0.00  0.00    +0.000 A 
ATOM      5  C   UNL     1      72.190 219.809 346.116  0.00  0.00    +0.000 C 
ATOM      6  C   UNL     1      70.914 219.810 343.941  0.00  0.00    +0.000 C 
ATOM      7  C   UNL     1      74.016 220.896 345.062  0.00  0.00    +0.000 C 
ATOM      8  C   UNL     1      70.760 220.622 342.677  0.00  0.00    +0.000 C 
ATOM      9  C   UNL     1      73.305 220.651 346.369  0.00  0.00    +0.000 C 
ATOM     10  C   UNL     1      74.243 221.561 342.017  0.00  0.00    +0.000 A 
ATOM     11  C   UNL     1      72.468 217.889 344.471  0.00  0.00    +0.000 C 
ATOM     12  C   UNL     1      71.729 221.910 340.658  0.00  0.00    +0.000 A 
ATOM     13  C   UNL     1      74.116 222.303 340.709  0.00  0.00    +0.000 A 
ATOM     14  C   UNL     1      72.877 222.475 340.025  0.00  0.00    +0.000 A 
ATOM     15  C   UNL     1      70.492 222.047 340.028  0.00  0.00    +0.000 A 
ATOM     16  C   UNL     1      72.788 223.142 338.811  0.00  0.00    +0.000 A 
ATOM     17  C   UNL     1      70.395 222.717 338.808  0.00  0.00    +0.000 A 
ATOM     18  C   UNL     1      71.538 223.255 338.214  0.00  0.00    +0.000 A 
ENDROOT
BRANCH   5  19
ATOM     19  O   UNL     1      71.086 219.777 346.942  0.00  0.00    +0.000 OA
ATOM     20  H   UNL     1      70.529 218.997 346.768  0.00  0.00    +0.000 HD
ENDBRANCH   5  19
BRANCH  18  21
ATOM     21  O   UNL     1      71.451 223.908 337.018  0.00  0.00    +0.000 OA
ATOM     22  H   UNL     1      71.730 224.831 337.151  0.00  0.00    +0.000 HD
ENDBRANCH  18  21
TORSDOF 2
ENDMDL
MODEL 6
REMARK VINA RESULT:      -5.4     31.150     33.169
REMARK  Name = Estradiol.pdbqt.pdb
REMARK  2 active torsions:
REMARK  status: ('A' for Active; 'I' for Inactive)
REMARK    1  A    between atoms: C_5  and  O_19
REMARK    2  A    between atoms: C_18  and  O_21
REMARK                            x       y       z     vdW  Elec       q    Type
REMARK                         _______ _______ _______ _____ _____    ______ ____
ROOT
ATOM      1  C   UNL     1      70.185 222.739 338.199  0.00  0.00    +0.000 C 
ATOM      2  C   UNL     1      71.504 223.060 337.342  0.00  0.00    +0.000 C 
ATOM      3  C   UNL     1      72.743 223.528 337.983  0.00  0.00    +0.000 A 
ATOM      4  C   UNL     1      73.037 223.534 339.467  0.00  0.00    +0.000 A 
ATOM      5  C   UNL     1      69.694 221.412 337.584  0.00  0.00    +0.000 C 
ATOM      6  C   UNL     1      70.626 222.623 339.590  0.00  0.00    +0.000 C 
ATOM      7  C   UNL     1      71.563 222.089 336.290  0.00  0.00    +0.000 C 
ATOM      8  C   UNL     1      71.946 223.017 340.209  0.00  0.00    +0.000 C 
ATOM      9  C   UNL     1      70.476 221.058 336.452  0.00  0.00    +0.000 C 
ATOM     10  C   UNL     1      73.851 223.998 337.232  0.00  0.00    +0.000 A 
ATOM     11  C   UNL     1      69.148 223.868 337.960  0.00  0.00    +0.000 C 
ATOM     12  C   UNL     1      74.322 224.021 340.073  0.00  0.00    +0.000 A 
ATOM     13  C   UNL     1      75.145 224.474 337.843  0.00  0.00    +0.000 A 
ATOM     14  C   UNL     1      75.386 224.497 339.248  0.00  0.00    +0.000 A 
ATOM     15  C   UNL     1      74.504 224.025 341.456  0.00  0.00    +0.000 A 
ATOM     16  C   UNL     1      76.578 224.960 339.789  0.00  0.00    +0.000 A 
ATOM     17  C   UNL     1      75.700 224.488 342.006  0.00  0.00    +0.000 A 
ATOM     18  C   UNL     1      76.720 224.950 341.171  0.00  0.00    +0.000 A 
ENDROOT
BRANCH   5  19
ATOM     19  O   UNL     1      68.957 220.487 338.292  0.00  0.00    +0.000 OA
ATOM     20  H   UNL     1      69.529 219.844 338.749  0.00  0.00    +0.000 HD
ENDBRANCH   5  19
BRANCH  18  21
ATOM     21  O   UNL     1      77.891 225.410 341.703  0.00  0.00    +0.000 OA
ATOM     22  H   UNL     1      78.379 225.884 341.006  0.00  0.00    +0.000 HD
ENDBRANCH  18  21
TORSDOF 2
ENDMDL
MODEL 7
REMARK VINA RESULT:      -5.2     23.978     25.959
REMARK  Name = Estradiol.pdbqt.pdb
REMARK  2 active torsions:
REMARK  status: ('A' for Active; 'I' for Inactive)
REMARK    1  A    between atoms: C_5  and  O_19
REMARK    2  A    between atoms: C_18  and  O_21
REMARK                            x       y       z     vdW  Elec       q    Type
REMARK                         _______ _______ _______ _____ _____    ______ ____
ROOT
ATOM      1  C   UNL     1      57.281 244.321 348.670  0.00  0.00    +0.000 C 
ATOM      2  C   UNL     1      57.277 243.042 349.642  0.00  0.00    +0.000 C 
ATOM      3  C   UNL     1      56.255 241.990 349.524  0.00  0.00    +0.000 A 
ATOM      4  C   UNL     1      55.270 241.820 348.388  0.00  0.00    +0.000 A 
ATOM      5  C   UNL     1      58.772 244.457 348.295  0.00  0.00    +0.000 C 
ATOM      6  C   UNL     1      56.413 243.974 347.544  0.00  0.00    +0.000 C 
ATOM      7  C   UNL     1      58.646 242.689 349.871  0.00  0.00    +0.000 C 
ATOM      8  C   UNL     1      55.444 242.825 347.404  0.00  0.00    +0.000 C 
ATOM      9  C   UNL     1      59.565 243.532 349.024  0.00  0.00    +0.000 C 
ATOM     10  C   UNL     1      56.118 240.959 350.488  0.00  0.00    +0.000 A 
ATOM     11  C   UNL     1      56.804 245.559 349.473  0.00  0.00    +0.000 C 
ATOM     12  C   UNL     1      54.245 240.726 348.314  0.00  0.00    +0.000 A 
ATOM     13  C   UNL     1      55.096 239.852 350.403  0.00  0.00    +0.000 A 
ATOM     14  C   UNL     1      54.159 239.732 349.336  0.00  0.00    +0.000 A 
ATOM     15  C   UNL     1      53.349 240.656 347.247  0.00  0.00    +0.000 A 
ATOM     16  C   UNL     1      53.213 238.717 349.290  0.00  0.00    +0.000 A 
ATOM     17  C   UNL     1      52.396 239.639 347.195  0.00  0.00    +0.000 A 
ATOM     18  C   UNL     1      52.337 238.684 348.212  0.00  0.00    +0.000 A 
ENDROOT
BRANCH   5  19
ATOM     19  O   UNL     1      59.197 245.025 347.113  0.00  0.00    +0.000 OA
ATOM     20  H   UNL     1      58.874 245.939 347.016  0.00  0.00    +0.000 HD
ENDBRANCH   5  19
BRANCH  18  21
ATOM     21  O   UNL     1      51.403 237.688 348.170  0.00  0.00    +0.000 OA
ATOM     22  H   UNL     1      51.600 237.114 347.409  0.00  0.00    +0.000 HD
ENDBRANCH  18  21
TORSDOF 2
ENDMDL
MODEL 8
REMARK VINA RESULT:      -5.1     29.788     31.191
REMARK  Name = Estradiol.pdbqt.pdb
REMARK  2 active torsions:
REMARK  status: ('A' for Active; 'I' for Inactive)
REMARK    1  A    between atoms: C_5  and  O_19
REMARK    2  A    between atoms: C_18  and  O_21
REMARK                            x       y       z     vdW  Elec       q    Type
REMARK                         _______ _______ _______ _____ _____    ______ ____
ROOT
ATOM      1  C   UNL     1      80.100 232.652 341.107  0.00  0.00    +0.000 C 
ATOM      2  C   UNL     1      79.590 234.063 341.679  0.00  0.00    +0.000 C 
ATOM      3  C   UNL     1      78.336 234.674 341.211  0.00  0.00    +0.000 A 
ATOM      4  C   UNL     1      77.270 234.004 340.372  0.00  0.00    +0.000 A 
ATOM      5  C   UNL     1      80.559 231.914 342.383  0.00  0.00    +0.000 C 
ATOM      6  C   UNL     1      78.943 232.041 340.451  0.00  0.00    +0.000 C 
ATOM      7  C   UNL     1      79.927 234.095 343.071  0.00  0.00    +0.000 C 
ATOM      8  C   UNL     1      77.621 232.664 340.071  0.00  0.00    +0.000 C 
ATOM      9  C   UNL     1      80.492 232.769 343.515  0.00  0.00    +0.000 C 
ATOM     10  C   UNL     1      77.967 236.000 341.557  0.00  0.00    +0.000 A 
ATOM     11  C   UNL     1      81.301 232.903 340.159  0.00  0.00    +0.000 C 
ATOM     12  C   UNL     1      76.003 234.672 339.921  0.00  0.00    +0.000 A 
ATOM     13  C   UNL     1      76.687 236.664 341.113  0.00  0.00    +0.000 A 
ATOM     14  C   UNL     1      75.712 236.018 340.297  0.00  0.00    +0.000 A 
ATOM     15  C   UNL     1      75.083 233.995 339.120  0.00  0.00    +0.000 A 
ATOM     16  C   UNL     1      74.551 236.657 339.884  0.00  0.00    +0.000 A 
ATOM     17  C   UNL     1      73.915 234.631 338.701  0.00  0.00    +0.000 A 
ATOM     18  C   UNL     1      73.661 235.950 339.084  0.00  0.00    +0.000 A 
ENDROOT
BRANCH   5  19
ATOM     19  O   UNL     1      80.559 230.541 342.494  0.00  0.00    +0.000 OA
ATOM     20  H   UNL     1      79.676 230.165 342.327  0.00  0.00    +0.000 HD
ENDBRANCH   5  19
BRANCH  18  21
ATOM     21  O   UNL     1      72.522 236.581 338.673  0.00  0.00    +0.000 OA
ATOM     22  H   UNL     1      72.544 237.498 339.000  0.00  0.00    +0.000 HD
ENDBRANCH  18  21
TORSDOF 2
ENDMDL
MODEL 9
REMARK VINA RESULT:      -5.0     32.791     35.275
REMARK  Name = Estradiol.pdbqt.pdb
REMARK  2 active torsions:
REMARK  status: ('A' for Active; 'I' for Inactive)
REMARK    1  A    between atoms: C_5  and  O_19
REMARK    2  A    between atoms: C_18  and  O_21
REMARK                            x       y       z     vdW  Elec       q    Type
REMARK                         _______ _______ _______ _____ _____    ______ ____
ROOT
ATOM      1  C   UNL     1      67.353 216.555 340.202  0.00  0.00    +0.000 C 
ATOM      2  C   UNL     1      68.507 216.892 341.266  0.00  0.00    +0.000 C 
ATOM      3  C   UNL     1      69.332 218.104 341.147  0.00  0.00    +0.000 A 
ATOM      4  C   UNL     1      69.077 219.275 340.224  0.00  0.00    +0.000 A 
ATOM      5  C   UNL     1      66.184 216.100 341.101  0.00  0.00    +0.000 C 
ATOM      6  C   UNL     1      67.096 217.800 339.477  0.00  0.00    +0.000 C 
ATOM      7  C   UNL     1      68.024 216.476 342.549  0.00  0.00    +0.000 C 
ATOM      8  C   UNL     1      67.906 219.074 339.451  0.00  0.00    +0.000 C 
ATOM      9  C   UNL     1      66.590 216.019 342.460  0.00  0.00    +0.000 C 
ATOM     10  C   UNL     1      70.475 218.322 341.958  0.00  0.00    +0.000 A 
ATOM     11  C   UNL     1      67.833 215.389 339.298  0.00  0.00    +0.000 C 
ATOM     12  C   UNL     1      69.950 220.494 340.142  0.00  0.00    +0.000 A 
ATOM     13  C   UNL     1      71.343 219.554 341.882  0.00  0.00    +0.000 A 
ATOM     14  C   UNL     1      71.097 220.631 340.982  0.00  0.00    +0.000 A 
ATOM     15  C   UNL     1      69.666 221.519 339.239  0.00  0.00    +0.000 A 
ATOM     16  C   UNL     1      71.922 221.746 340.915  0.00  0.00    +0.000 A 
ATOM     17  C   UNL     1      70.491 222.641 339.167  0.00  0.00    +0.000 A 
ATOM     18  C   UNL     1      71.606 222.743 340.001  0.00  0.00    +0.000 A 
ENDROOT
BRANCH   5  19
ATOM     19  O   UNL     1      64.862 216.227 340.731  0.00  0.00    +0.000 OA
ATOM     20  H   UNL     1      64.311 216.546 341.468  0.00  0.00    +0.000 HD
ENDBRANCH   5  19
BRANCH  18  21
ATOM     21  O   UNL     1      72.421 223.837 339.933  0.00  0.00    +0.000 OA
ATOM     22  H   UNL     1      72.086 224.509 340.552  0.00  0.00    +0.000 HD
ENDBRANCH  18  21
TORSDOF 2
ENDMDL
