MODEL 1
REMARK VINA RESULT:      -6.4      0.000      0.000
REMARK  Name = 
REMARK  11 active torsions:
REMARK  status: ('A' for Active; 'I' for Inactive)
REMARK    1  A    between atoms: O_1  and  C_16
REMARK    2  A    between atoms: O_1  and  C_22
REMARK    3  A    between atoms: O_6  and  C_24
REMARK    4  A    between atoms: O_8  and  C_26
REMARK    5  A    between atoms: O_11  and  C_36
REMARK    6  A    between atoms: O_11  and  C_41
REMARK    7  A    between atoms: O_12  and  C_37
REMARK    8  A    between atoms: O_12  and  C_42
REMARK    9  A    between atoms: O_13  and  C_39
REMARK   10  A    between atoms: C_17  and  C_23
REMARK   11  A    between atoms: C_35  and  C_40
REMARK                            x       y       z     vdW  Elec       q    Type
REMARK                         _______ _______ _______ _____ _____    ______ ____
ROOT
ATOM      1  O   UNL     1      51.177 244.780 327.747  0.00  0.00    +0.000 OA
ATOM      2  O   UNL     1      53.430 245.195 327.642  0.00  0.00    +0.000 OA
ATOM      3  O   UNL     1      51.768 241.088 320.212  0.00  0.00    +0.000 OA
ATOM      4  O   UNL     1      53.936 242.143 320.264  0.00  0.00    +0.000 OA
ATOM      5  C   UNL     1      50.849 243.941 325.612  0.00  0.00    +0.000 C 
ATOM      6  C   UNL     1      52.331 243.865 325.928  0.00  0.00    +0.000 C 
ATOM      7  C   UNL     1      50.450 242.817 324.665  0.00  0.00    +0.000 C 
ATOM      8  C   UNL     1      53.167 244.231 324.703  0.00  0.00    +0.000 C 
ATOM      9  C   UNL     1      51.436 242.710 323.503  0.00  0.00    +0.000 A 
ATOM     10  C   UNL     1      52.725 243.337 323.532  0.00  0.00    +0.000 A 
ATOM     11  C   UNL     1      50.265 243.956 327.002  0.00  0.00    +0.000 C 
ATOM     12  C   UNL     1      52.417 244.713 327.162  0.00  0.00    +0.000 C 
ATOM     13  C   UNL     1      51.071 241.933 322.387  0.00  0.00    +0.000 A 
ATOM     14  C   UNL     1      53.611 243.171 322.448  0.00  0.00    +0.000 A 
ATOM     15  C   UNL     1      51.972 241.800 321.352  0.00  0.00    +0.000 A 
ATOM     16  C   UNL     1      53.205 242.400 321.382  0.00  0.00    +0.000 A 
ATOM     17  C   UNL     1      53.017 241.312 319.525  0.00  0.00    +0.000 C 
ENDROOT
BRANCH   8  18
ATOM     18  C   UNL     1      53.179 245.720 324.351  0.00  0.00    +0.000 A 
ATOM     19  C   UNL     1      54.330 246.521 324.458  0.00  0.00    +0.000 A 
ATOM     20  C   UNL     1      51.998 246.324 323.887  0.00  0.00    +0.000 A 
ATOM     21  C   UNL     1      51.978 247.670 323.521  0.00  0.00    +0.000 A 
ATOM     22  C   UNL     1      54.329 247.881 324.117  0.00  0.00    +0.000 A 
ATOM     23  C   UNL     1      53.143 248.446 323.647  0.00  0.00    +0.000 A 
BRANCH  21  24
ATOM     24  O   UNL     1      50.884 248.349 323.036  0.00  0.00    +0.000 OA
ATOM     25  C   UNL     1      50.460 248.004 321.719  0.00  0.00    +0.000 C 
ENDBRANCH  21  24
BRANCH  22  26
ATOM     26  O   UNL     1      55.550 248.475 324.292  0.00  0.00    +0.000 OA
ATOM     27  C   UNL     1      56.440 248.509 323.186  0.00  0.00    +0.000 C 
ENDBRANCH  22  26
BRANCH  23  28
ATOM     28  O   UNL     1      53.062 249.765 323.278  0.00  0.00    +0.000 OA
ATOM     29  H   UNL     1      53.563 249.824 322.441  0.00  0.00    +0.000 HD
ENDBRANCH  23  28
ENDBRANCH   8  18
BRANCH   7  30
ATOM     30  O   UNL     1      50.499 241.570 325.360  0.00  0.00    +0.000 OA
BRANCH  30  34
ATOM     31  O   UNL     1      48.178 241.698 325.115  0.00  0.00    +0.000 OA
ATOM     32  O   UNL     1      45.444 239.520 326.262  0.00  0.00    +0.000 OA
ATOM     33  O   UNL     1      44.552 241.163 324.817  0.00  0.00    +0.000 OA
ATOM     34  C   UNL     1      49.291 240.810 325.236  0.00  0.00    +0.000 C 
ATOM     35  C   UNL     1      49.192 239.917 326.494  0.00  0.00    +0.000 C 
ATOM     36  C   UNL     1      46.697 240.210 326.334  0.00  0.00    +0.000 C 
ATOM     37  C   UNL     1      47.831 239.210 326.566  0.00  0.00    +0.000 C 
ATOM     38  C   UNL     1      46.952 240.974 325.038  0.00  0.00    +0.000 C 
ATOM     39  C   UNL     1      45.769 241.909 324.815  0.00  0.00    +0.000 C 
ATOM     40  C   UNL     1      44.379 240.449 326.040  0.00  0.00    +0.000 C 
ATOM     41  C   UNL     1      43.085 239.662 325.946  0.00  0.00    +0.000 C 
BRANCH  35  42
ATOM     42  O   UNL     1      50.250 238.944 326.465  0.00  0.00    +0.000 OA
ATOM     43  H   UNL     1      50.567 238.864 327.386  0.00  0.00    +0.000 HD
ENDBRANCH  35  42
BRANCH  37  44
ATOM     44  O   UNL     1      47.651 238.611 327.859  0.00  0.00    +0.000 OA
ATOM     45  H   UNL     1      47.767 237.651 327.728  0.00  0.00    +0.000 HD
ENDBRANCH  37  44
ENDBRANCH  30  34
ENDBRANCH   7  30
TORSDOF 8
ENDMDL
MODEL 2
REMARK VINA RESULT:      -5.9     20.556     23.881
REMARK  Name = 
REMARK  11 active torsions:
REMARK  status: ('A' for Active; 'I' for Inactive)
REMARK    1  A    between atoms: O_1  and  C_16
REMARK    2  A    between atoms: O_1  and  C_22
REMARK    3  A    between atoms: O_6  and  C_24
REMARK    4  A    between atoms: O_8  and  C_26
REMARK    5  A    between atoms: O_11  and  C_36
REMARK    6  A    between atoms: O_11  and  C_41
REMARK    7  A    between atoms: O_12  and  C_37
REMARK    8  A    between atoms: O_12  and  C_42
REMARK    9  A    between atoms: O_13  and  C_39
REMARK   10  A    between atoms: C_17  and  C_23
REMARK   11  A    between atoms: C_35  and  C_40
REMARK                            x       y       z     vdW  Elec       q    Type
REMARK                         _______ _______ _______ _____ _____    ______ ____
ROOT
ATOM      1  O   UNL     1      67.688 237.432 338.957  0.00  0.00    +0.000 OA
ATOM      2  O   UNL     1      66.118 237.630 337.298  0.00  0.00    +0.000 OA
ATOM      3  O   UNL     1      64.214 244.123 342.688  0.00  0.00    +0.000 OA
ATOM      4  O   UNL     1      63.105 244.289 340.552  0.00  0.00    +0.000 OA
ATOM      5  C   UNL     1      67.223 239.364 340.148  0.00  0.00    +0.000 C 
ATOM      6  C   UNL     1      66.027 239.049 339.270  0.00  0.00    +0.000 C 
ATOM      7  C   UNL     1      66.776 240.075 341.419  0.00  0.00    +0.000 C 
ATOM      8  C   UNL     1      65.438 240.328 338.675  0.00  0.00    +0.000 C 
ATOM      9  C   UNL     1      65.796 241.201 341.095  0.00  0.00    +0.000 A 
ATOM     10  C   UNL     1      65.136 241.303 339.826  0.00  0.00    +0.000 A 
ATOM     11  C   UNL     1      67.852 237.999 340.268  0.00  0.00    +0.000 C 
ATOM     12  C   UNL     1      66.592 238.002 338.359  0.00  0.00    +0.000 C 
ATOM     13  C   UNL     1      65.508 242.146 342.100  0.00  0.00    +0.000 A 
ATOM     14  C   UNL     1      64.211 242.340 339.596  0.00  0.00    +0.000 A 
ATOM     15  C   UNL     1      64.595 243.142 341.827  0.00  0.00    +0.000 A 
ATOM     16  C   UNL     1      63.965 243.236 340.612  0.00  0.00    +0.000 A 
ATOM     17  C   UNL     1      63.270 244.848 341.872  0.00  0.00    +0.000 C 
ENDROOT
BRANCH   8  18
ATOM     18  C   UNL     1      66.267 240.959 337.554  0.00  0.00    +0.000 A 
ATOM     19  C   UNL     1      67.440 241.696 337.796  0.00  0.00    +0.000 A 
ATOM     20  C   UNL     1      65.857 240.792 336.221  0.00  0.00    +0.000 A 
ATOM     21  C   UNL     1      66.606 241.321 335.170  0.00  0.00    +0.000 A 
ATOM     22  C   UNL     1      68.198 242.255 336.757  0.00  0.00    +0.000 A 
ATOM     23  C   UNL     1      67.770 242.059 335.444  0.00  0.00    +0.000 A 
BRANCH  21  24
ATOM     24  O   UNL     1      66.305 241.195 333.833  0.00  0.00    +0.000 OA
ATOM     25  C   UNL     1      65.048 241.722 333.417  0.00  0.00    +0.000 C 
ENDBRANCH  21  24
BRANCH  22  26
ATOM     26  O   UNL     1      69.301 242.931 337.205  0.00  0.00    +0.000 OA
ATOM     27  C   UNL     1      70.513 242.205 337.353  0.00  0.00    +0.000 C 
ENDBRANCH  22  26
BRANCH  23  28
ATOM     28  O   UNL     1      68.462 242.561 334.370  0.00  0.00    +0.000 OA
ATOM     29  H   UNL     1      68.036 243.418 334.174  0.00  0.00    +0.000 HD
ENDBRANCH  23  28
ENDBRANCH   8  18
BRANCH   7  30
ATOM     30  O   UNL     1      66.078 239.155 342.259  0.00  0.00    +0.000 OA
BRANCH  30  34
ATOM     31  O   UNL     1      67.678 238.158 343.642  0.00  0.00    +0.000 OA
ATOM     32  O   UNL     1      67.678 237.321 347.223  0.00  0.00    +0.000 OA
ATOM     33  O   UNL     1      69.847 236.957 346.357  0.00  0.00    +0.000 OA
ATOM     34  C   UNL     1      66.605 239.099 343.590  0.00  0.00    +0.000 C 
ATOM     35  C   UNL     1      65.434 238.702 344.519  0.00  0.00    +0.000 C 
ATOM     36  C   UNL     1      67.137 237.473 345.906  0.00  0.00    +0.000 C 
ATOM     37  C   UNL     1      65.931 238.411 345.943  0.00  0.00    +0.000 C 
ATOM     38  C   UNL     1      68.195 238.042 344.965  0.00  0.00    +0.000 C 
ATOM     39  C   UNL     1      69.401 237.110 345.011  0.00  0.00    +0.000 C 
ATOM     40  C   UNL     1      68.811 236.447 347.196  0.00  0.00    +0.000 C 
ATOM     41  C   UNL     1      69.357 236.347 348.609  0.00  0.00    +0.000 C 
BRANCH  35  42
ATOM     42  O   UNL     1      64.469 239.767 344.543  0.00  0.00    +0.000 OA
ATOM     43  H   UNL     1      63.685 239.410 345.004  0.00  0.00    +0.000 HD
ENDBRANCH  35  42
BRANCH  37  44
ATOM     44  O   UNL     1      64.891 237.786 346.712  0.00  0.00    +0.000 OA
ATOM     45  H   UNL     1      65.021 238.086 347.632  0.00  0.00    +0.000 HD
ENDBRANCH  37  44
ENDBRANCH  30  34
ENDBRANCH   7  30
TORSDOF 8
ENDMDL
MODEL 3
REMARK VINA RESULT:      -5.9      3.042      5.356
REMARK  Name = 
REMARK  11 active torsions:
REMARK  status: ('A' for Active; 'I' for Inactive)
REMARK    1  A    between atoms: O_1  and  C_16
REMARK    2  A    between atoms: O_1  and  C_22
REMARK    3  A    between atoms: O_6  and  C_24
REMARK    4  A    between atoms: O_8  and  C_26
REMARK    5  A    between atoms: O_11  and  C_36
REMARK    6  A    between atoms: O_11  and  C_41
REMARK    7  A    between atoms: O_12  and  C_37
REMARK    8  A    between atoms: O_12  and  C_42
REMARK    9  A    between atoms: O_13  and  C_39
REMARK   10  A    between atoms: C_17  and  C_23
REMARK   11  A    between atoms: C_35  and  C_40
REMARK                            x       y       z     vdW  Elec       q    Type
REMARK                         _______ _______ _______ _____ _____    ______ ____
ROOT
ATOM      1  O   UNL     1      50.292 241.902 326.020  0.00  0.00    +0.000 OA
ATOM      2  O   UNL     1      51.958 242.409 327.510  0.00  0.00    +0.000 OA
ATOM      3  O   UNL     1      55.219 244.888 319.891  0.00  0.00    +0.000 OA
ATOM      4  O   UNL     1      56.465 245.713 321.785  0.00  0.00    +0.000 OA
ATOM      5  C   UNL     1      51.191 242.857 324.110  0.00  0.00    +0.000 C 
ATOM      6  C   UNL     1      52.309 242.672 325.119  0.00  0.00    +0.000 C 
ATOM      7  C   UNL     1      51.734 242.750 322.691  0.00  0.00    +0.000 C 
ATOM      8  C   UNL     1      53.262 243.867 325.100  0.00  0.00    +0.000 C 
ATOM      9  C   UNL     1      53.003 243.585 322.530  0.00  0.00    +0.000 A 
ATOM     10  C   UNL     1      53.744 244.077 323.654  0.00  0.00    +0.000 A 
ATOM     11  C   UNL     1      50.207 241.819 324.587  0.00  0.00    +0.000 C 
ATOM     12  C   UNL     1      51.538 242.362 326.366  0.00  0.00    +0.000 C 
ATOM     13  C   UNL     1      53.474 243.840 321.228  0.00  0.00    +0.000 A 
ATOM     14  C   UNL     1      54.931 244.809 323.448  0.00  0.00    +0.000 A 
ATOM     15  C   UNL     1      54.640 244.560 321.077  0.00  0.00    +0.000 A 
ATOM     16  C   UNL     1      55.348 245.030 322.154  0.00  0.00    +0.000 A 
ATOM     17  C   UNL     1      56.376 245.621 320.348  0.00  0.00    +0.000 C 
ENDROOT
BRANCH   8  18
ATOM     18  C   UNL     1      52.709 245.143 325.740  0.00  0.00    +0.000 A 
ATOM     19  C   UNL     1      53.130 245.608 326.999  0.00  0.00    +0.000 A 
ATOM     20  C   UNL     1      51.749 245.898 325.046  0.00  0.00    +0.000 A 
ATOM     21  C   UNL     1      51.249 247.086 325.581  0.00  0.00    +0.000 A 
ATOM     22  C   UNL     1      52.626 246.787 327.566  0.00  0.00    +0.000 A 
ATOM     23  C   UNL     1      51.684 247.520 326.844  0.00  0.00    +0.000 A 
BRANCH  21  24
ATOM     24  O   UNL     1      50.328 247.907 324.974  0.00  0.00    +0.000 OA
ATOM     25  C   UNL     1      50.731 248.512 323.748  0.00  0.00    +0.000 C 
ENDBRANCH  21  24
BRANCH  22  26
ATOM     26  O   UNL     1      53.167 247.062 328.793  0.00  0.00    +0.000 OA
ATOM     27  C   UNL     1      54.123 248.108 328.882  0.00  0.00    +0.000 C 
ENDBRANCH  22  26
BRANCH  23  28
ATOM     28  O   UNL     1      51.152 248.692 327.322  0.00  0.00    +0.000 OA
ATOM     29  H   UNL     1      51.689 249.398 326.911  0.00  0.00    +0.000 HD
ENDBRANCH  23  28
ENDBRANCH   8  18
BRANCH   7  30
ATOM     30  O   UNL     1      52.099 241.396 322.422  0.00  0.00    +0.000 OA
BRANCH  30  34
ATOM     31  O   UNL     1      50.497 240.570 320.933  0.00  0.00    +0.000 OA
ATOM     32  O   UNL     1      50.758 238.437 317.948  0.00  0.00    +0.000 OA
ATOM     33  O   UNL     1      48.543 239.244 318.115  0.00  0.00    +0.000 OA
ATOM     34  C   UNL     1      51.851 241.006 321.066  0.00  0.00    +0.000 C 
ATOM     35  C   UNL     1      52.861 239.884 320.730  0.00  0.00    +0.000 C 
ATOM     36  C   UNL     1      51.065 238.897 319.269  0.00  0.00    +0.000 C 
ATOM     37  C   UNL     1      52.549 239.248 319.367  0.00  0.00    +0.000 C 
ATOM     38  C   UNL     1      50.229 240.129 319.605  0.00  0.00    +0.000 C 
ATOM     39  C   UNL     1      48.762 239.750 319.431  0.00  0.00    +0.000 C 
ATOM     40  C   UNL     1      49.368 238.111 317.847  0.00  0.00    +0.000 C 
ATOM     41  C   UNL     1      49.098 237.657 316.424  0.00  0.00    +0.000 C 
BRANCH  35  42
ATOM     42  O   UNL     1      54.189 240.433 320.724  0.00  0.00    +0.000 OA
ATOM     43  H   UNL     1      54.499 240.380 319.799  0.00  0.00    +0.000 HD
ENDBRANCH  35  42
BRANCH  37  44
ATOM     44  O   UNL     1      53.314 238.044 319.196  0.00  0.00    +0.000 OA
ATOM     45  H   UNL     1      54.241 238.286 319.382  0.00  0.00    +0.000 HD
ENDBRANCH  37  44
ENDBRANCH  30  34
ENDBRANCH   7  30
TORSDOF 8
ENDMDL
MODEL 4
REMARK VINA RESULT:      -5.8      6.525     10.495
REMARK  Name = 
REMARK  11 active torsions:
REMARK  status: ('A' for Active; 'I' for Inactive)
REMARK    1  A    between atoms: O_1  and  C_16
REMARK    2  A    between atoms: O_1  and  C_22
REMARK    3  A    between atoms: O_6  and  C_24
REMARK    4  A    between atoms: O_8  and  C_26
REMARK    5  A    between atoms: O_11  and  C_36
REMARK    6  A    between atoms: O_11  and  C_41
REMARK    7  A    between atoms: O_12  and  C_37
REMARK    8  A    between atoms: O_12  and  C_42
REMARK    9  A    between atoms: O_13  and  C_39
REMARK   10  A    between atoms: C_17  and  C_23
REMARK   11  A    between atoms: C_35  and  C_40
REMARK                            x       y       z     vdW  Elec       q    Type
REMARK                         _______ _______ _______ _____ _____    ______ ____
ROOT
ATOM      1  O   UNL     1      52.639 249.201 331.127  0.00  0.00    +0.000 OA
ATOM      2  O   UNL     1      50.982 250.533 331.984  0.00  0.00    +0.000 OA
ATOM      3  O   UNL     1      47.589 242.584 332.339  0.00  0.00    +0.000 OA
ATOM      4  O   UNL     1      46.352 244.216 333.614  0.00  0.00    +0.000 OA
ATOM      5  C   UNL     1      51.701 247.123 331.537  0.00  0.00    +0.000 C 
ATOM      6  C   UNL     1      50.599 248.162 331.608  0.00  0.00    +0.000 C 
ATOM      7  C   UNL     1      51.143 245.789 331.055  0.00  0.00    +0.000 C 
ATOM      8  C   UNL     1      49.625 247.846 332.743  0.00  0.00    +0.000 C 
ATOM      9  C   UNL     1      49.858 245.436 331.802  0.00  0.00    +0.000 A 
ATOM     10  C   UNL     1      49.122 246.404 332.561  0.00  0.00    +0.000 A 
ATOM     11  C   UNL     1      52.709 247.838 330.674  0.00  0.00    +0.000 C 
ATOM     12  C   UNL     1      51.389 249.435 331.645  0.00  0.00    +0.000 C 
ATOM     13  C   UNL     1      49.368 244.120 331.701  0.00  0.00    +0.000 A 
ATOM     14  C   UNL     1      47.920 246.032 333.198  0.00  0.00    +0.000 A 
ATOM     15  C   UNL     1      48.188 243.805 332.341  0.00  0.00    +0.000 A 
ATOM     16  C   UNL     1      47.485 244.733 333.066  0.00  0.00    +0.000 A 
ATOM     17  C   UNL     1      46.426 242.851 333.151  0.00  0.00    +0.000 C 
ENDROOT
BRANCH   8  18
ATOM     18  C   UNL     1      50.163 248.122 334.149  0.00  0.00    +0.000 A 
ATOM     19  C   UNL     1      51.228 247.398 334.715  0.00  0.00    +0.000 A 
ATOM     20  C   UNL     1      49.586 249.150 334.914  0.00  0.00    +0.000 A 
ATOM     21  C   UNL     1      50.073 249.456 336.185  0.00  0.00    +0.000 A 
ATOM     22  C   UNL     1      51.720 247.673 335.999  0.00  0.00    +0.000 A 
ATOM     23  C   UNL     1      51.132 248.709 336.726  0.00  0.00    +0.000 A 
BRANCH  21  24
ATOM     24  O   UNL     1      49.595 250.454 337.003  0.00  0.00    +0.000 OA
ATOM     25  C   UNL     1      48.177 250.566 337.100  0.00  0.00    +0.000 C 
ENDBRANCH  21  24
BRANCH  22  26
ATOM     26  O   UNL     1      52.757 246.856 336.358  0.00  0.00    +0.000 OA
ATOM     27  C   UNL     1      52.578 246.006 337.482  0.00  0.00    +0.000 C 
ENDBRANCH  22  26
BRANCH  23  28
ATOM     28  O   UNL     1      51.564 249.052 337.983  0.00  0.00    +0.000 OA
ATOM     29  H   UNL     1      50.861 249.626 338.343  0.00  0.00    +0.000 HD
ENDBRANCH  23  28
ENDBRANCH   8  18
BRANCH   7  30
ATOM     30  O   UNL     1      50.799 245.890 329.673  0.00  0.00    +0.000 OA
BRANCH  30  34
ATOM     31  O   UNL     1      51.967 246.345 327.699  0.00  0.00    +0.000 OA
ATOM     32  O   UNL     1      53.552 244.160 325.201  0.00  0.00    +0.000 OA
ATOM     33  O   UNL     1      54.120 246.403 324.720  0.00  0.00    +0.000 OA
ATOM     34  C   UNL     1      51.843 245.442 328.800  0.00  0.00    +0.000 C 
ATOM     35  C   UNL     1      51.463 244.014 328.343  0.00  0.00    +0.000 C 
ATOM     36  C   UNL     1      52.563 244.575 326.149  0.00  0.00    +0.000 C 
ATOM     37  C   UNL     1      52.409 243.516 327.241  0.00  0.00    +0.000 C 
ATOM     38  C   UNL     1      52.966 245.903 326.785  0.00  0.00    +0.000 C 
ATOM     39  C   UNL     1      53.170 246.909 325.657  0.00  0.00    +0.000 C 
ATOM     40  C   UNL     1      53.705 245.150 324.179  0.00  0.00    +0.000 C 
ATOM     41  C   UNL     1      54.781 244.670 323.222  0.00  0.00    +0.000 C 
BRANCH  35  42
ATOM     42  O   UNL     1      51.516 243.128 329.474  0.00  0.00    +0.000 OA
ATOM     43  H   UNL     1      51.759 242.252 329.118  0.00  0.00    +0.000 HD
ENDBRANCH  35  42
BRANCH  37  44
ATOM     44  O   UNL     1      51.885 242.319 326.642  0.00  0.00    +0.000 OA
ATOM     45  H   UNL     1      52.215 242.313 325.723  0.00  0.00    +0.000 HD
ENDBRANCH  37  44
ENDBRANCH  30  34
ENDBRANCH   7  30
TORSDOF 8
ENDMDL
MODEL 5
REMARK VINA RESULT:      -5.8      6.027     10.156
REMARK  Name = 
REMARK  11 active torsions:
REMARK  status: ('A' for Active; 'I' for Inactive)
REMARK    1  A    between atoms: O_1  and  C_16
REMARK    2  A    between atoms: O_1  and  C_22
REMARK    3  A    between atoms: O_6  and  C_24
REMARK    4  A    between atoms: O_8  and  C_26
REMARK    5  A    between atoms: O_11  and  C_36
REMARK    6  A    between atoms: O_11  and  C_41
REMARK    7  A    between atoms: O_12  and  C_37
REMARK    8  A    between atoms: O_12  and  C_42
REMARK    9  A    between atoms: O_13  and  C_39
REMARK   10  A    between atoms: C_17  and  C_23
REMARK   11  A    between atoms: C_35  and  C_40
REMARK                            x       y       z     vdW  Elec       q    Type
REMARK                         _______ _______ _______ _____ _____    ______ ____
ROOT
ATOM      1  O   UNL     1      49.367 239.212 320.428  0.00  0.00    +0.000 OA
ATOM      2  O   UNL     1      50.491 237.670 319.157  0.00  0.00    +0.000 OA
ATOM      3  O   UNL     1      45.805 232.814 324.569  0.00  0.00    +0.000 OA
ATOM      4  O   UNL     1      46.749 231.569 322.732  0.00  0.00    +0.000 OA
ATOM      5  C   UNL     1      47.982 237.782 321.615  0.00  0.00    +0.000 C 
ATOM      6  C   UNL     1      49.124 236.966 321.041  0.00  0.00    +0.000 C 
ATOM      7  C   UNL     1      47.498 237.171 322.923  0.00  0.00    +0.000 C 
ATOM      8  C   UNL     1      48.627 235.611 320.542  0.00  0.00    +0.000 C 
ATOM      9  C   UNL     1      47.313 235.661 322.782  0.00  0.00    +0.000 A 
ATOM     10  C   UNL     1      47.873 234.919 321.690  0.00  0.00    +0.000 A 
ATOM     11  C   UNL     1      48.604 239.156 321.645  0.00  0.00    +0.000 C 
ATOM     12  C   UNL     1      49.726 237.936 320.069  0.00  0.00    +0.000 C 
ATOM     13  C   UNL     1      46.600 234.979 323.787  0.00  0.00    +0.000 A 
ATOM     14  C   UNL     1      47.705 233.521 321.631  0.00  0.00    +0.000 A 
ATOM     15  C   UNL     1      46.463 233.611 323.685  0.00  0.00    +0.000 A 
ATOM     16  C   UNL     1      47.000 232.903 322.640  0.00  0.00    +0.000 A 
ATOM     17  C   UNL     1      45.989 231.520 323.957  0.00  0.00    +0.000 C 
ENDROOT
BRANCH   8  18
ATOM     18  C   UNL     1      47.825 235.657 319.239  0.00  0.00    +0.000 A 
ATOM     19  C   UNL     1      48.305 235.129 318.027  0.00  0.00    +0.000 A 
ATOM     20  C   UNL     1      46.546 236.239 319.242  0.00  0.00    +0.000 A 
ATOM     21  C   UNL     1      45.770 236.268 318.083  0.00  0.00    +0.000 A 
ATOM     22  C   UNL     1      47.552 235.166 316.845  0.00  0.00    +0.000 A 
ATOM     23  C   UNL     1      46.281 235.739 316.886  0.00  0.00    +0.000 A 
BRANCH  21  24
ATOM     24  O   UNL     1      44.501 236.792 317.986  0.00  0.00    +0.000 OA
ATOM     25  C   UNL     1      44.365 238.179 318.288  0.00  0.00    +0.000 C 
ENDBRANCH  21  24
BRANCH  22  26
ATOM     26  O   UNL     1      48.201 234.598 315.782  0.00  0.00    +0.000 OA
ATOM     27  C   UNL     1      48.994 235.439 314.957  0.00  0.00    +0.000 C 
ENDBRANCH  22  26
BRANCH  23  28
ATOM     28  O   UNL     1      45.475 235.801 315.777  0.00  0.00    +0.000 OA
ATOM     29  H   UNL     1      46.048 235.531 315.034  0.00  0.00    +0.000 HD
ENDBRANCH  23  28
ENDBRANCH   8  18
BRANCH   7  30
ATOM     30  O   UNL     1      48.486 237.369 323.935  0.00  0.00    +0.000 OA
BRANCH  30  34
ATOM     31  O   UNL     1      46.662 238.495 324.868  0.00  0.00    +0.000 OA
ATOM     32  O   UNL     1      46.401 240.975 327.571  0.00  0.00    +0.000 OA
ATOM     33  O   UNL     1      44.224 240.313 326.934  0.00  0.00    +0.000 OA
ATOM     34  C   UNL     1      47.956 237.950 325.133  0.00  0.00    +0.000 C 
ATOM     35  C   UNL     1      48.962 239.031 325.591  0.00  0.00    +0.000 C 
ATOM     36  C   UNL     1      46.973 240.325 326.430  0.00  0.00    +0.000 C 
ATOM     37  C   UNL     1      48.393 239.860 326.752  0.00  0.00    +0.000 C 
ATOM     38  C   UNL     1      46.124 239.123 326.028  0.00  0.00    +0.000 C 
ATOM     39  C   UNL     1      44.705 239.624 325.780  0.00  0.00    +0.000 C 
ATOM     40  C   UNL     1      45.070 241.409 327.279  0.00  0.00    +0.000 C 
ATOM     41  C   UNL     1      44.507 242.063 328.528  0.00  0.00    +0.000 C 
BRANCH  35  42
ATOM     42  O   UNL     1      50.186 238.394 325.995  0.00  0.00    +0.000 OA
ATOM     43  H   UNL     1      50.907 238.957 325.652  0.00  0.00    +0.000 HD
ENDBRANCH  35  42
BRANCH  37  44
ATOM     44  O   UNL     1      49.211 241.019 326.980  0.00  0.00    +0.000 OA
ATOM     45  H   UNL     1      49.759 240.810 327.760  0.00  0.00    +0.000 HD
ENDBRANCH  37  44
ENDBRANCH  30  34
ENDBRANCH   7  30
TORSDOF 8
ENDMDL
MODEL 6
REMARK VINA RESULT:      -5.8     18.996     22.247
REMARK  Name = 
REMARK  11 active torsions:
REMARK  status: ('A' for Active; 'I' for Inactive)
REMARK    1  A    between atoms: O_1  and  C_16
REMARK    2  A    between atoms: O_1  and  C_22
REMARK    3  A    between atoms: O_6  and  C_24
REMARK    4  A    between atoms: O_8  and  C_26
REMARK    5  A    between atoms: O_11  and  C_36
REMARK    6  A    between atoms: O_11  and  C_41
REMARK    7  A    between atoms: O_12  and  C_37
REMARK    8  A    between atoms: O_12  and  C_42
REMARK    9  A    between atoms: O_13  and  C_39
REMARK   10  A    between atoms: C_17  and  C_23
REMARK   11  A    between atoms: C_35  and  C_40
REMARK                            x       y       z     vdW  Elec       q    Type
REMARK                         _______ _______ _______ _____ _____    ______ ____
ROOT
ATOM      1  O   UNL     1      69.718 240.638 331.450  0.00  0.00    +0.000 OA
ATOM      2  O   UNL     1      67.679 241.432 330.764  0.00  0.00    +0.000 OA
ATOM      3  O   UNL     1      66.350 239.293 339.040  0.00  0.00    +0.000 OA
ATOM      4  O   UNL     1      64.582 240.636 338.097  0.00  0.00    +0.000 OA
ATOM      5  C   UNL     1      69.277 240.372 333.709  0.00  0.00    +0.000 C 
ATOM      6  C   UNL     1      67.952 240.458 332.975  0.00  0.00    +0.000 C 
ATOM      7  C   UNL     1      69.141 239.499 334.949  0.00  0.00    +0.000 C 
ATOM      8  C   UNL     1      66.940 241.276 333.775  0.00  0.00    +0.000 C 
ATOM      9  C   UNL     1      67.892 239.877 335.745  0.00  0.00    +0.000 A 
ATOM     10  C   UNL     1      66.841 240.676 335.187  0.00  0.00    +0.000 A 
ATOM     11  C   UNL     1      70.186 239.910 332.597  0.00  0.00    +0.000 C 
ATOM     12  C   UNL     1      68.389 240.939 331.624  0.00  0.00    +0.000 C 
ATOM     13  C   UNL     1      67.763 239.385 337.058  0.00  0.00    +0.000 A 
ATOM     14  C   UNL     1      65.692 240.961 335.954  0.00  0.00    +0.000 A 
ATOM     15  C   UNL     1      66.621 239.690 337.768  0.00  0.00    +0.000 A 
ATOM     16  C   UNL     1      65.616 240.454 337.232  0.00  0.00    +0.000 A 
ATOM     17  C   UNL     1      65.056 239.898 339.243  0.00  0.00    +0.000 C 
ENDROOT
BRANCH   8  18
ATOM     18  C   UNL     1      67.191 242.786 333.780  0.00  0.00    +0.000 A 
ATOM     19  C   UNL     1      68.293 243.374 334.426  0.00  0.00    +0.000 A 
ATOM     20  C   UNL     1      66.297 243.632 333.102  0.00  0.00    +0.000 A 
ATOM     21  C   UNL     1      66.512 245.010 333.053  0.00  0.00    +0.000 A 
ATOM     22  C   UNL     1      68.519 244.758 334.408  0.00  0.00    +0.000 A 
ATOM     23  C   UNL     1      67.618 245.568 333.715  0.00  0.00    +0.000 A 
BRANCH  21  24
ATOM     24  O   UNL     1      65.711 245.919 332.401  0.00  0.00    +0.000 OA
ATOM     25  C   UNL     1      65.207 245.518 331.130  0.00  0.00    +0.000 C 
ENDBRANCH  21  24
BRANCH  22  26
ATOM     26  O   UNL     1      69.645 245.123 335.094  0.00  0.00    +0.000 OA
ATOM     27  C   UNL     1      69.504 245.505 336.455  0.00  0.00    +0.000 C 
ENDBRANCH  22  26
BRANCH  23  28
ATOM     28  O   UNL     1      67.775 246.929 333.638  0.00  0.00    +0.000 OA
ATOM     29  H   UNL     1      68.667 247.059 333.261  0.00  0.00    +0.000 HD
ENDBRANCH  23  28
ENDBRANCH   8  18
BRANCH   7  30
ATOM     30  O   UNL     1      68.978 238.136 334.556  0.00  0.00    +0.000 OA
BRANCH  30  34
ATOM     31  O   UNL     1      71.091 237.981 335.545  0.00  0.00    +0.000 OA
ATOM     32  O   UNL     1      73.552 235.253 335.712  0.00  0.00    +0.000 OA
ATOM     33  O   UNL     1      74.269 237.011 337.119  0.00  0.00    +0.000 OA
ATOM     34  C   UNL     1      69.914 237.253 335.188  0.00  0.00    +0.000 C 
ATOM     35  C   UNL     1      70.212 236.120 334.180  0.00  0.00    +0.000 C 
ATOM     36  C   UNL     1      72.544 236.083 335.125  0.00  0.00    +0.000 C 
ATOM     37  C   UNL     1      71.361 235.228 334.673  0.00  0.00    +0.000 C 
ATOM     38  C   UNL     1      72.064 237.122 336.134  0.00  0.00    +0.000 C 
ATOM     39  C   UNL     1      73.284 237.906 336.604  0.00  0.00    +0.000 C 
ATOM     40  C   UNL     1      74.661 236.048 336.142  0.00  0.00    +0.000 C 
ATOM     41  C   UNL     1      75.681 235.121 336.778  0.00  0.00    +0.000 C 
BRANCH  35  42
ATOM     42  O   UNL     1      69.024 235.332 333.992  0.00  0.00    +0.000 OA
ATOM     43  H   UNL     1      68.356 235.704 334.600  0.00  0.00    +0.000 HD
ENDBRANCH  35  42
BRANCH  37  44
ATOM     44  O   UNL     1      71.803 234.361 333.616  0.00  0.00    +0.000 OA
ATOM     45  H   UNL     1      72.676 234.024 333.895  0.00  0.00    +0.000 HD
ENDBRANCH  37  44
ENDBRANCH  30  34
ENDBRANCH   7  30
TORSDOF 8
ENDMDL
MODEL 7
REMARK VINA RESULT:      -5.7     22.157     25.492
REMARK  Name = 
REMARK  11 active torsions:
REMARK  status: ('A' for Active; 'I' for Inactive)
REMARK    1  A    between atoms: O_1  and  C_16
REMARK    2  A    between atoms: O_1  and  C_22
REMARK    3  A    between atoms: O_6  and  C_24
REMARK    4  A    between atoms: O_8  and  C_26
REMARK    5  A    between atoms: O_11  and  C_36
REMARK    6  A    between atoms: O_11  and  C_41
REMARK    7  A    between atoms: O_12  and  C_37
REMARK    8  A    between atoms: O_12  and  C_42
REMARK    9  A    between atoms: O_13  and  C_39
REMARK   10  A    between atoms: C_17  and  C_23
REMARK   11  A    between atoms: C_35  and  C_40
REMARK                            x       y       z     vdW  Elec       q    Type
REMARK                         _______ _______ _______ _____ _____    ______ ____
ROOT
ATOM      1  O   UNL     1      60.616 219.760 327.588  0.00  0.00    +0.000 OA
ATOM      2  O   UNL     1      58.632 220.723 326.964  0.00  0.00    +0.000 OA
ATOM      3  O   UNL     1      64.303 227.235 326.455  0.00  0.00    +0.000 OA
ATOM      4  O   UNL     1      62.191 227.714 325.395  0.00  0.00    +0.000 OA
ATOM      5  C   UNL     1      62.048 221.526 327.144  0.00  0.00    +0.000 C 
ATOM      6  C   UNL     1      60.636 222.073 327.235  0.00  0.00    +0.000 C 
ATOM      7  C   UNL     1      63.054 222.577 327.596  0.00  0.00    +0.000 C 
ATOM      8  C   UNL     1      60.401 223.149 326.176  0.00  0.00    +0.000 C 
ATOM      9  C   UNL     1      62.755 223.929 326.950  0.00  0.00    +0.000 A 
ATOM     10  C   UNL     1      61.500 224.216 326.318  0.00  0.00    +0.000 A 
ATOM     11  C   UNL     1      61.913 220.261 327.953  0.00  0.00    +0.000 C 
ATOM     12  C   UNL     1      59.825 220.813 327.200  0.00  0.00    +0.000 C 
ATOM     13  C   UNL     1      63.739 224.934 327.018  0.00  0.00    +0.000 A 
ATOM     14  C   UNL     1      61.263 225.494 325.773  0.00  0.00    +0.000 A 
ATOM     15  C   UNL     1      63.461 226.168 326.471  0.00  0.00    +0.000 A 
ATOM     16  C   UNL     1      62.259 226.441 325.868  0.00  0.00    +0.000 A 
ATOM     17  C   UNL     1      63.492 228.212 325.770  0.00  0.00    +0.000 C 
ENDROOT
BRANCH   8  18
ATOM     18  C   UNL     1      60.253 222.626 324.746  0.00  0.00    +0.000 A 
ATOM     19  C   UNL     1      59.027 222.623 324.057  0.00  0.00    +0.000 A 
ATOM     20  C   UNL     1      61.386 222.136 324.075  0.00  0.00    +0.000 A 
ATOM     21  C   UNL     1      61.299 221.684 322.757  0.00  0.00    +0.000 A 
ATOM     22  C   UNL     1      58.910 222.154 322.741  0.00  0.00    +0.000 A 
ATOM     23  C   UNL     1      60.057 221.687 322.099  0.00  0.00    +0.000 A 
BRANCH  21  24
ATOM     24  O   UNL     1      62.349 221.209 322.006  0.00  0.00    +0.000 OA
ATOM     25  C   UNL     1      62.908 219.965 322.420  0.00  0.00    +0.000 C 
ENDBRANCH  21  24
BRANCH  22  26
ATOM     26  O   UNL     1      57.633 222.239 322.256  0.00  0.00    +0.000 OA
ATOM     27  C   UNL     1      56.805 221.089 322.350  0.00  0.00    +0.000 C 
ENDBRANCH  22  26
BRANCH  23  28
ATOM     28  O   UNL     1      60.032 221.225 320.807  0.00  0.00    +0.000 OA
ATOM     29  H   UNL     1      59.128 221.416 320.489  0.00  0.00    +0.000 HD
ENDBRANCH  23  28
ENDBRANCH   8  18
BRANCH   7  30
ATOM     30  O   UNL     1      62.943 222.766 329.008  0.00  0.00    +0.000 OA
BRANCH  30  34
ATOM     31  O   UNL     1      65.204 222.222 328.762  0.00  0.00    +0.000 OA
ATOM     32  O   UNL     1      67.586 220.485 330.962  0.00  0.00    +0.000 OA
ATOM     33  O   UNL     1      68.764 221.375 329.116  0.00  0.00    +0.000 OA
ATOM     34  C   UNL     1      64.182 222.568 329.700  0.00  0.00    +0.000 C 
ATOM     35  C   UNL     1      63.942 221.450 330.740  0.00  0.00    +0.000 C 
ATOM     36  C   UNL     1      66.327 220.754 330.335  0.00  0.00    +0.000 C 
ATOM     37  C   UNL     1      65.259 221.014 331.398  0.00  0.00    +0.000 C 
ATOM     38  C   UNL     1      66.441 221.972 329.423  0.00  0.00    +0.000 C 
ATOM     39  C   UNL     1      67.558 221.694 328.423  0.00  0.00    +0.000 C 
ATOM     40  C   UNL     1      68.591 220.246 329.972  0.00  0.00    +0.000 C 
ATOM     41  C   UNL     1      69.904 219.996 330.692  0.00  0.00    +0.000 C 
BRANCH  35  42
ATOM     42  O   UNL     1      63.027 221.927 331.741  0.00  0.00    +0.000 OA
ATOM     43  H   UNL     1      63.580 222.266 332.472  0.00  0.00    +0.000 HD
ENDBRANCH  35  42
BRANCH  37  44
ATOM     44  O   UNL     1      65.061 219.804 332.148  0.00  0.00    +0.000 OA
ATOM     45  H   UNL     1      65.512 219.100 331.645  0.00  0.00    +0.000 HD
ENDBRANCH  37  44
ENDBRANCH  30  34
ENDBRANCH   7  30
TORSDOF 8
ENDMDL
MODEL 8
REMARK VINA RESULT:      -5.6      5.586     11.454
REMARK  Name = 
REMARK  11 active torsions:
REMARK  status: ('A' for Active; 'I' for Inactive)
REMARK    1  A    between atoms: O_1  and  C_16
REMARK    2  A    between atoms: O_1  and  C_22
REMARK    3  A    between atoms: O_6  and  C_24
REMARK    4  A    between atoms: O_8  and  C_26
REMARK    5  A    between atoms: O_11  and  C_36
REMARK    6  A    between atoms: O_11  and  C_41
REMARK    7  A    between atoms: O_12  and  C_37
REMARK    8  A    between atoms: O_12  and  C_42
REMARK    9  A    between atoms: O_13  and  C_39
REMARK   10  A    between atoms: C_17  and  C_23
REMARK   11  A    between atoms: C_35  and  C_40
REMARK                            x       y       z     vdW  Elec       q    Type
REMARK                         _______ _______ _______ _____ _____    ______ ____
ROOT
ATOM      1  O   UNL     1      50.021 235.227 323.489  0.00  0.00    +0.000 OA
ATOM      2  O   UNL     1      49.196 233.190 324.139  0.00  0.00    +0.000 OA
ATOM      3  O   UNL     1      42.233 238.322 324.210  0.00  0.00    +0.000 OA
ATOM      4  O   UNL     1      41.699 235.974 324.351  0.00  0.00    +0.000 OA
ATOM      5  C   UNL     1      48.030 236.396 323.297  0.00  0.00    +0.000 C 
ATOM      6  C   UNL     1      47.775 235.163 324.144  0.00  0.00    +0.000 C 
ATOM      7  C   UNL     1      47.099 237.527 323.714  0.00  0.00    +0.000 C 
ATOM      8  C   UNL     1      46.421 234.541 323.806  0.00  0.00    +0.000 C 
ATOM      9  C   UNL     1      45.663 237.025 323.854  0.00  0.00    +0.000 A 
ATOM     10  C   UNL     1      45.343 235.630 323.937  0.00  0.00    +0.000 A 
ATOM     11  C   UNL     1      49.514 236.572 323.494  0.00  0.00    +0.000 C 
ATOM     12  C   UNL     1      49.029 234.376 323.909  0.00  0.00    +0.000 C 
ATOM     13  C   UNL     1      44.628 237.977 323.944  0.00  0.00    +0.000 A 
ATOM     14  C   UNL     1      44.003 235.225 324.106  0.00  0.00    +0.000 A 
ATOM     15  C   UNL     1      43.334 237.532 324.109  0.00  0.00    +0.000 A 
ATOM     16  C   UNL     1      43.031 236.196 324.189  0.00  0.00    +0.000 A 
ATOM     17  C   UNL     1      41.198 237.327 324.362  0.00  0.00    +0.000 C 
ENDROOT
BRANCH   8  18
ATOM     18  C   UNL     1      46.367 233.801 322.467  0.00  0.00    +0.000 A 
ATOM     19  C   UNL     1      46.422 234.462 321.227  0.00  0.00    +0.000 A 
ATOM     20  C   UNL     1      46.272 232.399 322.463  0.00  0.00    +0.000 A 
ATOM     21  C   UNL     1      46.258 231.686 321.264  0.00  0.00    +0.000 A 
ATOM     22  C   UNL     1      46.388 233.768 320.009  0.00  0.00    +0.000 A 
ATOM     23  C   UNL     1      46.306 232.375 320.041  0.00  0.00    +0.000 A 
BRANCH  21  24
ATOM     24  O   UNL     1      46.190 230.316 321.151  0.00  0.00    +0.000 OA
ATOM     25  C   UNL     1      45.130 229.676 321.857  0.00  0.00    +0.000 C 
ENDBRANCH  21  24
BRANCH  22  26
ATOM     26  O   UNL     1      46.454 234.597 318.921  0.00  0.00    +0.000 OA
ATOM     27  C   UNL     1      47.716 235.153 318.583  0.00  0.00    +0.000 C 
ENDBRANCH  22  26
BRANCH  23  28
ATOM     28  O   UNL     1      46.282 231.621 318.894  0.00  0.00    +0.000 OA
ATOM     29  H   UNL     1      46.621 230.745 319.162  0.00  0.00    +0.000 HD
ENDBRANCH  23  28
ENDBRANCH   8  18
BRANCH   7  30
ATOM     30  O   UNL     1      47.489 238.015 324.998  0.00  0.00    +0.000 OA
BRANCH  30  34
ATOM     31  O   UNL     1      48.137 239.812 323.651  0.00  0.00    +0.000 OA
ATOM     32  O   UNL     1      50.267 242.742 324.288  0.00  0.00    +0.000 OA
ATOM     33  O   UNL     1      49.238 242.995 322.176  0.00  0.00    +0.000 OA
ATOM     34  C   UNL     1      47.843 239.403 324.988  0.00  0.00    +0.000 C 
ATOM     35  C   UNL     1      49.060 239.563 325.928  0.00  0.00    +0.000 C 
ATOM     36  C   UNL     1      49.848 241.376 324.370  0.00  0.00    +0.000 C 
ATOM     37  C   UNL     1      49.652 240.977 325.833  0.00  0.00    +0.000 C 
ATOM     38  C   UNL     1      48.540 241.179 323.610  0.00  0.00    +0.000 C 
ATOM     39  C   UNL     1      48.765 241.649 322.177  0.00  0.00    +0.000 C 
ATOM     40  C   UNL     1      50.448 243.124 322.921  0.00  0.00    +0.000 C 
ATOM     41  C   UNL     1      50.862 244.584 322.896  0.00  0.00    +0.000 C 
BRANCH  35  42
ATOM     42  O   UNL     1      48.649 239.292 327.279  0.00  0.00    +0.000 OA
ATOM     43  H   UNL     1      48.980 240.038 327.816  0.00  0.00    +0.000 HD
ENDBRANCH  35  42
BRANCH  37  44
ATOM     44  O   UNL     1      50.927 241.025 326.493  0.00  0.00    +0.000 OA
ATOM     45  H   UNL     1      51.475 241.642 325.971  0.00  0.00    +0.000 HD
ENDBRANCH  37  44
ENDBRANCH  30  34
ENDBRANCH   7  30
TORSDOF 8
ENDMDL
MODEL 9
REMARK VINA RESULT:      -5.6     25.379     28.283
REMARK  Name = 
REMARK  11 active torsions:
REMARK  status: ('A' for Active; 'I' for Inactive)
REMARK    1  A    between atoms: O_1  and  C_16
REMARK    2  A    between atoms: O_1  and  C_22
REMARK    3  A    between atoms: O_6  and  C_24
REMARK    4  A    between atoms: O_8  and  C_26
REMARK    5  A    between atoms: O_11  and  C_36
REMARK    6  A    between atoms: O_11  and  C_41
REMARK    7  A    between atoms: O_12  and  C_37
REMARK    8  A    between atoms: O_12  and  C_42
REMARK    9  A    between atoms: O_13  and  C_39
REMARK   10  A    between atoms: C_17  and  C_23
REMARK   11  A    between atoms: C_35  and  C_40
REMARK                            x       y       z     vdW  Elec       q    Type
REMARK                         _______ _______ _______ _____ _____    ______ ____
ROOT
ATOM      1  O   UNL     1      67.669 222.817 326.390  0.00  0.00    +0.000 OA
ATOM      2  O   UNL     1      69.649 222.840 327.546  0.00  0.00    +0.000 OA
ATOM      3  O   UNL     1      64.138 219.035 333.021  0.00  0.00    +0.000 OA
ATOM      4  O   UNL     1      66.450 218.799 333.665  0.00  0.00    +0.000 OA
ATOM      5  C   UNL     1      66.395 221.548 327.851  0.00  0.00    +0.000 C 
ATOM      6  C   UNL     1      67.600 222.074 328.608  0.00  0.00    +0.000 C 
ATOM      7  C   UNL     1      65.208 221.383 328.791  0.00  0.00    +0.000 C 
ATOM      8  C   UNL     1      68.150 221.012 329.559  0.00  0.00    +0.000 C 
ATOM      9  C   UNL     1      65.627 220.670 330.076  0.00  0.00    +0.000 A 
ATOM     10  C   UNL     1      67.001 220.528 330.460  0.00  0.00    +0.000 A 
ATOM     11  C   UNL     1      66.298 222.560 326.737  0.00  0.00    +0.000 C 
ATOM     12  C   UNL     1      68.458 222.581 327.488  0.00  0.00    +0.000 C 
ATOM     13  C   UNL     1      64.619 220.174 330.924  0.00  0.00    +0.000 A 
ATOM     14  C   UNL     1      67.330 219.895 331.676  0.00  0.00    +0.000 A 
ATOM     15  C   UNL     1      64.989 219.563 332.103  0.00  0.00    +0.000 A 
ATOM     16  C   UNL     1      66.305 219.429 332.469  0.00  0.00    +0.000 A 
ATOM     17  C   UNL     1      65.072 218.550 334.009  0.00  0.00    +0.000 C 
ENDROOT
BRANCH   8  18
ATOM     18  C   UNL     1      68.905 219.867 328.879  0.00  0.00    +0.000 A 
ATOM     19  C   UNL     1      68.265 218.889 328.098  0.00  0.00    +0.000 A 
ATOM     20  C   UNL     1      70.300 219.785 329.024  0.00  0.00    +0.000 A 
ATOM     21  C   UNL     1      71.028 218.778 328.390  0.00  0.00    +0.000 A 
ATOM     22  C   UNL     1      68.972 217.854 327.469  0.00  0.00    +0.000 A 
ATOM     23  C   UNL     1      70.358 217.810 327.622  0.00  0.00    +0.000 A 
BRANCH  21  24
ATOM     24  O   UNL     1      72.394 218.623 328.449  0.00  0.00    +0.000 OA
ATOM     25  C   UNL     1      72.979 218.671 329.747  0.00  0.00    +0.000 C 
ENDBRANCH  21  24
BRANCH  22  26
ATOM     26  O   UNL     1      68.162 217.011 326.757  0.00  0.00    +0.000 OA
ATOM     27  C   UNL     1      67.658 215.858 327.414  0.00  0.00    +0.000 C 
ENDBRANCH  22  26
BRANCH  23  28
ATOM     28  O   UNL     1      71.125 216.839 327.028  0.00  0.00    +0.000 OA
ATOM     29  H   UNL     1      71.550 216.365 327.769  0.00  0.00    +0.000 HD
ENDBRANCH  23  28
ENDBRANCH   8  18
BRANCH   7  30
ATOM     30  O   UNL     1      64.725 222.671 329.178  0.00  0.00    +0.000 OA
BRANCH  30  34
ATOM     31  O   UNL     1      62.810 221.713 328.239  0.00  0.00    +0.000 OA
ATOM     32  O   UNL     1      59.742 223.179 326.837  0.00  0.00    +0.000 OA
ATOM     33  O   UNL     1      59.470 220.836 326.975  0.00  0.00    +0.000 OA
ATOM     34  C   UNL     1      63.312 222.820 328.990  0.00  0.00    +0.000 C 
ATOM     35  C   UNL     1      63.096 224.166 328.262  0.00  0.00    +0.000 C 
ATOM     36  C   UNL     1      61.142 223.071 327.113  0.00  0.00    +0.000 C 
ATOM     37  C   UNL     1      61.633 224.332 327.826  0.00  0.00    +0.000 C 
ATOM     38  C   UNL     1      61.413 221.854 327.993  0.00  0.00    +0.000 C 
ATOM     39  C   UNL     1      60.851 220.632 327.273  0.00  0.00    +0.000 C 
ATOM     40  C   UNL     1      59.274 222.001 326.174  0.00  0.00    +0.000 C 
ATOM     41  C   UNL     1      57.784 222.160 325.933  0.00  0.00    +0.000 C 
BRANCH  35  42
ATOM     42  O   UNL     1      63.472 225.242 329.139  0.00  0.00    +0.000 OA
ATOM     43  H   UNL     1      62.687 225.426 329.690  0.00  0.00    +0.000 HD
ENDBRANCH  35  42
BRANCH  37  44
ATOM     44  O   UNL     1      61.507 225.442 326.923  0.00  0.00    +0.000 OA
ATOM     45  H   UNL     1      61.817 225.119 326.056  0.00  0.00    +0.000 HD
ENDBRANCH  37  44
ENDBRANCH  30  34
ENDBRANCH   7  30
TORSDOF 8
ENDMDL
