MODEL 1
REMARK VINA RESULT:      -6.4      0.000      0.000
REMARK  Name = Foretinib.pdbqt.pdb
REMARK  11 active torsions:
REMARK  status: ('A' for Active; 'I' for Inactive)
REMARK    1  A    between atoms: C_2  and  N_31
REMARK    2  A    between atoms: C_7  and  O_8
REMARK    3  A    between atoms: O_8  and  C_9
REMARK    4  A    between atoms: C_17  and  O_19
REMARK    5  A    between atoms: C_18  and  O_29
REMARK    6  A    between atoms: O_19  and  C_20
REMARK    7  A    between atoms: C_21  and  C_22
REMARK    8  A    between atoms: C_22  and  N_23
REMARK    9  A    between atoms: C_32  and  C_35
REMARK   10  A    between atoms: C_35  and  C_38
REMARK   11  A    between atoms: N_40  and  C_42
REMARK                            x       y       z     vdW  Elec       q    Type
REMARK                         _______ _______ _______ _____ _____    ______ ____
ROOT
ATOM      1  F   UNL     1      70.653 220.145 335.250  0.00  0.00    +0.000 F 
ATOM      2  C   UNL     1      72.347 222.891 336.910  0.00  0.00    +0.000 A 
ATOM      3  C   UNL     1      72.130 221.751 336.135  0.00  0.00    +0.000 A 
ATOM      4  C   UNL     1      71.262 223.528 337.517  0.00  0.00    +0.000 A 
ATOM      5  C   UNL     1      70.839 221.262 335.970  0.00  0.00    +0.000 A 
ATOM      6  C   UNL     1      69.969 223.036 337.351  0.00  0.00    +0.000 A 
ATOM      7  C   UNL     1      69.753 221.914 336.555  0.00  0.00    +0.000 A 
ENDROOT
BRANCH   2   8
ATOM      8  N   UNL     1      73.626 223.439 337.120  0.00  0.00    +0.000 N 
ATOM      9  C   UNL     1      74.216 224.425 336.346  0.00  0.00    +0.000 C 
ATOM     10  O   UNL     1      73.731 224.950 335.351  0.00  0.00    +0.000 OA
ATOM     11  H   UNL     1      74.172 223.045 337.881  0.00  0.00    +0.000 HD
BRANCH   9  12
ATOM     12  C   UNL     1      75.600 224.811 336.777  0.00  0.00    +0.000 C 
ATOM     13  C   UNL     1      76.553 225.190 335.740  0.00  0.00    +0.000 C 
ATOM     14  C   UNL     1      76.686 223.892 336.453  0.00  0.00    +0.000 C 
BRANCH  12  15
ATOM     15  C   UNL     1      75.667 225.556 338.076  0.00  0.00    +0.000 C 
ATOM     16  O   UNL     1      74.631 225.749 338.701  0.00  0.00    +0.000 OA
ATOM     17  N   UNL     1      76.944 225.917 338.473  0.00  0.00    +0.000 N 
ATOM     18  H   UNL     1      77.721 225.642 337.881  0.00  0.00    +0.000 HD
BRANCH  17  19
ATOM     19  C   UNL     1      77.266 226.607 339.656  0.00  0.00    +0.000 A 
ATOM     20  C   UNL     1      77.475 227.985 339.567  0.00  0.00    +0.000 A 
ATOM     21  C   UNL     1      77.797 228.725 340.702  0.00  0.00    +0.000 A 
ATOM     22  C   UNL     1      77.907 228.077 341.927  0.00  0.00    +0.000 A 
ATOM     23  F   UNL     1      78.215 228.786 343.021  0.00  0.00    +0.000 F 
ATOM     24  C   UNL     1      77.701 226.706 342.035  0.00  0.00    +0.000 A 
ATOM     25  C   UNL     1      77.380 225.975 340.895  0.00  0.00    +0.000 A 
ENDBRANCH  17  19
ENDBRANCH  12  15
ENDBRANCH   9  12
ENDBRANCH   2   8
BRANCH   7  26
ATOM     26  O   UNL     1      68.468 221.436 336.480  0.00  0.00    +0.000 OA
BRANCH  26  27
ATOM     27  C   UNL     1      68.128 220.403 337.331  0.00  0.00    +0.000 A 
ATOM     28  C   UNL     1      67.087 219.543 336.945  0.00  0.00    +0.000 A 
ATOM     29  C   UNL     1      66.785 218.460 337.788  0.00  0.00    +0.000 A 
ATOM     30  C   UNL     1      66.350 219.735 335.766  0.00  0.00    +0.000 A 
ATOM     31  N   UNL     1      67.459 218.225 338.925  0.00  0.00    +0.000 NA
ATOM     32  C   UNL     1      65.753 217.612 337.416  0.00  0.00    +0.000 A 
ATOM     33  C   UNL     1      68.463 219.068 339.255  0.00  0.00    +0.000 A 
ATOM     34  C   UNL     1      68.844 220.156 338.498  0.00  0.00    +0.000 A 
ATOM     35  C   UNL     1      65.014 217.797 336.240  0.00  0.00    +0.000 A 
ATOM     36  C   UNL     1      65.314 218.873 335.403  0.00  0.00    +0.000 A 
BRANCH  36  37
ATOM     37  O   UNL     1      64.556 219.015 334.266  0.00  0.00    +0.000 OA
ATOM     38  C   UNL     1      65.110 219.823 333.263  0.00  0.00    +0.000 C 
ENDBRANCH  36  37
BRANCH  35  39
ATOM     39  O   UNL     1      63.985 216.968 335.858  0.00  0.00    +0.000 OA
BRANCH  39  40
ATOM     40  C   UNL     1      62.836 217.165 336.501  0.00  0.00    +0.000 C 
ATOM     41  C   UNL     1      61.523 217.398 337.256  0.00  0.00    +0.000 C 
BRANCH  41  42
ATOM     42  C   UNL     1      60.211 217.637 338.011  0.00  0.00    +0.000 C 
BRANCH  42  43
ATOM     43  N   UNL     1      58.965 217.866 338.729  0.00  0.00    +0.000 N 
ATOM     44  C   UNL     1      58.311 219.049 338.092  0.00  0.00    +0.000 C 
ATOM     45  C   UNL     1      57.019 219.101 337.215  0.00  0.00    +0.000 C 
ATOM     46  O   UNL     1      56.136 218.181 336.768  0.00  0.00    +0.000 OA
ATOM     47  C   UNL     1      56.728 217.112 337.337  0.00  0.00    +0.000 C 
ATOM     48  C   UNL     1      57.986 216.858 338.224  0.00  0.00    +0.000 C 
ENDBRANCH  42  43
ENDBRANCH  41  42
ENDBRANCH  39  40
ENDBRANCH  35  39
ENDBRANCH  26  27
ENDBRANCH   7  26
TORSDOF 11
ENDMDL
MODEL 2
REMARK VINA RESULT:      -6.4     27.900     31.243
REMARK  Name = Foretinib.pdbqt.pdb
REMARK  11 active torsions:
REMARK  status: ('A' for Active; 'I' for Inactive)
REMARK    1  A    between atoms: C_2  and  N_31
REMARK    2  A    between atoms: C_7  and  O_8
REMARK    3  A    between atoms: O_8  and  C_9
REMARK    4  A    between atoms: C_17  and  O_19
REMARK    5  A    between atoms: C_18  and  O_29
REMARK    6  A    between atoms: O_19  and  C_20
REMARK    7  A    between atoms: C_21  and  C_22
REMARK    8  A    between atoms: C_22  and  N_23
REMARK    9  A    between atoms: C_32  and  C_35
REMARK   10  A    between atoms: C_35  and  C_38
REMARK   11  A    between atoms: N_40  and  C_42
REMARK                            x       y       z     vdW  Elec       q    Type
REMARK                         _______ _______ _______ _____ _____    ______ ____
ROOT
ATOM      1  F   UNL     1      53.672 242.791 322.633  0.00  0.00    +0.000 F 
ATOM      2  C   UNL     1      52.569 239.952 320.662  0.00  0.00    +0.000 A 
ATOM      3  C   UNL     1      53.404 240.883 321.279  0.00  0.00    +0.000 A 
ATOM      4  C   UNL     1      51.187 240.036 320.847  0.00  0.00    +0.000 A 
ATOM      5  C   UNL     1      52.857 241.884 322.076  0.00  0.00    +0.000 A 
ATOM      6  C   UNL     1      50.640 241.040 321.645  0.00  0.00    +0.000 A 
ATOM      7  C   UNL     1      51.479 241.952 322.280  0.00  0.00    +0.000 A 
ENDROOT
BRANCH   2   8
ATOM      8  N   UNL     1      53.055 238.916 319.843  0.00  0.00    +0.000 N 
ATOM      9  C   UNL     1      53.477 239.059 318.531  0.00  0.00    +0.000 C 
ATOM     10  O   UNL     1      53.468 240.094 317.877  0.00  0.00    +0.000 OA
ATOM     11  H   UNL     1      53.056 237.981 320.241  0.00  0.00    +0.000 HD
BRANCH   9  12
ATOM     12  C   UNL     1      53.926 237.785 317.878  0.00  0.00    +0.000 C 
ATOM     13  C   UNL     1      53.172 237.311 316.723  0.00  0.00    +0.000 C 
ATOM     14  C   UNL     1      53.071 236.613 318.031  0.00  0.00    +0.000 C 
BRANCH  12  15
ATOM     15  C   UNL     1      55.412 237.580 317.860  0.00  0.00    +0.000 C 
ATOM     16  O   UNL     1      55.859 236.543 317.382  0.00  0.00    +0.000 OA
ATOM     17  N   UNL     1      56.151 238.641 318.355  0.00  0.00    +0.000 N 
ATOM     18  H   UNL     1      55.648 239.465 318.669  0.00  0.00    +0.000 HD
BRANCH  17  19
ATOM     19  C   UNL     1      57.555 238.693 318.430  0.00  0.00    +0.000 A 
ATOM     20  C   UNL     1      58.230 239.435 317.458  0.00  0.00    +0.000 A 
ATOM     21  C   UNL     1      59.620 239.525 317.478  0.00  0.00    +0.000 A 
ATOM     22  C   UNL     1      60.329 238.869 318.478  0.00  0.00    +0.000 A 
ATOM     23  F   UNL     1      61.665 238.956 318.501  0.00  0.00    +0.000 F 
ATOM     24  C   UNL     1      59.674 238.128 319.455  0.00  0.00    +0.000 A 
ATOM     25  C   UNL     1      58.285 238.042 319.427  0.00  0.00    +0.000 A 
ENDBRANCH  17  19
ENDBRANCH  12  15
ENDBRANCH   9  12
ENDBRANCH   2   8
BRANCH   7  26
ATOM     26  O   UNL     1      50.881 242.957 323.001  0.00  0.00    +0.000 OA
BRANCH  26  27
ATOM     27  C   UNL     1      50.717 242.750 324.356  0.00  0.00    +0.000 A 
ATOM     28  C   UNL     1      51.354 243.634 325.241  0.00  0.00    +0.000 A 
ATOM     29  C   UNL     1      51.137 243.452 326.618  0.00  0.00    +0.000 A 
ATOM     30  C   UNL     1      52.192 244.669 324.799  0.00  0.00    +0.000 A 
ATOM     31  N   UNL     1      50.342 242.482 327.098  0.00  0.00    +0.000 NA
ATOM     32  C   UNL     1      51.770 244.317 327.498  0.00  0.00    +0.000 A 
ATOM     33  C   UNL     1      49.736 241.661 326.212  0.00  0.00    +0.000 A 
ATOM     34  C   UNL     1      49.878 241.754 324.843  0.00  0.00    +0.000 A 
ATOM     35  C   UNL     1      52.606 245.354 327.063  0.00  0.00    +0.000 A 
ATOM     36  C   UNL     1      52.822 245.533 325.696  0.00  0.00    +0.000 A 
BRANCH  36  37
ATOM     37  O   UNL     1      53.657 246.559 325.321  0.00  0.00    +0.000 OA
ATOM     38  C   UNL     1      54.006 246.592 323.964  0.00  0.00    +0.000 C 
ENDBRANCH  36  37
BRANCH  35  39
ATOM     39  O   UNL     1      53.245 246.217 327.922  0.00  0.00    +0.000 OA
BRANCH  39  40
ATOM     40  C   UNL     1      52.488 246.694 328.907  0.00  0.00    +0.000 C 
ATOM     41  C   UNL     1      51.605 247.251 330.029  0.00  0.00    +0.000 C 
BRANCH  41  42
ATOM     42  C   UNL     1      50.716 247.805 331.148  0.00  0.00    +0.000 C 
BRANCH  42  43
ATOM     43  N   UNL     1      49.871 248.332 332.211  0.00  0.00    +0.000 N 
ATOM     44  C   UNL     1      48.542 247.661 332.076  0.00  0.00    +0.000 C 
ATOM     45  C   UNL     1      47.882 246.597 333.012  0.00  0.00    +0.000 C 
ATOM     46  O   UNL     1      48.253 245.972 334.151  0.00  0.00    +0.000 OA
ATOM     47  C   UNL     1      49.454 246.572 334.270  0.00  0.00    +0.000 C 
ATOM     48  C   UNL     1      50.272 247.630 333.467  0.00  0.00    +0.000 C 
ENDBRANCH  42  43
ENDBRANCH  41  42
ENDBRANCH  39  40
ENDBRANCH  35  39
ENDBRANCH  26  27
ENDBRANCH   7  26
TORSDOF 11
ENDMDL
MODEL 3
REMARK VINA RESULT:      -6.4     13.349     19.157
REMARK  Name = Foretinib.pdbqt.pdb
REMARK  11 active torsions:
REMARK  status: ('A' for Active; 'I' for Inactive)
REMARK    1  A    between atoms: C_2  and  N_31
REMARK    2  A    between atoms: C_7  and  O_8
REMARK    3  A    between atoms: O_8  and  C_9
REMARK    4  A    between atoms: C_17  and  O_19
REMARK    5  A    between atoms: C_18  and  O_29
REMARK    6  A    between atoms: O_19  and  C_20
REMARK    7  A    between atoms: C_21  and  C_22
REMARK    8  A    between atoms: C_22  and  N_23
REMARK    9  A    between atoms: C_32  and  C_35
REMARK   10  A    between atoms: C_35  and  C_38
REMARK   11  A    between atoms: N_40  and  C_42
REMARK                            x       y       z     vdW  Elec       q    Type
REMARK                         _______ _______ _______ _____ _____    ______ ____
ROOT
ATOM      1  F   UNL     1      51.646 215.599 332.281  0.00  0.00    +0.000 F 
ATOM      2  C   UNL     1      54.626 217.630 332.677  0.00  0.00    +0.000 A 
ATOM      3  C   UNL     1      53.770 216.528 332.691  0.00  0.00    +0.000 A 
ATOM      4  C   UNL     1      54.160 218.858 332.202  0.00  0.00    +0.000 A 
ATOM      5  C   UNL     1      52.464 216.660 332.229  0.00  0.00    +0.000 A 
ATOM      6  C   UNL     1      52.852 218.989 331.740  0.00  0.00    +0.000 A 
ATOM      7  C   UNL     1      52.009 217.880 331.731  0.00  0.00    +0.000 A 
ENDROOT
BRANCH   2   8
ATOM      8  N   UNL     1      55.957 217.568 333.130  0.00  0.00    +0.000 N 
ATOM      9  C   UNL     1      56.350 217.320 334.435  0.00  0.00    +0.000 C 
ATOM     10  O   UNL     1      55.609 217.143 335.393  0.00  0.00    +0.000 OA
ATOM     11  H   UNL     1      56.682 217.762 332.445  0.00  0.00    +0.000 HD
BRANCH   9  12
ATOM     12  C   UNL     1      57.835 217.333 334.650  0.00  0.00    +0.000 C 
ATOM     13  C   UNL     1      58.691 217.448 333.475  0.00  0.00    +0.000 C 
ATOM     14  C   UNL     1      58.589 216.163 334.213  0.00  0.00    +0.000 C 
BRANCH  12  15
ATOM     15  C   UNL     1      58.282 218.037 335.896  0.00  0.00    +0.000 C 
ATOM     16  O   UNL     1      59.050 218.988 335.795  0.00  0.00    +0.000 OA
ATOM     17  N   UNL     1      57.723 217.557 337.068  0.00  0.00    +0.000 N 
ATOM     18  H   UNL     1      57.055 216.795 336.998  0.00  0.00    +0.000 HD
BRANCH  17  19
ATOM     19  C   UNL     1      57.974 218.058 338.358  0.00  0.00    +0.000 A 
ATOM     20  C   UNL     1      57.843 217.178 339.434  0.00  0.00    +0.000 A 
ATOM     21  C   UNL     1      58.077 217.615 340.736  0.00  0.00    +0.000 A 
ATOM     22  C   UNL     1      58.444 218.938 340.953  0.00  0.00    +0.000 A 
ATOM     23  F   UNL     1      58.673 219.361 342.204  0.00  0.00    +0.000 F 
ATOM     24  C   UNL     1      58.582 219.828 339.894  0.00  0.00    +0.000 A 
ATOM     25  C   UNL     1      58.344 219.383 338.596  0.00  0.00    +0.000 A 
ENDBRANCH  17  19
ENDBRANCH  12  15
ENDBRANCH   9  12
ENDBRANCH   2   8
BRANCH   7  26
ATOM     26  O   UNL     1      50.712 218.083 331.326  0.00  0.00    +0.000 OA
BRANCH  26  27
ATOM     27  C   UNL     1      49.860 218.700 332.221  0.00  0.00    +0.000 A 
ATOM     28  C   UNL     1      48.822 219.492 331.707  0.00  0.00    +0.000 A 
ATOM     29  C   UNL     1      47.925 220.071 332.621  0.00  0.00    +0.000 A 
ATOM     30  C   UNL     1      48.660 219.723 330.332  0.00  0.00    +0.000 A 
ATOM     31  N   UNL     1      48.027 219.880 333.946  0.00  0.00    +0.000 NA
ATOM     32  C   UNL     1      46.901 220.860 332.119  0.00  0.00    +0.000 A 
ATOM     33  C   UNL     1      49.033 219.100 334.400  0.00  0.00    +0.000 A 
ATOM     34  C   UNL     1      49.964 218.483 333.590  0.00  0.00    +0.000 A 
ATOM     35  C   UNL     1      46.733 221.094 330.748  0.00  0.00    +0.000 A 
ATOM     36  C   UNL     1      47.625 220.519 329.841  0.00  0.00    +0.000 A 
BRANCH  36  37
ATOM     37  O   UNL     1      47.422 220.785 328.507  0.00  0.00    +0.000 OA
ATOM     38  C   UNL     1      47.102 219.677 327.710  0.00  0.00    +0.000 C 
ENDBRANCH  36  37
BRANCH  35  39
ATOM     39  O   UNL     1      45.727 221.877 330.234  0.00  0.00    +0.000 OA
BRANCH  39  40
ATOM     40  C   UNL     1      45.265 222.813 331.060  0.00  0.00    +0.000 C 
ATOM     41  C   UNL     1      44.726 223.899 331.998  0.00  0.00    +0.000 C 
BRANCH  41  42
ATOM     42  C   UNL     1      44.181 224.985 332.932  0.00  0.00    +0.000 C 
BRANCH  42  43
ATOM     43  N   UNL     1      43.663 226.017 333.819  0.00  0.00    +0.000 N 
ATOM     44  C   UNL     1      43.578 225.410 335.183  0.00  0.00    +0.000 C 
ATOM     45  C   UNL     1      44.443 225.718 336.448  0.00  0.00    +0.000 C 
ATOM     46  O   UNL     1      45.471 226.553 336.717  0.00  0.00    +0.000 OA
ATOM     47  C   UNL     1      45.552 227.096 335.485  0.00  0.00    +0.000 C 
ATOM     48  C   UNL     1      44.804 226.931 334.128  0.00  0.00    +0.000 C 
ENDBRANCH  42  43
ENDBRANCH  41  42
ENDBRANCH  39  40
ENDBRANCH  35  39
ENDBRANCH  26  27
ENDBRANCH   7  26
TORSDOF 11
ENDMDL
MODEL 4
REMARK VINA RESULT:      -6.3     23.229     27.466
REMARK  Name = Foretinib.pdbqt.pdb
REMARK  11 active torsions:
REMARK  status: ('A' for Active; 'I' for Inactive)
REMARK    1  A    between atoms: C_2  and  N_31
REMARK    2  A    between atoms: C_7  and  O_8
REMARK    3  A    between atoms: O_8  and  C_9
REMARK    4  A    between atoms: C_17  and  O_19
REMARK    5  A    between atoms: C_18  and  O_29
REMARK    6  A    between atoms: O_19  and  C_20
REMARK    7  A    between atoms: C_21  and  C_22
REMARK    8  A    between atoms: C_22  and  N_23
REMARK    9  A    between atoms: C_32  and  C_35
REMARK   10  A    between atoms: C_35  and  C_38
REMARK   11  A    between atoms: N_40  and  C_42
REMARK                            x       y       z     vdW  Elec       q    Type
REMARK                         _______ _______ _______ _____ _____    ______ ____
ROOT
ATOM      1  F   UNL     1      57.224 234.741 315.673  0.00  0.00    +0.000 F 
ATOM      2  C   UNL     1      56.070 232.070 317.840  0.00  0.00    +0.000 A 
ATOM      3  C   UNL     1      56.850 232.788 316.933  0.00  0.00    +0.000 A 
ATOM      4  C   UNL     1      54.920 232.656 318.373  0.00  0.00    +0.000 A 
ATOM      5  C   UNL     1      56.481 234.079 316.571  0.00  0.00    +0.000 A 
ATOM      6  C   UNL     1      54.549 233.949 318.009  0.00  0.00    +0.000 A 
ATOM      7  C   UNL     1      55.346 234.672 317.125  0.00  0.00    +0.000 A 
ENDROOT
BRANCH   2   8
ATOM      8  N   UNL     1      56.385 230.761 318.248  0.00  0.00    +0.000 N 
ATOM      9  C   UNL     1      55.833 229.602 317.727  0.00  0.00    +0.000 C 
ATOM     10  O   UNL     1      54.974 229.537 316.857  0.00  0.00    +0.000 OA
ATOM     11  H   UNL     1      57.043 230.668 319.017  0.00  0.00    +0.000 HD
BRANCH   9  12
ATOM     12  C   UNL     1      56.329 228.336 318.361  0.00  0.00    +0.000 C 
ATOM     13  C   UNL     1      55.847 227.070 317.818  0.00  0.00    +0.000 C 
ATOM     14  C   UNL     1      55.374 227.555 319.141  0.00  0.00    +0.000 C 
BRANCH  12  15
ATOM     15  C   UNL     1      57.753 228.384 318.829  0.00  0.00    +0.000 C 
ATOM     16  O   UNL     1      58.635 228.625 318.013  0.00  0.00    +0.000 OA
ATOM     17  N   UNL     1      57.924 228.195 320.190  0.00  0.00    +0.000 N 
ATOM     18  H   UNL     1      57.094 228.060 320.759  0.00  0.00    +0.000 HD
BRANCH  17  19
ATOM     19  C   UNL     1      59.156 228.210 320.867  0.00  0.00    +0.000 A 
ATOM     20  C   UNL     1      59.607 229.432 321.370  0.00  0.00    +0.000 A 
ATOM     21  C   UNL     1      60.820 229.512 322.050  0.00  0.00    +0.000 A 
ATOM     22  C   UNL     1      61.578 228.360 322.225  0.00  0.00    +0.000 A 
ATOM     23  F   UNL     1      62.744 228.433 322.881  0.00  0.00    +0.000 F 
ATOM     24  C   UNL     1      61.145 227.134 321.733  0.00  0.00    +0.000 A 
ATOM     25  C   UNL     1      59.932 227.064 321.054  0.00  0.00    +0.000 A 
ENDBRANCH  17  19
ENDBRANCH  12  15
ENDBRANCH   9  12
ENDBRANCH   2   8
BRANCH   7  26
ATOM     26  O   UNL     1      54.898 235.916 316.752  0.00  0.00    +0.000 OA
BRANCH  26  27
ATOM     27  C   UNL     1      55.081 236.948 317.652  0.00  0.00    +0.000 A 
ATOM     28  C   UNL     1      53.942 237.565 318.191  0.00  0.00    +0.000 A 
ATOM     29  C   UNL     1      54.135 238.576 319.149  0.00  0.00    +0.000 A 
ATOM     30  C   UNL     1      52.639 237.212 317.804  0.00  0.00    +0.000 A 
ATOM     31  N   UNL     1      55.356 238.951 319.560  0.00  0.00    +0.000 NA
ATOM     32  C   UNL     1      53.013 239.194 319.680  0.00  0.00    +0.000 A 
ATOM     33  C   UNL     1      56.428 238.323 319.026  0.00  0.00    +0.000 A 
ATOM     34  C   UNL     1      56.350 237.318 318.085  0.00  0.00    +0.000 A 
ATOM     35  C   UNL     1      51.711 238.846 319.299  0.00  0.00    +0.000 A 
ATOM     36  C   UNL     1      51.519 237.843 318.348  0.00  0.00    +0.000 A 
BRANCH  36  37
ATOM     37  O   UNL     1      50.222 237.543 318.003  0.00  0.00    +0.000 OA
ATOM     38  C   UNL     1      49.755 236.292 318.429  0.00  0.00    +0.000 C 
ENDBRANCH  36  37
BRANCH  35  39
ATOM     39  O   UNL     1      50.588 239.452 319.812  0.00  0.00    +0.000 OA
BRANCH  39  40
ATOM     40  C   UNL     1      50.173 238.971 320.982  0.00  0.00    +0.000 C 
ATOM     41  C   UNL     1      49.688 238.404 322.321  0.00  0.00    +0.000 C 
BRANCH  41  42
ATOM     42  C   UNL     1      49.203 237.831 323.657  0.00  0.00    +0.000 C 
BRANCH  42  43
ATOM     43  N   UNL     1      48.745 237.287 324.927  0.00  0.00    +0.000 N 
ATOM     44  C   UNL     1      48.147 238.423 325.692  0.00  0.00    +0.000 C 
ATOM     45  C   UNL     1      46.646 238.687 326.044  0.00  0.00    +0.000 C 
ATOM     46  O   UNL     1      45.485 238.043 325.796  0.00  0.00    +0.000 OA
ATOM     47  C   UNL     1      46.023 237.020 325.101  0.00  0.00    +0.000 C 
ATOM     48  C   UNL     1      47.453 236.588 324.655  0.00  0.00    +0.000 C 
ENDBRANCH  42  43
ENDBRANCH  41  42
ENDBRANCH  39  40
ENDBRANCH  35  39
ENDBRANCH  26  27
ENDBRANCH   7  26
TORSDOF 11
ENDMDL
MODEL 5
REMARK VINA RESULT:      -6.3      4.615     16.038
REMARK  Name = Foretinib.pdbqt.pdb
REMARK  11 active torsions:
REMARK  status: ('A' for Active; 'I' for Inactive)
REMARK    1  A    between atoms: C_2  and  N_31
REMARK    2  A    between atoms: C_7  and  O_8
REMARK    3  A    between atoms: O_8  and  C_9
REMARK    4  A    between atoms: C_17  and  O_19
REMARK    5  A    between atoms: C_18  and  O_29
REMARK    6  A    between atoms: O_19  and  C_20
REMARK    7  A    between atoms: C_21  and  C_22
REMARK    8  A    between atoms: C_22  and  N_23
REMARK    9  A    between atoms: C_32  and  C_35
REMARK   10  A    between atoms: C_35  and  C_38
REMARK   11  A    between atoms: N_40  and  C_42
REMARK                            x       y       z     vdW  Elec       q    Type
REMARK                         _______ _______ _______ _____ _____    ______ ____
ROOT
ATOM      1  F   UNL     1      63.505 215.682 333.784  0.00  0.00    +0.000 F 
ATOM      2  C   UNL     1      60.697 216.666 335.861  0.00  0.00    +0.000 A 
ATOM      3  C   UNL     1      61.428 216.158 334.787  0.00  0.00    +0.000 A 
ATOM      4  C   UNL     1      61.371 217.161 336.980  0.00  0.00    +0.000 A 
ATOM      5  C   UNL     1      62.818 216.144 334.840  0.00  0.00    +0.000 A 
ATOM      6  C   UNL     1      62.764 217.148 337.032  0.00  0.00    +0.000 A 
ATOM      7  C   UNL     1      63.489 216.615 335.969  0.00  0.00    +0.000 A 
ENDROOT
BRANCH   2   8
ATOM      8  N   UNL     1      59.291 216.712 335.873  0.00  0.00    +0.000 N 
ATOM      9  C   UNL     1      58.522 217.843 335.654  0.00  0.00    +0.000 C 
ATOM     10  O   UNL     1      58.941 218.974 335.444  0.00  0.00    +0.000 OA
ATOM     11  H   UNL     1      58.808 215.848 336.102  0.00  0.00    +0.000 HD
BRANCH   9  12
ATOM     12  C   UNL     1      57.041 217.617 335.748  0.00  0.00    +0.000 C 
ATOM     13  C   UNL     1      56.458 217.479 337.079  0.00  0.00    +0.000 C 
ATOM     14  C   UNL     1      56.588 216.300 336.183  0.00  0.00    +0.000 C 
BRANCH  12  15
ATOM     15  C   UNL     1      56.229 218.339 334.715  0.00  0.00    +0.000 C 
ATOM     16  O   UNL     1      55.877 219.492 334.940  0.00  0.00    +0.000 OA
ATOM     17  N   UNL     1      55.997 217.622 333.554  0.00  0.00    +0.000 N 
ATOM     18  H   UNL     1      56.398 216.692 333.481  0.00  0.00    +0.000 HD
BRANCH  17  19
ATOM     19  C   UNL     1      55.277 218.086 332.438  0.00  0.00    +0.000 A 
ATOM     20  C   UNL     1      55.816 217.848 331.172  0.00  0.00    +0.000 A 
ATOM     21  C   UNL     1      55.150 218.283 330.028  0.00  0.00    +0.000 A 
ATOM     22  C   UNL     1      53.941 218.957 330.160  0.00  0.00    +0.000 A 
ATOM     23  F   UNL     1      53.298 219.374 329.062  0.00  0.00    +0.000 F 
ATOM     24  C   UNL     1      53.388 219.201 331.412  0.00  0.00    +0.000 A 
ATOM     25  C   UNL     1      54.061 218.764 332.550  0.00  0.00    +0.000 A 
ENDBRANCH  17  19
ENDBRANCH  12  15
ENDBRANCH   9  12
ENDBRANCH   2   8
BRANCH   7  26
ATOM     26  O   UNL     1      64.858 216.687 336.046  0.00  0.00    +0.000 OA
BRANCH  26  27
ATOM     27  C   UNL     1      65.427 217.945 336.017  0.00  0.00    +0.000 A 
ATOM     28  C   UNL     1      66.258 218.320 337.084  0.00  0.00    +0.000 A 
ATOM     29  C   UNL     1      66.879 219.579 337.020  0.00  0.00    +0.000 A 
ATOM     30  C   UNL     1      66.478 217.491 338.195  0.00  0.00    +0.000 A 
ATOM     31  N   UNL     1      66.710 220.411 335.980  0.00  0.00    +0.000 NA
ATOM     32  C   UNL     1      67.696 219.958 338.075  0.00  0.00    +0.000 A 
ATOM     33  C   UNL     1      65.912 220.008 334.966  0.00  0.00    +0.000 A 
ATOM     34  C   UNL     1      65.260 218.793 334.927  0.00  0.00    +0.000 A 
ATOM     35  C   UNL     1      67.920 219.135 339.186  0.00  0.00    +0.000 A 
ATOM     36  C   UNL     1      67.303 217.885 339.249  0.00  0.00    +0.000 A 
BRANCH  36  37
ATOM     37  O   UNL     1      67.549 217.119 340.364  0.00  0.00    +0.000 OA
ATOM     38  C   UNL     1      66.419 216.568 340.983  0.00  0.00    +0.000 C 
ENDBRANCH  36  37
BRANCH  35  39
ATOM     39  O   UNL     1      68.723 219.498 340.242  0.00  0.00    +0.000 OA
BRANCH  39  40
ATOM     40  C   UNL     1      69.848 220.125 339.905  0.00  0.00    +0.000 C 
ATOM     41  C   UNL     1      71.146 220.850 339.534  0.00  0.00    +0.000 C 
BRANCH  41  42
ATOM     42  C   UNL     1      72.447 221.571 339.168  0.00  0.00    +0.000 C 
BRANCH  42  43
ATOM     43  N   UNL     1      73.684 222.256 338.819  0.00  0.00    +0.000 N 
ATOM     44  C   UNL     1      73.960 221.942 337.384  0.00  0.00    +0.000 C 
ATOM     45  C   UNL     1      73.888 222.888 336.141  0.00  0.00    +0.000 C 
ATOM     46  O   UNL     1      73.575 224.189 335.955  0.00  0.00    +0.000 OA
ATOM     47  C   UNL     1      73.320 224.472 337.248  0.00  0.00    +0.000 C 
ATOM     48  C   UNL     1      73.334 223.691 338.598  0.00  0.00    +0.000 C 
ENDBRANCH  42  43
ENDBRANCH  41  42
ENDBRANCH  39  40
ENDBRANCH  35  39
ENDBRANCH  26  27
ENDBRANCH   7  26
TORSDOF 11
ENDMDL
MODEL 6
REMARK VINA RESULT:      -6.3     23.955     28.081
REMARK  Name = Foretinib.pdbqt.pdb
REMARK  11 active torsions:
REMARK  status: ('A' for Active; 'I' for Inactive)
REMARK    1  A    between atoms: C_2  and  N_31
REMARK    2  A    between atoms: C_7  and  O_8
REMARK    3  A    between atoms: O_8  and  C_9
REMARK    4  A    between atoms: C_17  and  O_19
REMARK    5  A    between atoms: C_18  and  O_29
REMARK    6  A    between atoms: O_19  and  C_20
REMARK    7  A    between atoms: C_21  and  C_22
REMARK    8  A    between atoms: C_22  and  N_23
REMARK    9  A    between atoms: C_32  and  C_35
REMARK   10  A    between atoms: C_35  and  C_38
REMARK   11  A    between atoms: N_40  and  C_42
REMARK                            x       y       z     vdW  Elec       q    Type
REMARK                         _______ _______ _______ _____ _____    ______ ____
ROOT
ATOM      1  F   UNL     1      56.774 234.830 315.559  0.00  0.00    +0.000 F 
ATOM      2  C   UNL     1      55.951 232.131 317.840  0.00  0.00    +0.000 A 
ATOM      3  C   UNL     1      56.606 232.872 316.855  0.00  0.00    +0.000 A 
ATOM      4  C   UNL     1      54.840 232.677 318.488  0.00  0.00    +0.000 A 
ATOM      5  C   UNL     1      56.153 234.146 316.531  0.00  0.00    +0.000 A 
ATOM      6  C   UNL     1      54.386 233.954 318.161  0.00  0.00    +0.000 A 
ATOM      7  C   UNL     1      55.059 234.700 317.197  0.00  0.00    +0.000 A 
ENDROOT
BRANCH   2   8
ATOM      8  N   UNL     1      56.355 230.837 318.216  0.00  0.00    +0.000 N 
ATOM      9  C   UNL     1      55.918 229.658 317.635  0.00  0.00    +0.000 C 
ATOM     10  O   UNL     1      55.101 229.557 316.729  0.00  0.00    +0.000 OA
ATOM     11  H   UNL     1      56.989 230.769 319.007  0.00  0.00    +0.000 HD
BRANCH   9  12
ATOM     12  C   UNL     1      56.490 228.413 318.246  0.00  0.00    +0.000 C 
ATOM     13  C   UNL     1      56.136 227.134 317.640  0.00  0.00    +0.000 C 
ATOM     14  C   UNL     1      55.573 227.530 318.957  0.00  0.00    +0.000 C 
BRANCH  12  15
ATOM     15  C   UNL     1      57.886 228.558 318.775  0.00  0.00    +0.000 C 
ATOM     16  O   UNL     1      58.775 228.910 318.008  0.00  0.00    +0.000 OA
ATOM     17  N   UNL     1      58.020 228.320 320.132  0.00  0.00    +0.000 N 
ATOM     18  H   UNL     1      57.184 228.090 320.660  0.00  0.00    +0.000 HD
BRANCH  17  19
ATOM     19  C   UNL     1      59.220 228.406 320.861  0.00  0.00    +0.000 A 
ATOM     20  C   UNL     1      59.622 229.668 321.305  0.00  0.00    +0.000 A 
ATOM     21  C   UNL     1      60.801 229.818 322.032  0.00  0.00    +0.000 A 
ATOM     22  C   UNL     1      61.574 228.697 322.312  0.00  0.00    +0.000 A 
ATOM     23  F   UNL     1      62.707 228.838 323.013  0.00  0.00    +0.000 F 
ATOM     24  C   UNL     1      61.189 227.433 321.880  0.00  0.00    +0.000 A 
ATOM     25  C   UNL     1      60.010 227.292 321.154  0.00  0.00    +0.000 A 
ENDBRANCH  17  19
ENDBRANCH  12  15
ENDBRANCH   9  12
ENDBRANCH   2   8
BRANCH   7  26
ATOM     26  O   UNL     1      54.529 235.925 316.870  0.00  0.00    +0.000 OA
BRANCH  26  27
ATOM     27  C   UNL     1      54.782 236.973 317.733  0.00  0.00    +0.000 A 
ATOM     28  C   UNL     1      53.687 237.684 318.247  0.00  0.00    +0.000 A 
ATOM     29  C   UNL     1      53.948 238.712 319.169  0.00  0.00    +0.000 A 
ATOM     30  C   UNL     1      52.363 237.407 317.869  0.00  0.00    +0.000 A 
ATOM     31  N   UNL     1      55.191 239.018 319.571  0.00  0.00    +0.000 NA
ATOM     32  C   UNL     1      52.870 239.423 319.675  0.00  0.00    +0.000 A 
ATOM     33  C   UNL     1      56.218 238.300 319.063  0.00  0.00    +0.000 A 
ATOM     34  C   UNL     1      56.072 237.270 318.157  0.00  0.00    +0.000 A 
ATOM     35  C   UNL     1      51.547 239.151 319.303  0.00  0.00    +0.000 A 
ATOM     36  C   UNL     1      51.289 238.131 318.387  0.00  0.00    +0.000 A 
BRANCH  36  37
ATOM     37  O   UNL     1      49.975 237.908 318.049  0.00  0.00    +0.000 OA
ATOM     38  C   UNL     1      49.477 236.634 318.355  0.00  0.00    +0.000 C 
ENDBRANCH  36  37
BRANCH  35  39
ATOM     39  O   UNL     1      50.468 239.850 319.792  0.00  0.00    +0.000 OA
BRANCH  39  40
ATOM     40  C   UNL     1      50.741 240.676 320.798  0.00  0.00    +0.000 C 
ATOM     41  C   UNL     1      51.061 241.641 321.946  0.00  0.00    +0.000 C 
BRANCH  41  42
ATOM     42  C   UNL     1      51.378 242.610 323.090  0.00  0.00    +0.000 C 
BRANCH  42  43
ATOM     43  N   UNL     1      51.679 243.532 324.176  0.00  0.00    +0.000 N 
ATOM     44  C   UNL     1      50.395 243.777 324.901  0.00  0.00    +0.000 C 
ATOM     45  C   UNL     1      49.971 243.307 326.331  0.00  0.00    +0.000 C 
ATOM     46  O   UNL     1      50.561 242.582 327.306  0.00  0.00    +0.000 OA
ATOM     47  C   UNL     1      51.717 242.355 326.651  0.00  0.00    +0.000 C 
ATOM     48  C   UNL     1      52.317 242.727 325.260  0.00  0.00    +0.000 C 
ENDBRANCH  42  43
ENDBRANCH  41  42
ENDBRANCH  39  40
ENDBRANCH  35  39
ENDBRANCH  26  27
ENDBRANCH   7  26
TORSDOF 11
ENDMDL
MODEL 7
REMARK VINA RESULT:      -6.2     17.882     25.602
REMARK  Name = Foretinib.pdbqt.pdb
REMARK  11 active torsions:
REMARK  status: ('A' for Active; 'I' for Inactive)
REMARK    1  A    between atoms: C_2  and  N_31
REMARK    2  A    between atoms: C_7  and  O_8
REMARK    3  A    between atoms: O_8  and  C_9
REMARK    4  A    between atoms: C_17  and  O_19
REMARK    5  A    between atoms: C_18  and  O_29
REMARK    6  A    between atoms: O_19  and  C_20
REMARK    7  A    between atoms: C_21  and  C_22
REMARK    8  A    between atoms: C_22  and  N_23
REMARK    9  A    between atoms: C_32  and  C_35
REMARK   10  A    between atoms: C_35  and  C_38
REMARK   11  A    between atoms: N_40  and  C_42
REMARK                            x       y       z     vdW  Elec       q    Type
REMARK                         _______ _______ _______ _____ _____    ______ ____
ROOT
ATOM      1  F   UNL     1      51.333 224.130 354.969  0.00  0.00    +0.000 F 
ATOM      2  C   UNL     1      49.711 224.643 351.765  0.00  0.00    +0.000 A 
ATOM      3  C   UNL     1      50.007 224.119 353.023  0.00  0.00    +0.000 A 
ATOM      4  C   UNL     1      50.460 225.713 351.270  0.00  0.00    +0.000 A 
ATOM      5  C   UNL     1      51.041 224.668 353.776  0.00  0.00    +0.000 A 
ATOM      6  C   UNL     1      51.496 226.261 352.024  0.00  0.00    +0.000 A 
ATOM      7  C   UNL     1      51.772 225.753 353.291  0.00  0.00    +0.000 A 
ENDROOT
BRANCH   2   8
ATOM      8  N   UNL     1      48.681 224.136 350.951  0.00  0.00    +0.000 N 
ATOM      9  C   UNL     1      48.842 223.206 349.937  0.00  0.00    +0.000 C 
ATOM     10  O   UNL     1      49.899 222.703 349.578  0.00  0.00    +0.000 OA
ATOM     11  H   UNL     1      47.751 224.520 351.099  0.00  0.00    +0.000 HD
BRANCH   9  12
ATOM     12  C   UNL     1      47.578 222.855 349.208  0.00  0.00    +0.000 C 
ATOM     13  C   UNL     1      46.582 222.060 349.917  0.00  0.00    +0.000 C 
ATOM     14  C   UNL     1      47.389 221.461 348.823  0.00  0.00    +0.000 C 
BRANCH  12  15
ATOM     15  C   UNL     1      47.073 223.920 348.281  0.00  0.00    +0.000 C 
ATOM     16  O   UNL     1      46.629 224.958 348.760  0.00  0.00    +0.000 OA
ATOM     17  N   UNL     1      47.212 223.632 346.934  0.00  0.00    +0.000 N 
ATOM     18  H   UNL     1      47.651 222.753 346.679  0.00  0.00    +0.000 HD
BRANCH  17  19
ATOM     19  C   UNL     1      46.827 224.474 345.875  0.00  0.00    +0.000 A 
ATOM     20  C   UNL     1      45.510 224.938 345.859  0.00  0.00    +0.000 A 
ATOM     21  C   UNL     1      45.069 225.775 344.837  0.00  0.00    +0.000 A 
ATOM     22  C   UNL     1      45.955 226.146 343.832  0.00  0.00    +0.000 A 
ATOM     23  F   UNL     1      45.534 226.953 342.849  0.00  0.00    +0.000 F 
ATOM     24  C   UNL     1      47.270 225.696 343.832  0.00  0.00    +0.000 A 
ATOM     25  C   UNL     1      47.702 224.859 344.857  0.00  0.00    +0.000 A 
ENDBRANCH  17  19
ENDBRANCH  12  15
ENDBRANCH   9  12
ENDBRANCH   2   8
BRANCH   7  26
ATOM     26  O   UNL     1      52.844 226.288 353.962  0.00  0.00    +0.000 OA
BRANCH  26  27
ATOM     27  C   UNL     1      54.099 225.826 353.617  0.00  0.00    +0.000 A 
ATOM     28  C   UNL     1      55.135 226.763 353.483  0.00  0.00    +0.000 A 
ATOM     29  C   UNL     1      56.422 226.280 353.188  0.00  0.00    +0.000 A 
ATOM     30  C   UNL     1      54.925 228.144 353.625  0.00  0.00    +0.000 A 
ATOM     31  N   UNL     1      56.682 224.971 353.046  0.00  0.00    +0.000 NA
ATOM     32  C   UNL     1      57.448 227.202 353.047  0.00  0.00    +0.000 A 
ATOM     33  C   UNL     1      55.659 224.099 353.196  0.00  0.00    +0.000 A 
ATOM     34  C   UNL     1      54.362 224.467 353.489  0.00  0.00    +0.000 A 
ATOM     35  C   UNL     1      57.246 228.581 353.189  0.00  0.00    +0.000 A 
ATOM     36  C   UNL     1      55.968 229.060 353.481  0.00  0.00    +0.000 A 
BRANCH  36  37
ATOM     37  O   UNL     1      55.820 230.422 353.604  0.00  0.00    +0.000 OA
ATOM     38  C   UNL     1      55.024 230.852 354.674  0.00  0.00    +0.000 C 
ENDBRANCH  36  37
BRANCH  35  39
ATOM     39  O   UNL     1      58.251 229.509 353.048  0.00  0.00    +0.000 OA
BRANCH  39  40
ATOM     40  C   UNL     1      59.484 229.029 353.191  0.00  0.00    +0.000 C 
ATOM     41  C   UNL     1      60.897 228.460 353.361  0.00  0.00    +0.000 C 
BRANCH  41  42
ATOM     42  C   UNL     1      62.308 227.886 353.529  0.00  0.00    +0.000 C 
BRANCH  42  43
ATOM     43  N   UNL     1      63.649 227.342 353.689  0.00  0.00    +0.000 N 
ATOM     44  C   UNL     1      63.497 226.012 354.355  0.00  0.00    +0.000 C 
ATOM     45  C   UNL     1      63.729 224.585 353.759  0.00  0.00    +0.000 C 
ATOM     46  O   UNL     1      64.104 224.110 352.551  0.00  0.00    +0.000 OA
ATOM     47  C   UNL     1      64.236 225.309 351.948  0.00  0.00    +0.000 C 
ATOM     48  C   UNL     1      64.057 226.802 352.358  0.00  0.00    +0.000 C 
ENDBRANCH  42  43
ENDBRANCH  41  42
ENDBRANCH  39  40
ENDBRANCH  35  39
ENDBRANCH  26  27
ENDBRANCH   7  26
TORSDOF 11
ENDMDL
MODEL 8
REMARK VINA RESULT:      -6.2     28.327     33.541
REMARK  Name = Foretinib.pdbqt.pdb
REMARK  11 active torsions:
REMARK  status: ('A' for Active; 'I' for Inactive)
REMARK    1  A    between atoms: C_2  and  N_31
REMARK    2  A    between atoms: C_7  and  O_8
REMARK    3  A    between atoms: O_8  and  C_9
REMARK    4  A    between atoms: C_17  and  O_19
REMARK    5  A    between atoms: C_18  and  O_29
REMARK    6  A    between atoms: O_19  and  C_20
REMARK    7  A    between atoms: C_21  and  C_22
REMARK    8  A    between atoms: C_22  and  N_23
REMARK    9  A    between atoms: C_32  and  C_35
REMARK   10  A    between atoms: C_35  and  C_38
REMARK   11  A    between atoms: N_40  and  C_42
REMARK                            x       y       z     vdW  Elec       q    Type
REMARK                         _______ _______ _______ _____ _____    ______ ____
ROOT
ATOM      1  F   UNL     1      52.652 242.447 327.407  0.00  0.00    +0.000 F 
ATOM      2  C   UNL     1      49.943 241.611 325.142  0.00  0.00    +0.000 A 
ATOM      3  C   UNL     1      50.702 241.714 326.308  0.00  0.00    +0.000 A 
ATOM      4  C   UNL     1      50.416 242.182 323.959  0.00  0.00    +0.000 A 
ATOM      5  C   UNL     1      51.920 242.387 326.285  0.00  0.00    +0.000 A 
ATOM      6  C   UNL     1      51.637 242.855 323.936  0.00  0.00    +0.000 A 
ATOM      7  C   UNL     1      52.379 242.979 325.108  0.00  0.00    +0.000 A 
ENDROOT
BRANCH   2   8
ATOM      8  N   UNL     1      48.704 240.944 325.095  0.00  0.00    +0.000 N 
ATOM      9  C   UNL     1      48.523 239.576 325.220  0.00  0.00    +0.000 C 
ATOM     10  O   UNL     1      49.405 238.739 325.364  0.00  0.00    +0.000 OA
ATOM     11  H   UNL     1      47.884 241.516 324.913  0.00  0.00    +0.000 HD
BRANCH   9  12
ATOM     12  C   UNL     1      47.096 239.125 325.108  0.00  0.00    +0.000 C 
ATOM     13  C   UNL     1      46.200 239.908 324.264  0.00  0.00    +0.000 C 
ATOM     14  C   UNL     1      46.077 239.951 325.745  0.00  0.00    +0.000 C 
BRANCH  12  15
ATOM     15  C   UNL     1      46.907 237.637 325.114  0.00  0.00    +0.000 C 
ATOM     16  O   UNL     1      46.118 237.146 325.913  0.00  0.00    +0.000 OA
ATOM     17  N   UNL     1      47.630 236.955 324.150  0.00  0.00    +0.000 N 
ATOM     18  H   UNL     1      48.205 237.499 323.515  0.00  0.00    +0.000 HD
BRANCH  17  19
ATOM     19  C   UNL     1      47.610 235.563 323.948  0.00  0.00    +0.000 A 
ATOM     20  C   UNL     1      48.802 234.862 324.141  0.00  0.00    +0.000 A 
ATOM     21  C   UNL     1      48.847 233.482 323.956  0.00  0.00    +0.000 A 
ATOM     22  C   UNL     1      47.690 232.809 323.577  0.00  0.00    +0.000 A 
ATOM     23  F   UNL     1      47.730 231.482 323.401  0.00  0.00    +0.000 F 
ATOM     24  C   UNL     1      46.494 233.490 323.383  0.00  0.00    +0.000 A 
ATOM     25  C   UNL     1      46.459 234.870 323.569  0.00  0.00    +0.000 A 
ENDBRANCH  17  19
ENDBRANCH  12  15
ENDBRANCH   9  12
ENDBRANCH   2   8
BRANCH   7  26
ATOM     26  O   UNL     1      53.603 243.595 325.012  0.00  0.00    +0.000 OA
BRANCH  26  27
ATOM     27  C   UNL     1      53.631 244.968 325.160  0.00  0.00    +0.000 A 
ATOM     28  C   UNL     1      54.328 245.722 324.203  0.00  0.00    +0.000 A 
ATOM     29  C   UNL     1      54.305 247.122 324.328  0.00  0.00    +0.000 A 
ATOM     30  C   UNL     1      55.040 245.128 323.149  0.00  0.00    +0.000 A 
ATOM     31  N   UNL     1      53.638 247.744 325.312  0.00  0.00    +0.000 NA
ATOM     32  C   UNL     1      54.999 247.871 323.390  0.00  0.00    +0.000 A 
ATOM     33  C   UNL     1      52.968 246.983 326.206  0.00  0.00    +0.000 A 
ATOM     34  C   UNL     1      52.922 245.604 326.173  0.00  0.00    +0.000 A 
ATOM     35  C   UNL     1      55.709 247.286 322.334  0.00  0.00    +0.000 A 
ATOM     36  C   UNL     1      55.732 245.895 322.211  0.00  0.00    +0.000 A 
BRANCH  36  37
ATOM     37  O   UNL     1      56.450 245.369 321.163  0.00  0.00    +0.000 OA
ATOM     38  C   UNL     1      55.769 245.289 319.941  0.00  0.00    +0.000 C 
ENDBRANCH  36  37
BRANCH  35  39
ATOM     39  O   UNL     1      56.406 248.014 321.398  0.00  0.00    +0.000 OA
BRANCH  39  40
ATOM     40  C   UNL     1      57.342 248.818 321.895  0.00  0.00    +0.000 C 
ATOM     41  C   UNL     1      58.423 249.734 322.480  0.00  0.00    +0.000 C 
BRANCH  41  42
ATOM     42  C   UNL     1      59.507 250.644 323.067  0.00  0.00    +0.000 C 
BRANCH  42  43
ATOM     43  N   UNL     1      60.538 251.509 323.624  0.00  0.00    +0.000 N 
ATOM     44  C   UNL     1      61.036 250.841 324.866  0.00  0.00    +0.000 C 
ATOM     45  C   UNL     1      62.422 250.167 325.129  0.00  0.00    +0.000 C 
ATOM     46  O   UNL     1      63.537 249.969 324.392  0.00  0.00    +0.000 OA
ATOM     47  C   UNL     1      63.087 250.565 323.269  0.00  0.00    +0.000 C 
ATOM     48  C   UNL     1      61.775 251.278 322.819  0.00  0.00    +0.000 C 
ENDBRANCH  42  43
ENDBRANCH  41  42
ENDBRANCH  39  40
ENDBRANCH  35  39
ENDBRANCH  26  27
ENDBRANCH   7  26
TORSDOF 11
ENDMDL
MODEL 9
REMARK VINA RESULT:      -6.1     28.486     30.153
REMARK  Name = Foretinib.pdbqt.pdb
REMARK  11 active torsions:
REMARK  status: ('A' for Active; 'I' for Inactive)
REMARK    1  A    between atoms: C_2  and  N_31
REMARK    2  A    between atoms: C_7  and  O_8
REMARK    3  A    between atoms: O_8  and  C_9
REMARK    4  A    between atoms: C_17  and  O_19
REMARK    5  A    between atoms: C_18  and  O_29
REMARK    6  A    between atoms: O_19  and  C_20
REMARK    7  A    between atoms: C_21  and  C_22
REMARK    8  A    between atoms: C_22  and  N_23
REMARK    9  A    between atoms: C_32  and  C_35
REMARK   10  A    between atoms: C_35  and  C_38
REMARK   11  A    between atoms: N_40  and  C_42
REMARK                            x       y       z     vdW  Elec       q    Type
REMARK                         _______ _______ _______ _____ _____    ______ ____
ROOT
ATOM      1  F   UNL     1      48.255 240.610 322.244  0.00  0.00    +0.000 F 
ATOM      2  C   UNL     1      50.001 240.853 325.416  0.00  0.00    +0.000 A 
ATOM      3  C   UNL     1      49.570 241.148 324.122  0.00  0.00    +0.000 A 
ATOM      4  C   UNL     1      49.489 239.732 326.073  0.00  0.00    +0.000 A 
ATOM      5  C   UNL     1      48.632 240.330 323.500  0.00  0.00    +0.000 A 
ATOM      6  C   UNL     1      48.551 238.912 325.449  0.00  0.00    +0.000 A 
ATOM      7  C   UNL     1      48.103 239.225 324.168  0.00  0.00    +0.000 A 
ENDROOT
BRANCH   2   8
ATOM      8  N   UNL     1      50.947 241.636 326.102  0.00  0.00    +0.000 N 
ATOM      9  C   UNL     1      50.909 243.015 326.228  0.00  0.00    +0.000 C 
ATOM     10  O   UNL     1      50.070 243.763 325.743  0.00  0.00    +0.000 OA
ATOM     11  H   UNL     1      51.742 241.146 326.503  0.00  0.00    +0.000 HD
BRANCH   9  12
ATOM     12  C   UNL     1      52.059 243.603 326.993  0.00  0.00    +0.000 C 
ATOM     13  C   UNL     1      52.319 243.083 328.331  0.00  0.00    +0.000 C 
ATOM     14  C   UNL     1      51.742 244.440 328.145  0.00  0.00    +0.000 C 
BRANCH  12  15
ATOM     15  C   UNL     1      53.247 243.971 326.156  0.00  0.00    +0.000 C 
ATOM     16  O   UNL     1      54.316 243.410 326.370  0.00  0.00    +0.000 OA
ATOM     17  N   UNL     1      52.993 244.900 325.162  0.00  0.00    +0.000 N 
ATOM     18  H   UNL     1      52.041 245.241 325.063  0.00  0.00    +0.000 HD
BRANCH  17  19
ATOM     19  C   UNL     1      53.937 245.392 324.244  0.00  0.00    +0.000 A 
ATOM     20  C   UNL     1      54.385 244.525 323.244  0.00  0.00    +0.000 A 
ATOM     21  C   UNL     1      55.320 244.954 322.305  0.00  0.00    +0.000 A 
ATOM     22  C   UNL     1      55.803 246.256 322.372  0.00  0.00    +0.000 A 
ATOM     23  F   UNL     1      56.700 246.672 321.468  0.00  0.00    +0.000 F 
ATOM     24  C   UNL     1      55.367 247.134 323.358  0.00  0.00    +0.000 A 
ATOM     25  C   UNL     1      54.433 246.697 324.293  0.00  0.00    +0.000 A 
ENDBRANCH  17  19
ENDBRANCH  12  15
ENDBRANCH   9  12
ENDBRANCH   2   8
BRANCH   7  26
ATOM     26  O   UNL     1      47.227 238.347 323.578  0.00  0.00    +0.000 OA
BRANCH  26  27
ATOM     27  C   UNL     1      45.968 238.241 324.135  0.00  0.00    +0.000 A 
ATOM     28  C   UNL     1      45.470 236.956 324.403  0.00  0.00    +0.000 A 
ATOM     29  C   UNL     1      44.212 236.856 325.022  0.00  0.00    +0.000 A 
ATOM     30  C   UNL     1      46.176 235.789 324.068  0.00  0.00    +0.000 A 
ATOM     31  N   UNL     1      43.495 237.936 325.369  0.00  0.00    +0.000 NA
ATOM     32  C   UNL     1      43.712 235.589 325.282  0.00  0.00    +0.000 A 
ATOM     33  C   UNL     1      44.016 239.156 325.106  0.00  0.00    +0.000 A 
ATOM     34  C   UNL     1      45.240 239.365 324.507  0.00  0.00    +0.000 A 
ATOM     35  C   UNL     1      44.412 234.421 324.952  0.00  0.00    +0.000 A 
ATOM     36  C   UNL     1      45.660 234.521 324.336  0.00  0.00    +0.000 A 
BRANCH  36  37
ATOM     37  O   UNL     1      46.304 233.345 324.027  0.00  0.00    +0.000 OA
ATOM     38  C   UNL     1      47.693 233.438 323.866  0.00  0.00    +0.000 C 
ENDBRANCH  36  37
BRANCH  35  39
ATOM     39  O   UNL     1      43.928 233.157 325.199  0.00  0.00    +0.000 OA
BRANCH  39  40
ATOM     40  C   UNL     1      43.140 233.055 326.266  0.00  0.00    +0.000 C 
ATOM     41  C   UNL     1      42.238 232.952 327.501  0.00  0.00    +0.000 C 
BRANCH  41  42
ATOM     42  C   UNL     1      41.335 232.856 328.735  0.00  0.00    +0.000 C 
BRANCH  42  43
ATOM     43  N   UNL     1      40.477 232.763 329.908  0.00  0.00    +0.000 N 
ATOM     44  C   UNL     1      40.472 231.328 330.326  0.00  0.00    +0.000 C 
ATOM     45  C   UNL     1      41.116 230.673 331.591  0.00  0.00    +0.000 C 
ATOM     46  O   UNL     1      41.835 231.133 332.638  0.00  0.00    +0.000 OA
ATOM     47  C   UNL     1      41.846 232.428 332.259  0.00  0.00    +0.000 C 
ATOM     48  C   UNL     1      41.278 233.259 331.068  0.00  0.00    +0.000 C 
ENDBRANCH  42  43
ENDBRANCH  41  42
ENDBRANCH  39  40
ENDBRANCH  35  39
ENDBRANCH  26  27
ENDBRANCH   7  26
TORSDOF 11
ENDMDL
