MODEL 1
REMARK VINA RESULT:      -4.6      0.000      0.000
REMARK  Name = 
REMARK  7 active torsions:
REMARK  status: ('A' for Active; 'I' for Inactive)
REMARK    1  A    between atoms: S_1  and  O_3
REMARK    2  A    between atoms: S_1  and  O_6
REMARK    3  A    between atoms: O_3  and  C_9
REMARK    4  A    between atoms: O_4  and  C_10
REMARK    5  A    between atoms: O_5  and  C_11
REMARK    6  A    between atoms: C_12  and  C_14
REMARK    7  A    between atoms: C_13  and  C_15
REMARK                            x       y       z     vdW  Elec       q    Type
REMARK                         _______ _______ _______ _____ _____    ______ ____
ROOT
ATOM      1  O   UNL     1      47.268 235.834 324.478  0.00  0.00    +0.000 OA
ATOM      2  C   UNL     1      48.083 238.119 324.124  0.00  0.00    +0.000 C 
ATOM      3  C   UNL     1      48.958 237.612 322.968  0.00  0.00    +0.000 C 
ATOM      4  C   UNL     1      49.303 236.126 323.148  0.00  0.00    +0.000 C 
ATOM      5  C   UNL     1      46.862 237.195 324.279  0.00  0.00    +0.000 C 
ATOM      6  C   UNL     1      48.023 235.309 323.377  0.00  0.00    +0.000 C 
ATOM      7  C   UNL     1      45.998 237.586 325.472  0.00  0.00    +0.000 C 
ATOM      8  C   UNL     1      48.340 233.852 323.692  0.00  0.00    +0.000 C 
ENDROOT
BRANCH   3   9
ATOM      9  O   UNL     1      50.191 238.335 322.837  0.00  0.00    +0.000 OA
ATOM     10  H   UNL     1      50.276 238.961 323.586  0.00  0.00    +0.000 HD
ENDBRANCH   3   9
BRANCH   4  11
ATOM     11  O   UNL     1      49.999 235.673 321.983  0.00  0.00    +0.000 OA
ATOM     12  H   UNL     1      50.849 235.322 322.319  0.00  0.00    +0.000 HD
ENDBRANCH   4  11
BRANCH   2  13
ATOM     13  O   UNL     1      48.843 238.117 325.334  0.00  0.00    +0.000 OA
BRANCH  13  14
ATOM     14  S   UNL     1      49.194 239.538 326.030  0.00  0.00    +0.000 S 
ATOM     15  O   UNL     1      49.475 240.496 324.987  0.00  0.00    +0.000 OA
ATOM     16  O   UNL     1      48.236 239.792 327.084  0.00  0.00    +0.000 OA
BRANCH  14  17
ATOM     17  O   UNL     1      50.613 239.224 326.719  0.00  0.00    +0.000 OA
ATOM     18  H   UNL     1      50.930 240.062 327.117  0.00  0.00    +0.000 HD
ENDBRANCH  14  17
ENDBRANCH  13  14
ENDBRANCH   2  13
TORSDOF 5
ENDMDL
MODEL 2
REMARK VINA RESULT:      -4.5     17.209     19.073
REMARK  Name = 
REMARK  7 active torsions:
REMARK  status: ('A' for Active; 'I' for Inactive)
REMARK    1  A    between atoms: S_1  and  O_3
REMARK    2  A    between atoms: S_1  and  O_6
REMARK    3  A    between atoms: O_3  and  C_9
REMARK    4  A    between atoms: O_4  and  C_10
REMARK    5  A    between atoms: O_5  and  C_11
REMARK    6  A    between atoms: C_12  and  C_14
REMARK    7  A    between atoms: C_13  and  C_15
REMARK                            x       y       z     vdW  Elec       q    Type
REMARK                         _______ _______ _______ _____ _____    ______ ____
ROOT
ATOM      1  O   UNL     1      59.789 222.006 327.573  0.00  0.00    +0.000 OA
ATOM      2  C   UNL     1      61.293 223.887 328.032  0.00  0.00    +0.000 C 
ATOM      3  C   UNL     1      60.212 224.854 327.527  0.00  0.00    +0.000 C 
ATOM      4  C   UNL     1      59.272 224.160 326.531  0.00  0.00    +0.000 C 
ATOM      5  C   UNL     1      60.620 222.612 328.572  0.00  0.00    +0.000 C 
ATOM      6  C   UNL     1      58.723 222.862 327.138  0.00  0.00    +0.000 C 
ATOM      7  C   UNL     1      61.642 221.567 329.004  0.00  0.00    +0.000 C 
ATOM      8  C   UNL     1      57.892 222.080 326.126  0.00  0.00    +0.000 C 
ENDROOT
BRANCH   3   9
ATOM      9  O   UNL     1      60.755 226.016 326.881  0.00  0.00    +0.000 OA
ATOM     10  H   UNL     1      60.946 226.699 327.557  0.00  0.00    +0.000 HD
ENDBRANCH   3   9
BRANCH   4  11
ATOM     11  O   UNL     1      58.210 225.060 326.199  0.00  0.00    +0.000 OA
ATOM     12  H   UNL     1      58.648 225.809 325.744  0.00  0.00    +0.000 HD
ENDBRANCH   4  11
BRANCH   2  13
ATOM     13  O   UNL     1      62.170 223.548 326.956  0.00  0.00    +0.000 OA
BRANCH  13  14
ATOM     14  S   UNL     1      63.677 224.142 326.969  0.00  0.00    +0.000 S 
ATOM     15  O   UNL     1      64.507 223.253 327.748  0.00  0.00    +0.000 OA
ATOM     16  O   UNL     1      64.028 224.560 325.629  0.00  0.00    +0.000 OA
BRANCH  14  17
ATOM     17  O   UNL     1      63.501 225.464 327.868  0.00  0.00    +0.000 OA
ATOM     18  H   UNL     1      64.300 226.014 327.729  0.00  0.00    +0.000 HD
ENDBRANCH  14  17
ENDBRANCH  13  14
ENDBRANCH   2  13
TORSDOF 5
ENDMDL
MODEL 3
REMARK VINA RESULT:      -4.3      7.392      8.608
REMARK  Name = 
REMARK  7 active torsions:
REMARK  status: ('A' for Active; 'I' for Inactive)
REMARK    1  A    between atoms: S_1  and  O_3
REMARK    2  A    between atoms: S_1  and  O_6
REMARK    3  A    between atoms: O_3  and  C_9
REMARK    4  A    between atoms: O_4  and  C_10
REMARK    5  A    between atoms: O_5  and  C_11
REMARK    6  A    between atoms: C_12  and  C_14
REMARK    7  A    between atoms: C_13  and  C_15
REMARK                            x       y       z     vdW  Elec       q    Type
REMARK                         _______ _______ _______ _____ _____    ______ ____
ROOT
ATOM      1  O   UNL     1      52.325 245.848 325.845  0.00  0.00    +0.000 OA
ATOM      2  C   UNL     1      51.397 244.610 327.747  0.00  0.00    +0.000 C 
ATOM      3  C   UNL     1      52.662 243.740 327.778  0.00  0.00    +0.000 C 
ATOM      4  C   UNL     1      53.326 243.683 326.395  0.00  0.00    +0.000 C 
ATOM      5  C   UNL     1      51.742 245.986 327.148  0.00  0.00    +0.000 C 
ATOM      6  C   UNL     1      53.550 245.102 325.856  0.00  0.00    +0.000 C 
ATOM      7  C   UNL     1      50.509 246.870 327.000  0.00  0.00    +0.000 C 
ATOM      8  C   UNL     1      54.085 245.080 324.428  0.00  0.00    +0.000 C 
ENDROOT
BRANCH   3   9
ATOM      9  O   UNL     1      52.406 242.391 328.197  0.00  0.00    +0.000 OA
ATOM     10  H   UNL     1      51.773 241.977 327.575  0.00  0.00    +0.000 HD
ENDBRANCH   3   9
BRANCH   4  11
ATOM     11  O   UNL     1      54.566 242.977 326.511  0.00  0.00    +0.000 OA
ATOM     12  H   UNL     1      54.722 242.597 325.622  0.00  0.00    +0.000 HD
ENDBRANCH   4  11
BRANCH   2  13
ATOM     13  O   UNL     1      50.400 243.974 326.945  0.00  0.00    +0.000 OA
BRANCH  13  14
ATOM     14  S   UNL     1      49.158 243.246 327.689  0.00  0.00    +0.000 S 
ATOM     15  O   UNL     1      49.377 243.318 329.114  0.00  0.00    +0.000 OA
ATOM     16  O   UNL     1      47.923 243.676 327.068  0.00  0.00    +0.000 OA
BRANCH  14  17
ATOM     17  O   UNL     1      49.397 241.705 327.294  0.00  0.00    +0.000 OA
ATOM     18  H   UNL     1      49.458 241.665 326.317  0.00  0.00    +0.000 HD
ENDBRANCH  14  17
ENDBRANCH  13  14
ENDBRANCH   2  13
TORSDOF 5
ENDMDL
MODEL 4
REMARK VINA RESULT:      -4.2      7.597      9.566
REMARK  Name = 
REMARK  7 active torsions:
REMARK  status: ('A' for Active; 'I' for Inactive)
REMARK    1  A    between atoms: S_1  and  O_3
REMARK    2  A    between atoms: S_1  and  O_6
REMARK    3  A    between atoms: O_3  and  C_9
REMARK    4  A    between atoms: O_4  and  C_10
REMARK    5  A    between atoms: O_5  and  C_11
REMARK    6  A    between atoms: C_12  and  C_14
REMARK    7  A    between atoms: C_13  and  C_15
REMARK                            x       y       z     vdW  Elec       q    Type
REMARK                         _______ _______ _______ _____ _____    ______ ____
ROOT
ATOM      1  O   UNL     1      50.810 246.148 330.159  0.00  0.00    +0.000 OA
ATOM      2  C   UNL     1      50.597 244.889 328.065  0.00  0.00    +0.000 C 
ATOM      3  C   UNL     1      49.381 244.156 328.648  0.00  0.00    +0.000 C 
ATOM      4  C   UNL     1      49.441 244.118 330.181  0.00  0.00    +0.000 C 
ATOM      5  C   UNL     1      50.723 246.271 328.733  0.00  0.00    +0.000 C 
ATOM      6  C   UNL     1      49.650 245.533 330.738  0.00  0.00    +0.000 C 
ATOM      7  C   UNL     1      51.968 247.018 328.268  0.00  0.00    +0.000 C 
ATOM      8  C   UNL     1      49.849 245.515 332.250  0.00  0.00    +0.000 C 
ENDROOT
BRANCH   3   9
ATOM      9  O   UNL     1      49.263 242.803 328.181  0.00  0.00    +0.000 OA
ATOM     10  H   UNL     1      48.325 242.526 328.234  0.00  0.00    +0.000 HD
ENDBRANCH   3   9
BRANCH   4  11
ATOM     11  O   UNL     1      48.225 243.548 330.675  0.00  0.00    +0.000 OA
ATOM     12  H   UNL     1      48.241 243.717 331.639  0.00  0.00    +0.000 HD
ENDBRANCH   4  11
BRANCH   2  13
ATOM     13  O   UNL     1      51.779 244.126 328.314  0.00  0.00    +0.000 OA
BRANCH  13  14
ATOM     14  S   UNL     1      52.495 243.379 327.068  0.00  0.00    +0.000 S 
ATOM     15  O   UNL     1      51.896 243.862 325.846  0.00  0.00    +0.000 OA
ATOM     16  O   UNL     1      53.926 243.374 327.284  0.00  0.00    +0.000 OA
BRANCH  14  17
ATOM     17  O   UNL     1      51.965 241.870 327.240  0.00  0.00    +0.000 OA
ATOM     18  H   UNL     1      52.124 241.411 326.389  0.00  0.00    +0.000 HD
ENDBRANCH  14  17
ENDBRANCH  13  14
ENDBRANCH   2  13
TORSDOF 5
ENDMDL
MODEL 5
REMARK VINA RESULT:      -4.1     23.250     24.449
REMARK  Name = 
REMARK  7 active torsions:
REMARK  status: ('A' for Active; 'I' for Inactive)
REMARK    1  A    between atoms: S_1  and  O_3
REMARK    2  A    between atoms: S_1  and  O_6
REMARK    3  A    between atoms: O_3  and  C_9
REMARK    4  A    between atoms: O_4  and  C_10
REMARK    5  A    between atoms: O_5  and  C_11
REMARK    6  A    between atoms: C_12  and  C_14
REMARK    7  A    between atoms: C_13  and  C_15
REMARK                            x       y       z     vdW  Elec       q    Type
REMARK                         _______ _______ _______ _____ _____    ______ ____
ROOT
ATOM      1  O   UNL     1      72.363 231.384 324.906  0.00  0.00    +0.000 OA
ATOM      2  C   UNL     1      70.633 230.420 326.352  0.00  0.00    +0.000 C 
ATOM      3  C   UNL     1      71.142 231.286 327.513  0.00  0.00    +0.000 C 
ATOM      4  C   UNL     1      72.624 231.643 327.327  0.00  0.00    +0.000 C 
ATOM      5  C   UNL     1      70.959 231.117 325.018  0.00  0.00    +0.000 C 
ATOM      6  C   UNL     1      72.851 232.254 325.937  0.00  0.00    +0.000 C 
ATOM      7  C   UNL     1      70.564 230.265 323.818  0.00  0.00    +0.000 C 
ATOM      8  C   UNL     1      74.332 232.497 325.669  0.00  0.00    +0.000 C 
ENDROOT
BRANCH   3   9
ATOM      9  O   UNL     1      71.002 230.650 328.792  0.00  0.00    +0.000 OA
ATOM     10  H   UNL     1      71.672 229.940 328.872  0.00  0.00    +0.000 HD
ENDBRANCH   3   9
BRANCH   4  11
ATOM     11  O   UNL     1      73.008 232.558 328.358  0.00  0.00    +0.000 OA
ATOM     12  H   UNL     1      72.306 233.241 328.362  0.00  0.00    +0.000 HD
ENDBRANCH   4  11
BRANCH   2  13
ATOM     13  O   UNL     1      71.272 229.142 326.394  0.00  0.00    +0.000 OA
BRANCH  13  14
ATOM     14  S   UNL     1      70.362 227.831 326.674  0.00  0.00    +0.000 S 
ATOM     15  O   UNL     1      69.310 227.791 325.686  0.00  0.00    +0.000 OA
ATOM     16  O   UNL     1      71.232 226.703 326.932  0.00  0.00    +0.000 OA
BRANCH  14  17
ATOM     17  O   UNL     1      69.639 228.222 328.056  0.00  0.00    +0.000 OA
ATOM     18  H   UNL     1      69.556 229.198 328.071  0.00  0.00    +0.000 HD
ENDBRANCH  14  17
ENDBRANCH  13  14
ENDBRANCH   2  13
TORSDOF 5
ENDMDL
MODEL 6
REMARK VINA RESULT:      -4.0      3.885      4.997
REMARK  Name = 
REMARK  7 active torsions:
REMARK  status: ('A' for Active; 'I' for Inactive)
REMARK    1  A    between atoms: S_1  and  O_3
REMARK    2  A    between atoms: S_1  and  O_6
REMARK    3  A    between atoms: O_3  and  C_9
REMARK    4  A    between atoms: O_4  and  C_10
REMARK    5  A    between atoms: O_5  and  C_11
REMARK    6  A    between atoms: C_12  and  C_14
REMARK    7  A    between atoms: C_13  and  C_15
REMARK                            x       y       z     vdW  Elec       q    Type
REMARK                         _______ _______ _______ _____ _____    ______ ____
ROOT
ATOM      1  O   UNL     1      47.151 241.552 325.219  0.00  0.00    +0.000 OA
ATOM      2  C   UNL     1      49.575 241.183 325.187  0.00  0.00    +0.000 C 
ATOM      3  C   UNL     1      49.361 239.821 325.864  0.00  0.00    +0.000 C 
ATOM      4  C   UNL     1      48.059 239.809 326.678  0.00  0.00    +0.000 C 
ATOM      5  C   UNL     1      48.315 241.552 324.382  0.00  0.00    +0.000 C 
ATOM      6  C   UNL     1      46.884 240.270 325.805  0.00  0.00    +0.000 C 
ATOM      7  C   UNL     1      48.423 242.939 323.759  0.00  0.00    +0.000 C 
ATOM      8  C   UNL     1      45.601 240.397 326.618  0.00  0.00    +0.000 C 
ENDROOT
BRANCH   3   9
ATOM      9  O   UNL     1      50.433 239.458 326.746  0.00  0.00    +0.000 OA
ATOM     10  H   UNL     1      50.958 238.741 326.334  0.00  0.00    +0.000 HD
ENDBRANCH   3   9
BRANCH   4  11
ATOM     11  O   UNL     1      47.841 238.483 327.172  0.00  0.00    +0.000 OA
ATOM     12  H   UNL     1      47.306 238.603 327.984  0.00  0.00    +0.000 HD
ENDBRANCH   4  11
BRANCH   2  13
ATOM     13  O   UNL     1      49.817 242.178 326.183  0.00  0.00    +0.000 OA
BRANCH  13  14
ATOM     14  S   UNL     1      51.285 242.860 326.255  0.00  0.00    +0.000 S 
ATOM     15  O   UNL     1      51.987 242.555 325.030  0.00  0.00    +0.000 OA
ATOM     16  O   UNL     1      51.151 244.209 326.760  0.00  0.00    +0.000 OA
BRANCH  14  17
ATOM     17  O   UNL     1      52.001 241.977 327.393  0.00  0.00    +0.000 OA
ATOM     18  H   UNL     1      52.936 242.269 327.437  0.00  0.00    +0.000 HD
ENDBRANCH  14  17
ENDBRANCH  13  14
ENDBRANCH   2  13
TORSDOF 5
ENDMDL
MODEL 7
REMARK VINA RESULT:      -3.9      7.734      9.914
REMARK  Name = 
REMARK  7 active torsions:
REMARK  status: ('A' for Active; 'I' for Inactive)
REMARK    1  A    between atoms: S_1  and  O_3
REMARK    2  A    between atoms: S_1  and  O_6
REMARK    3  A    between atoms: O_3  and  C_9
REMARK    4  A    between atoms: O_4  and  C_10
REMARK    5  A    between atoms: O_5  and  C_11
REMARK    6  A    between atoms: C_12  and  C_14
REMARK    7  A    between atoms: C_13  and  C_15
REMARK                            x       y       z     vdW  Elec       q    Type
REMARK                         _______ _______ _______ _____ _____    ______ ____
ROOT
ATOM      1  O   UNL     1      50.367 246.933 327.758  0.00  0.00    +0.000 OA
ATOM      2  C   UNL     1      50.496 244.489 327.904  0.00  0.00    +0.000 C 
ATOM      3  C   UNL     1      50.083 244.571 329.381  0.00  0.00    +0.000 C 
ATOM      4  C   UNL     1      50.469 245.928 329.987  0.00  0.00    +0.000 C 
ATOM      5  C   UNL     1      49.933 245.709 327.152  0.00  0.00    +0.000 C 
ATOM      6  C   UNL     1      49.929 247.071 329.117  0.00  0.00    +0.000 C 
ATOM      7  C   UNL     1      50.386 245.740 325.697  0.00  0.00    +0.000 C 
ATOM      8  C   UNL     1      50.408 248.429 329.618  0.00  0.00    +0.000 C 
ENDROOT
BRANCH   3   9
ATOM      9  O   UNL     1      50.677 243.545 330.189  0.00  0.00    +0.000 OA
ATOM     10  H   UNL     1      49.969 242.980 330.562  0.00  0.00    +0.000 HD
ENDBRANCH   3   9
BRANCH   4  11
ATOM     11  O   UNL     1      49.942 246.002 331.316  0.00  0.00    +0.000 OA
ATOM     12  H   UNL     1      50.224 246.879 331.649  0.00  0.00    +0.000 HD
ENDBRANCH   4  11
BRANCH   2  13
ATOM     13  O   UNL     1      51.922 244.482 327.808  0.00  0.00    +0.000 OA
BRANCH  13  14
ATOM     14  S   UNL     1      52.657 243.132 327.297  0.00  0.00    +0.000 S 
ATOM     15  O   UNL     1      51.808 242.498 326.315  0.00  0.00    +0.000 OA
ATOM     16  O   UNL     1      54.052 243.422 327.049  0.00  0.00    +0.000 OA
BRANCH  14  17
ATOM     17  O   UNL     1      52.572 242.198 328.604  0.00  0.00    +0.000 OA
ATOM     18  H   UNL     1      53.049 242.665 329.322  0.00  0.00    +0.000 HD
ENDBRANCH  14  17
ENDBRANCH  13  14
ENDBRANCH   2  13
TORSDOF 5
ENDMDL
MODEL 8
REMARK VINA RESULT:      -3.9     19.793     20.771
REMARK  Name = 
REMARK  7 active torsions:
REMARK  status: ('A' for Active; 'I' for Inactive)
REMARK    1  A    between atoms: S_1  and  O_3
REMARK    2  A    between atoms: S_1  and  O_6
REMARK    3  A    between atoms: O_3  and  C_9
REMARK    4  A    between atoms: O_4  and  C_10
REMARK    5  A    between atoms: O_5  and  C_11
REMARK    6  A    between atoms: C_12  and  C_14
REMARK    7  A    between atoms: C_13  and  C_15
REMARK                            x       y       z     vdW  Elec       q    Type
REMARK                         _______ _______ _______ _____ _____    ______ ____
ROOT
ATOM      1  O   UNL     1      68.355 243.202 329.740  0.00  0.00    +0.000 OA
ATOM      2  C   UNL     1      67.783 242.358 331.970  0.00  0.00    +0.000 C 
ATOM      3  C   UNL     1      68.471 241.029 331.626  0.00  0.00    +0.000 C 
ATOM      4  C   UNL     1      68.474 240.785 330.110  0.00  0.00    +0.000 C 
ATOM      5  C   UNL     1      68.423 243.488 331.143  0.00  0.00    +0.000 C 
ATOM      6  C   UNL     1      69.055 242.003 329.379  0.00  0.00    +0.000 C 
ATOM      7  C   UNL     1      67.724 244.824 331.365  0.00  0.00    +0.000 C 
ATOM      8  C   UNL     1      68.950 241.848 327.866  0.00  0.00    +0.000 C 
ENDROOT
BRANCH   3   9
ATOM      9  O   UNL     1      67.848 239.896 332.251  0.00  0.00    +0.000 OA
ATOM     10  H   UNL     1      66.880 240.042 332.287  0.00  0.00    +0.000 HD
ENDBRANCH   3   9
BRANCH   4  11
ATOM     11  O   UNL     1      69.242 239.608 329.837  0.00  0.00    +0.000 OA
ATOM     12  H   UNL     1      68.717 238.873 330.213  0.00  0.00    +0.000 HD
ENDBRANCH   4  11
BRANCH   2  13
ATOM     13  O   UNL     1      66.391 242.268 331.663  0.00  0.00    +0.000 OA
BRANCH  13  14
ATOM     14  S   UNL     1      65.323 242.365 332.878  0.00  0.00    +0.000 S 
ATOM     15  O   UNL     1      66.036 242.728 334.080  0.00  0.00    +0.000 OA
ATOM     16  O   UNL     1      64.154 243.084 332.418  0.00  0.00    +0.000 OA
BRANCH  14  17
ATOM     17  O   UNL     1      64.907 240.824 333.073  0.00  0.00    +0.000 OA
ATOM     18  H   UNL     1      64.024 240.816 333.497  0.00  0.00    +0.000 HD
ENDBRANCH  14  17
ENDBRANCH  13  14
ENDBRANCH   2  13
TORSDOF 5
ENDMDL
MODEL 9
REMARK VINA RESULT:      -3.9      4.457      6.786
REMARK  Name = 
REMARK  7 active torsions:
REMARK  status: ('A' for Active; 'I' for Inactive)
REMARK    1  A    between atoms: S_1  and  O_3
REMARK    2  A    between atoms: S_1  and  O_6
REMARK    3  A    between atoms: O_3  and  C_9
REMARK    4  A    between atoms: O_4  and  C_10
REMARK    5  A    between atoms: O_5  and  C_11
REMARK    6  A    between atoms: C_12  and  C_14
REMARK    7  A    between atoms: C_13  and  C_15
REMARK                            x       y       z     vdW  Elec       q    Type
REMARK                         _______ _______ _______ _____ _____    ______ ____
ROOT
ATOM      1  O   UNL     1      47.275 235.235 322.967  0.00  0.00    +0.000 OA
ATOM      2  C   UNL     1      46.355 232.966 323.099  0.00  0.00    +0.000 C 
ATOM      3  C   UNL     1      47.503 232.572 324.039  0.00  0.00    +0.000 C 
ATOM      4  C   UNL     1      48.735 233.459 323.808  0.00  0.00    +0.000 C 
ATOM      5  C   UNL     1      46.087 234.477 323.231  0.00  0.00    +0.000 C 
ATOM      6  C   UNL     1      48.342 234.941 323.880  0.00  0.00    +0.000 C 
ATOM      7  C   UNL     1      45.020 234.955 322.254  0.00  0.00    +0.000 C 
ATOM      8  C   UNL     1      49.514 235.848 323.523  0.00  0.00    +0.000 C 
ENDROOT
BRANCH   3   9
ATOM      9  O   UNL     1      47.912 231.205 323.883  0.00  0.00    +0.000 OA
ATOM     10  H   UNL     1      47.502 230.665 324.591  0.00  0.00    +0.000 HD
ENDBRANCH   3   9
BRANCH   4  11
ATOM     11  O   UNL     1      49.720 233.142 324.796  0.00  0.00    +0.000 OA
ATOM     12  H   UNL     1      49.520 233.735 325.549  0.00  0.00    +0.000 HD
ENDBRANCH   4  11
BRANCH   2  13
ATOM     13  O   UNL     1      46.715 232.659 321.750  0.00  0.00    +0.000 OA
BRANCH  13  14
ATOM     14  S   UNL     1      45.945 231.447 321.000  0.00  0.00    +0.000 S 
ATOM     15  O   UNL     1      45.685 231.850 319.638  0.00  0.00    +0.000 OA
ATOM     16  O   UNL     1      46.599 230.200 321.332  0.00  0.00    +0.000 OA
BRANCH  14  17
ATOM     17  O   UNL     1      44.514 231.463 321.735  0.00  0.00    +0.000 OA
ATOM     18  H   UNL     1      44.586 232.084 322.489  0.00  0.00    +0.000 HD
ENDBRANCH  14  17
ENDBRANCH  13  14
ENDBRANCH   2  13
TORSDOF 5
ENDMDL
