MODEL 1
REMARK VINA RESULT:      -6.2      0.000      0.000
REMARK  Name = Fulvestrant.pdbqt.pdb
REMARK  12 active torsions:
REMARK  status: ('A' for Active; 'I' for Inactive)
REMARK    1  A    between atoms: C_6  and  O_40
REMARK    2  A    between atoms: C_8  and  C_19
REMARK    3  A    between atoms: C_18  and  O_42
REMARK    4  A    between atoms: C_20  and  C_21
REMARK    5  A    between atoms: C_22  and  C_23
REMARK    6  A    between atoms: C_23  and  C_24
REMARK    7  A    between atoms: C_25  and  C_26
REMARK    8  A    between atoms: C_27  and  S_28
REMARK    9  A    between atoms: S_28  and  C_30
REMARK   10  A    between atoms: C_30  and  C_31
REMARK   11  A    between atoms: C_32  and  C_33
REMARK   12  A    between atoms: C_33  and  C_36
REMARK                            x       y       z     vdW  Elec       q    Type
REMARK                         _______ _______ _______ _____ _____    ______ ____
ROOT
ATOM      1  C   UNL     1      74.971 224.571 338.112  0.00  0.00    +0.000 C 
ATOM      2  C   UNL     1      76.145 224.883 337.065  0.00  0.00    +0.000 C 
ATOM      3  C   UNL     1      75.160 224.570 339.599  0.00  0.00    +0.000 A 
ATOM      4  C   UNL     1      76.373 225.260 340.255  0.00  0.00    +0.000 A 
ATOM      5  C   UNL     1      77.164 225.608 337.816  0.00  0.00    +0.000 C 
ATOM      6  C   UNL     1      75.436 225.748 335.999  0.00  0.00    +0.000 C 
ATOM      7  C   UNL     1      73.768 225.111 337.552  0.00  0.00    +0.000 C 
ATOM      8  C   UNL     1      74.184 223.924 340.516  0.00  0.00    +0.000 A 
ATOM      9  C   UNL     1      77.284 225.780 339.305  0.00  0.00    +0.000 C 
ATOM     10  C   UNL     1      74.046 225.853 336.271  0.00  0.00    +0.000 C 
ATOM     11  C   UNL     1      76.633 223.546 336.451  0.00  0.00    +0.000 C 
ATOM     12  C   UNL     1      76.586 225.324 341.728  0.00  0.00    +0.000 A 
ATOM     13  C   UNL     1      74.559 224.103 341.869  0.00  0.00    +0.000 A 
ATOM     14  C   UNL     1      75.627 224.715 342.573  0.00  0.00    +0.000 A 
ATOM     15  C   UNL     1      77.686 225.953 342.309  0.00  0.00    +0.000 A 
ATOM     16  C   UNL     1      75.747 224.724 343.953  0.00  0.00    +0.000 A 
ATOM     17  C   UNL     1      77.819 225.971 343.698  0.00  0.00    +0.000 A 
ATOM     18  C   UNL     1      76.856 225.360 344.503  0.00  0.00    +0.000 A 
ENDROOT
BRANCH   8  19
ATOM     19  C   UNL     1      73.131 223.085 340.077  0.00  0.00    +0.000 C 
ATOM     20  C   UNL     1      71.980 222.185 339.618  0.00  0.00    +0.000 C 
BRANCH  20  21
ATOM     21  C   UNL     1      70.813 221.295 339.182  0.00  0.00    +0.000 C 
ATOM     22  C   UNL     1      69.625 220.426 338.757  0.00  0.00    +0.000 C 
BRANCH  22  23
ATOM     23  C   UNL     1      68.416 219.579 338.347  0.00  0.00    +0.000 C 
BRANCH  23  24
ATOM     24  C   UNL     1      67.213 218.710 337.965  0.00  0.00    +0.000 C 
ATOM     25  C   UNL     1      66.034 217.816 337.571  0.00  0.00    +0.000 C 
BRANCH  25  26
ATOM     26  C   UNL     1      64.876 216.899 337.162  0.00  0.00    +0.000 C 
ATOM     27  C   UNL     1      63.697 216.002 336.775  0.00  0.00    +0.000 C 
BRANCH  27  28
ATOM     28  S   UNL     1      62.321 214.988 336.353  0.00  0.00    +0.000 S 
ATOM     29  O   UNL     1      62.286 214.367 337.718  0.00  0.00    +0.000 OA
BRANCH  28  30
ATOM     30  C   UNL     1      61.136 216.209 336.810  0.00  0.00    +0.000 C 
BRANCH  30  31
ATOM     31  C   UNL     1      60.099 217.274 337.183  0.00  0.00    +0.000 C 
ATOM     32  C   UNL     1      59.058 218.340 337.539  0.00  0.00    +0.000 C 
BRANCH  32  33
ATOM     33  C   UNL     1      58.060 219.361 337.870  0.00  0.00    +0.000 C 
ATOM     34  F   UNL     1      58.681 220.338 338.589  0.00  0.00    +0.000 F 
ATOM     35  F   UNL     1      57.151 218.797 338.714  0.00  0.00    +0.000 F 
BRANCH  33  36
ATOM     36  C   UNL     1      57.365 219.951 336.638  0.00  0.00    +0.000 C 
ATOM     37  F   UNL     1      56.024 219.738 336.660  0.00  0.00    +0.000 F 
ATOM     38  F   UNL     1      57.830 219.415 335.482  0.00  0.00    +0.000 F 
ATOM     39  F   UNL     1      57.547 221.293 336.550  0.00  0.00    +0.000 F 
ENDBRANCH  33  36
ENDBRANCH  32  33
ENDBRANCH  30  31
ENDBRANCH  28  30
ENDBRANCH  27  28
ENDBRANCH  25  26
ENDBRANCH  23  24
ENDBRANCH  22  23
ENDBRANCH  20  21
ENDBRANCH   8  19
BRANCH   6  40
ATOM     40  O   UNL     1      76.105 226.667 335.218  0.00  0.00    +0.000 OA
ATOM     41  H   UNL     1      75.648 227.526 335.199  0.00  0.00    +0.000 HD
ENDBRANCH   6  40
BRANCH  18  42
ATOM     42  O   UNL     1      77.030 225.402 345.857  0.00  0.00    +0.000 OA
ATOM     43  H   UNL     1      76.754 226.280 346.175  0.00  0.00    +0.000 HD
ENDBRANCH  18  42
TORSDOF 12
ENDMDL
MODEL 2
REMARK VINA RESULT:      -5.9     30.296     32.527
REMARK  Name = Fulvestrant.pdbqt.pdb
REMARK  12 active torsions:
REMARK  status: ('A' for Active; 'I' for Inactive)
REMARK    1  A    between atoms: C_6  and  O_40
REMARK    2  A    between atoms: C_8  and  C_19
REMARK    3  A    between atoms: C_18  and  O_42
REMARK    4  A    between atoms: C_20  and  C_21
REMARK    5  A    between atoms: C_22  and  C_23
REMARK    6  A    between atoms: C_23  and  C_24
REMARK    7  A    between atoms: C_25  and  C_26
REMARK    8  A    between atoms: C_27  and  S_28
REMARK    9  A    between atoms: S_28  and  C_30
REMARK   10  A    between atoms: C_30  and  C_31
REMARK   11  A    between atoms: C_32  and  C_33
REMARK   12  A    between atoms: C_33  and  C_36
REMARK                            x       y       z     vdW  Elec       q    Type
REMARK                         _______ _______ _______ _____ _____    ______ ____
ROOT
ATOM      1  C   UNL     1      51.921 245.153 327.027  0.00  0.00    +0.000 C 
ATOM      2  C   UNL     1      51.864 243.745 326.261  0.00  0.00    +0.000 C 
ATOM      3  C   UNL     1      52.853 246.266 326.654  0.00  0.00    +0.000 A 
ATOM      4  C   UNL     1      53.537 246.313 325.271  0.00  0.00    +0.000 A 
ATOM      5  C   UNL     1      52.464 243.980 324.952  0.00  0.00    +0.000 C 
ATOM      6  C   UNL     1      50.349 243.448 326.199  0.00  0.00    +0.000 C 
ATOM      7  C   UNL     1      50.580 245.458 327.426  0.00  0.00    +0.000 C 
ATOM      8  C   UNL     1      53.152 247.388 327.583  0.00  0.00    +0.000 A 
ATOM      9  C   UNL     1      53.255 245.170 324.485  0.00  0.00    +0.000 C 
ATOM     10  C   UNL     1      49.607 244.433 326.903  0.00  0.00    +0.000 C 
ATOM     11  C   UNL     1      52.597 242.682 327.119  0.00  0.00    +0.000 C 
ATOM     12  C   UNL     1      54.438 247.416 324.836  0.00  0.00    +0.000 A 
ATOM     13  C   UNL     1      54.017 248.333 326.981  0.00  0.00    +0.000 A 
ATOM     14  C   UNL     1      54.685 248.478 325.739  0.00  0.00    +0.000 A 
ATOM     15  C   UNL     1      55.048 247.448 323.583  0.00  0.00    +0.000 A 
ATOM     16  C   UNL     1      55.512 249.543 325.419  0.00  0.00    +0.000 A 
ATOM     17  C   UNL     1      55.882 248.515 323.246  0.00  0.00    +0.000 A 
ATOM     18  C   UNL     1      56.106 249.546 324.161  0.00  0.00    +0.000 A 
ENDROOT
BRANCH   8  19
ATOM     19  C   UNL     1      52.771 247.400 328.946  0.00  0.00    +0.000 C 
ATOM     20  C   UNL     1      52.341 247.426 330.417  0.00  0.00    +0.000 C 
BRANCH  20  21
ATOM     21  C   UNL     1      51.892 247.471 331.880  0.00  0.00    +0.000 C 
ATOM     22  C   UNL     1      51.465 247.495 333.351  0.00  0.00    +0.000 C 
BRANCH  22  23
ATOM     23  C   UNL     1      51.061 247.495 334.828  0.00  0.00    +0.000 C 
BRANCH  23  24
ATOM     24  C   UNL     1      50.663 247.460 336.308  0.00  0.00    +0.000 C 
ATOM     25  C   UNL     1      50.258 247.390 337.783  0.00  0.00    +0.000 C 
BRANCH  25  26
ATOM     26  C   UNL     1      49.842 247.287 339.254  0.00  0.00    +0.000 C 
ATOM     27  C   UNL     1      49.458 247.165 340.732  0.00  0.00    +0.000 C 
BRANCH  27  28
ATOM     28  S   UNL     1      49.045 247.005 342.435  0.00  0.00    +0.000 S 
ATOM     29  O   UNL     1      47.676 247.579 342.216  0.00  0.00    +0.000 OA
BRANCH  28  30
ATOM     30  C   UNL     1      48.452 245.357 342.254  0.00  0.00    +0.000 C 
BRANCH  30  31
ATOM     31  C   UNL     1      47.917 243.928 342.111  0.00  0.00    +0.000 C 
ATOM     32  C   UNL     1      47.367 242.503 341.979  0.00  0.00    +0.000 C 
BRANCH  32  33
ATOM     33  C   UNL     1      46.835 241.143 341.860  0.00  0.00    +0.000 C 
ATOM     34  F   UNL     1      47.734 240.401 341.153  0.00  0.00    +0.000 F 
ATOM     35  F   UNL     1      45.712 241.201 341.091  0.00  0.00    +0.000 F 
BRANCH  33  36
ATOM     36  C   UNL     1      46.534 240.489 343.212  0.00  0.00    +0.000 C 
ATOM     37  F   UNL     1      46.817 241.316 344.252  0.00  0.00    +0.000 F 
ATOM     38  F   UNL     1      47.253 239.355 343.404  0.00  0.00    +0.000 F 
ATOM     39  F   UNL     1      45.225 240.149 343.328  0.00  0.00    +0.000 F 
ENDBRANCH  33  36
ENDBRANCH  32  33
ENDBRANCH  30  31
ENDBRANCH  28  30
ENDBRANCH  27  28
ENDBRANCH  25  26
ENDBRANCH  23  24
ENDBRANCH  22  23
ENDBRANCH  20  21
ENDBRANCH   8  19
BRANCH   6  40
ATOM     40  O   UNL     1      49.783 242.662 325.217  0.00  0.00    +0.000 OA
ATOM     41  H   UNL     1      48.822 242.566 325.341  0.00  0.00    +0.000 HD
ENDBRANCH   6  40
BRANCH  18  42
ATOM     42  O   UNL     1      56.931 250.568 323.786  0.00  0.00    +0.000 OA
ATOM     43  H   UNL     1      57.031 251.174 324.541  0.00  0.00    +0.000 HD
ENDBRANCH  18  42
TORSDOF 12
ENDMDL
MODEL 3
REMARK VINA RESULT:      -5.7     31.045     32.548
REMARK  Name = Fulvestrant.pdbqt.pdb
REMARK  12 active torsions:
REMARK  status: ('A' for Active; 'I' for Inactive)
REMARK    1  A    between atoms: C_6  and  O_40
REMARK    2  A    between atoms: C_8  and  C_19
REMARK    3  A    between atoms: C_18  and  O_42
REMARK    4  A    between atoms: C_20  and  C_21
REMARK    5  A    between atoms: C_22  and  C_23
REMARK    6  A    between atoms: C_23  and  C_24
REMARK    7  A    between atoms: C_25  and  C_26
REMARK    8  A    between atoms: C_27  and  S_28
REMARK    9  A    between atoms: S_28  and  C_30
REMARK   10  A    between atoms: C_30  and  C_31
REMARK   11  A    between atoms: C_32  and  C_33
REMARK   12  A    between atoms: C_33  and  C_36
REMARK                            x       y       z     vdW  Elec       q    Type
REMARK                         _______ _______ _______ _____ _____    ______ ____
ROOT
ATOM      1  C   UNL     1      53.615 248.730 327.588  0.00  0.00    +0.000 C 
ATOM      2  C   UNL     1      54.120 250.248 327.467  0.00  0.00    +0.000 C 
ATOM      3  C   UNL     1      53.689 247.736 326.469  0.00  0.00    +0.000 A 
ATOM      4  C   UNL     1      54.616 247.959 325.256  0.00  0.00    +0.000 A 
ATOM      5  C   UNL     1      55.046 250.269 326.340  0.00  0.00    +0.000 C 
ATOM      6  C   UNL     1      54.804 250.493 328.830  0.00  0.00    +0.000 C 
ATOM      7  C   UNL     1      53.899 248.309 328.928  0.00  0.00    +0.000 C 
ATOM      8  C   UNL     1      52.891 246.481 326.477  0.00  0.00    +0.000 A 
ATOM      9  C   UNL     1      55.276 249.210 325.298  0.00  0.00    +0.000 C 
ATOM     10  C   UNL     1      54.648 249.372 329.688  0.00  0.00    +0.000 C 
ATOM     11  C   UNL     1      52.885 251.170 327.298  0.00  0.00    +0.000 C 
ATOM     12  C   UNL     1      54.758 246.984 324.138  0.00  0.00    +0.000 A 
ATOM     13  C   UNL     1      53.175 245.689 325.337  0.00  0.00    +0.000 A 
ATOM     14  C   UNL     1      53.999 245.791 324.188  0.00  0.00    +0.000 A 
ATOM     15  C   UNL     1      55.601 247.196 323.050  0.00  0.00    +0.000 A 
ATOM     16  C   UNL     1      54.066 244.830 323.191  0.00  0.00    +0.000 A 
ATOM     17  C   UNL     1      55.681 246.237 322.038  0.00  0.00    +0.000 A 
ATOM     18  C   UNL     1      54.917 245.071 322.117  0.00  0.00    +0.000 A 
ENDROOT
BRANCH   8  19
ATOM     19  C   UNL     1      51.855 246.215 327.404  0.00  0.00    +0.000 C 
ATOM     20  C   UNL     1      50.724 245.915 328.392  0.00  0.00    +0.000 C 
BRANCH  20  21
ATOM     21  C   UNL     1      49.580 245.599 329.360  0.00  0.00    +0.000 C 
ATOM     22  C   UNL     1      48.456 245.288 330.352  0.00  0.00    +0.000 C 
BRANCH  22  23
ATOM     23  C   UNL     1      47.354 244.977 331.370  0.00  0.00    +0.000 C 
BRANCH  23  24
ATOM     24  C   UNL     1      46.229 244.684 332.368  0.00  0.00    +0.000 C 
ATOM     25  C   UNL     1      45.127 244.377 333.387  0.00  0.00    +0.000 C 
BRANCH  25  26
ATOM     26  C   UNL     1      44.050 244.052 334.426  0.00  0.00    +0.000 C 
ATOM     27  C   UNL     1      42.967 243.694 335.449  0.00  0.00    +0.000 C 
BRANCH  27  28
ATOM     28  S   UNL     1      41.717 243.254 336.608  0.00  0.00    +0.000 S 
ATOM     29  O   UNL     1      40.646 243.307 335.558  0.00  0.00    +0.000 OA
BRANCH  28  30
ATOM     30  C   UNL     1      41.948 241.524 336.373  0.00  0.00    +0.000 C 
BRANCH  30  31
ATOM     31  C   UNL     1      42.164 240.023 336.149  0.00  0.00    +0.000 C 
ATOM     32  C   UNL     1      42.382 238.526 335.907  0.00  0.00    +0.000 C 
BRANCH  32  33
ATOM     33  C   UNL     1      42.588 237.095 335.666  0.00  0.00    +0.000 C 
ATOM     34  F   UNL     1      41.427 236.447 335.963  0.00  0.00    +0.000 F 
ATOM     35  F   UNL     1      43.506 236.649 336.569  0.00  0.00    +0.000 F 
BRANCH  33  36
ATOM     36  C   UNL     1      43.036 236.780 334.235  0.00  0.00    +0.000 C 
ATOM     37  F   UNL     1      42.664 237.749 333.360  0.00  0.00    +0.000 F 
ATOM     38  F   UNL     1      42.513 235.615 333.779  0.00  0.00    +0.000 F 
ATOM     39  F   UNL     1      44.386 236.666 334.143  0.00  0.00    +0.000 F 
ENDBRANCH  33  36
ENDBRANCH  32  33
ENDBRANCH  30  31
ENDBRANCH  28  30
ENDBRANCH  27  28
ENDBRANCH  25  26
ENDBRANCH  23  24
ENDBRANCH  22  23
ENDBRANCH  20  21
ENDBRANCH   8  19
BRANCH   6  40
ATOM     40  O   UNL     1      55.813 251.417 329.002  0.00  0.00    +0.000 OA
ATOM     41  H   UNL     1      56.551 251.267 328.384  0.00  0.00    +0.000 HD
ENDBRANCH   6  40
BRANCH  18  42
ATOM     42  O   UNL     1      55.027 244.162 321.102  0.00  0.00    +0.000 OA
ATOM     43  H   UNL     1      55.543 244.566 320.383  0.00  0.00    +0.000 HD
ENDBRANCH  18  42
TORSDOF 12
ENDMDL
MODEL 4
REMARK VINA RESULT:      -5.7     18.174     20.549
REMARK  Name = Fulvestrant.pdbqt.pdb
REMARK  12 active torsions:
REMARK  status: ('A' for Active; 'I' for Inactive)
REMARK    1  A    between atoms: C_6  and  O_40
REMARK    2  A    between atoms: C_8  and  C_19
REMARK    3  A    between atoms: C_18  and  O_42
REMARK    4  A    between atoms: C_20  and  C_21
REMARK    5  A    between atoms: C_22  and  C_23
REMARK    6  A    between atoms: C_23  and  C_24
REMARK    7  A    between atoms: C_25  and  C_26
REMARK    8  A    between atoms: C_27  and  S_28
REMARK    9  A    between atoms: S_28  and  C_30
REMARK   10  A    between atoms: C_30  and  C_31
REMARK   11  A    between atoms: C_32  and  C_33
REMARK   12  A    between atoms: C_33  and  C_36
REMARK                            x       y       z     vdW  Elec       q    Type
REMARK                         _______ _______ _______ _____ _____    ______ ____
ROOT
ATOM      1  C   UNL     1      61.328 229.631 352.186  0.00  0.00    +0.000 C 
ATOM      2  C   UNL     1      62.006 230.695 351.193  0.00  0.00    +0.000 C 
ATOM      3  C   UNL     1      61.960 228.326 352.564  0.00  0.00    +0.000 A 
ATOM      4  C   UNL     1      63.470 228.076 352.365  0.00  0.00    +0.000 A 
ATOM      5  C   UNL     1      63.430 230.379 351.186  0.00  0.00    +0.000 C 
ATOM      6  C   UNL     1      61.680 232.048 351.864  0.00  0.00    +0.000 C 
ATOM      7  C   UNL     1      60.620 230.387 353.176  0.00  0.00    +0.000 C 
ATOM      8  C   UNL     1      61.174 227.216 353.165  0.00  0.00    +0.000 A 
ATOM      9  C   UNL     1      64.120 229.155 351.720  0.00  0.00    +0.000 C 
ATOM     10  C   UNL     1      60.848 231.866 353.001  0.00  0.00    +0.000 C 
ATOM     11  C   UNL     1      61.319 230.589 349.808  0.00  0.00    +0.000 C 
ATOM     12  C   UNL     1      64.154 226.814 352.762  0.00  0.00    +0.000 A 
ATOM     13  C   UNL     1      62.005 226.113 353.478  0.00  0.00    +0.000 A 
ATOM     14  C   UNL     1      63.379 225.785 353.348  0.00  0.00    +0.000 A 
ATOM     15  C   UNL     1      65.519 226.602 352.579  0.00  0.00    +0.000 A 
ATOM     16  C   UNL     1      63.932 224.578 353.745  0.00  0.00    +0.000 A 
ATOM     17  C   UNL     1      66.091 225.391 352.974  0.00  0.00    +0.000 A 
ATOM     18  C   UNL     1      65.297 224.396 353.549  0.00  0.00    +0.000 A 
ENDROOT
BRANCH   8  19
ATOM     19  C   UNL     1      59.760 227.203 353.233  0.00  0.00    +0.000 C 
ATOM     20  C   UNL     1      58.230 227.177 353.288  0.00  0.00    +0.000 C 
BRANCH  20  21
ATOM     21  C   UNL     1      56.699 227.137 353.318  0.00  0.00    +0.000 C 
ATOM     22  C   UNL     1      55.168 227.113 353.320  0.00  0.00    +0.000 C 
BRANCH  22  23
ATOM     23  C   UNL     1      53.636 227.107 353.293  0.00  0.00    +0.000 C 
BRANCH  23  24
ATOM     24  C   UNL     1      52.104 227.106 353.301  0.00  0.00    +0.000 C 
ATOM     25  C   UNL     1      50.573 227.136 353.293  0.00  0.00    +0.000 C 
BRANCH  25  26
ATOM     26  C   UNL     1      49.042 227.199 353.272  0.00  0.00    +0.000 C 
ATOM     27  C   UNL     1      47.510 227.226 353.260  0.00  0.00    +0.000 C 
BRANCH  27  28
ATOM     28  S   UNL     1      45.750 227.223 353.251  0.00  0.00    +0.000 S 
ATOM     29  O   UNL     1      45.685 228.262 354.331  0.00  0.00    +0.000 OA
BRANCH  28  30
ATOM     30  C   UNL     1      45.640 228.442 351.985  0.00  0.00    +0.000 C 
BRANCH  30  31
ATOM     31  C   UNL     1      45.554 229.487 350.867  0.00  0.00    +0.000 C 
ATOM     32  C   UNL     1      45.449 230.529 349.748  0.00  0.00    +0.000 C 
BRANCH  32  33
ATOM     33  C   UNL     1      45.340 231.522 348.676  0.00  0.00    +0.000 C 
ATOM     34  F   UNL     1      45.963 232.660 349.093  0.00  0.00    +0.000 F 
ATOM     35  F   UNL     1      44.023 231.845 348.541  0.00  0.00    +0.000 F 
BRANCH  33  36
ATOM     36  C   UNL     1      45.921 231.041 347.343  0.00  0.00    +0.000 C 
ATOM     37  F   UNL     1      46.827 231.917 346.837  0.00  0.00    +0.000 F 
ATOM     38  F   UNL     1      44.964 230.875 346.397  0.00  0.00    +0.000 F 
ATOM     39  F   UNL     1      46.558 229.849 347.471  0.00  0.00    +0.000 F 
ENDBRANCH  33  36
ENDBRANCH  32  33
ENDBRANCH  30  31
ENDBRANCH  28  30
ENDBRANCH  27  28
ENDBRANCH  25  26
ENDBRANCH  23  24
ENDBRANCH  22  23
ENDBRANCH  20  21
ENDBRANCH   8  19
BRANCH   6  40
ATOM     40  O   UNL     1      62.461 233.171 351.695  0.00  0.00    +0.000 OA
ATOM     41  H   UNL     1      63.335 233.069 352.112  0.00  0.00    +0.000 HD
ENDBRANCH   6  40
BRANCH  18  42
ATOM     42  O   UNL     1      65.901 223.228 353.919  0.00  0.00    +0.000 OA
ATOM     43  H   UNL     1      65.821 223.133 354.884  0.00  0.00    +0.000 HD
ENDBRANCH  18  42
TORSDOF 12
ENDMDL
MODEL 5
REMARK VINA RESULT:      -5.6     25.674     27.202
REMARK  Name = Fulvestrant.pdbqt.pdb
REMARK  12 active torsions:
REMARK  status: ('A' for Active; 'I' for Inactive)
REMARK    1  A    between atoms: C_6  and  O_40
REMARK    2  A    between atoms: C_8  and  C_19
REMARK    3  A    between atoms: C_18  and  O_42
REMARK    4  A    between atoms: C_20  and  C_21
REMARK    5  A    between atoms: C_22  and  C_23
REMARK    6  A    between atoms: C_23  and  C_24
REMARK    7  A    between atoms: C_25  and  C_26
REMARK    8  A    between atoms: C_27  and  S_28
REMARK    9  A    between atoms: S_28  and  C_30
REMARK   10  A    between atoms: C_30  and  C_31
REMARK   11  A    between atoms: C_32  and  C_33
REMARK   12  A    between atoms: C_33  and  C_36
REMARK                            x       y       z     vdW  Elec       q    Type
REMARK                         _______ _______ _______ _____ _____    ______ ____
ROOT
ATOM      1  C   UNL     1      53.589 241.875 347.999  0.00  0.00    +0.000 C 
ATOM      2  C   UNL     1      54.322 242.903 347.009  0.00  0.00    +0.000 C 
ATOM      3  C   UNL     1      54.302 241.073 349.045  0.00  0.00    +0.000 A 
ATOM      4  C   UNL     1      55.715 241.461 349.530  0.00  0.00    +0.000 A 
ATOM      5  C   UNL     1      55.591 243.234 347.650  0.00  0.00    +0.000 C 
ATOM      6  C   UNL     1      53.335 244.089 346.950  0.00  0.00    +0.000 C 
ATOM      7  C   UNL     1      52.304 242.436 348.294  0.00  0.00    +0.000 C 
ATOM      8  C   UNL     1      53.684 239.879 349.679  0.00  0.00    +0.000 A 
ATOM      9  C   UNL     1      56.253 242.560 348.819  0.00  0.00    +0.000 C 
ATOM     10  C   UNL     1      52.148 243.801 347.675  0.00  0.00    +0.000 C 
ATOM     11  C   UNL     1      54.463 242.236 345.617  0.00  0.00    +0.000 C 
ATOM     12  C   UNL     1      56.451 240.722 350.595  0.00  0.00    +0.000 A 
ATOM     13  C   UNL     1      54.535 239.328 350.667  0.00  0.00    +0.000 A 
ATOM     14  C   UNL     1      55.824 239.602 351.191  0.00  0.00    +0.000 A 
ATOM     15  C   UNL     1      57.725 241.084 351.026  0.00  0.00    +0.000 A 
ATOM     16  C   UNL     1      56.436 238.856 352.185  0.00  0.00    +0.000 A 
ATOM     17  C   UNL     1      58.354 240.343 352.028  0.00  0.00    +0.000 A 
ATOM     18  C   UNL     1      57.708 239.242 352.594  0.00  0.00    +0.000 A 
ENDROOT
BRANCH   8  19
ATOM     19  C   UNL     1      52.490 239.275 349.217  0.00  0.00    +0.000 C 
ATOM     20  C   UNL     1      51.205 238.623 348.696  0.00  0.00    +0.000 C 
BRANCH  20  21
ATOM     21  C   UNL     1      49.929 237.978 348.149  0.00  0.00    +0.000 C 
ATOM     22  C   UNL     1      48.670 237.307 347.591  0.00  0.00    +0.000 C 
BRANCH  22  23
ATOM     23  C   UNL     1      47.431 236.611 347.021  0.00  0.00    +0.000 C 
BRANCH  23  24
ATOM     24  C   UNL     1      46.188 235.940 346.426  0.00  0.00    +0.000 C 
ATOM     25  C   UNL     1      44.966 235.243 345.821  0.00  0.00    +0.000 C 
BRANCH  25  26
ATOM     26  C   UNL     1      43.765 234.519 345.204  0.00  0.00    +0.000 C 
ATOM     27  C   UNL     1      42.545 233.827 344.587  0.00  0.00    +0.000 C 
BRANCH  27  28
ATOM     28  S   UNL     1      41.126 233.063 343.879  0.00  0.00    +0.000 S 
ATOM     29  O   UNL     1      40.211 234.108 344.444  0.00  0.00    +0.000 OA
BRANCH  28  30
ATOM     30  C   UNL     1      41.278 233.929 342.354  0.00  0.00    +0.000 C 
BRANCH  30  31
ATOM     31  C   UNL     1      41.398 234.702 341.036  0.00  0.00    +0.000 C 
ATOM     32  C   UNL     1      41.515 235.491 339.727  0.00  0.00    +0.000 C 
BRANCH  32  33
ATOM     33  C   UNL     1      41.624 236.253 338.480  0.00  0.00    +0.000 C 
ATOM     34  F   UNL     1      40.865 237.378 338.608  0.00  0.00    +0.000 F 
ATOM     35  F   UNL     1      41.042 235.519 337.491  0.00  0.00    +0.000 F 
BRANCH  33  36
ATOM     36  C   UNL     1      43.068 236.610 338.113  0.00  0.00    +0.000 C 
ATOM     37  F   UNL     1      43.226 236.784 336.776  0.00  0.00    +0.000 F 
ATOM     38  F   UNL     1      43.946 235.648 338.492  0.00  0.00    +0.000 F 
ATOM     39  F   UNL     1      43.469 237.763 338.708  0.00  0.00    +0.000 F 
ENDBRANCH  33  36
ENDBRANCH  32  33
ENDBRANCH  30  31
ENDBRANCH  28  30
ENDBRANCH  27  28
ENDBRANCH  25  26
ENDBRANCH  23  24
ENDBRANCH  22  23
ENDBRANCH  20  21
ENDBRANCH   8  19
BRANCH   6  40
ATOM     40  O   UNL     1      53.735 245.380 346.676  0.00  0.00    +0.000 OA
ATOM     41  H   UNL     1      52.991 246.007 346.723  0.00  0.00    +0.000 HD
ENDBRANCH   6  40
BRANCH  18  42
ATOM     42  O   UNL     1      58.364 238.547 353.571  0.00  0.00    +0.000 OA
ATOM     43  H   UNL     1      58.261 237.595 353.392  0.00  0.00    +0.000 HD
ENDBRANCH  18  42
TORSDOF 12
ENDMDL
MODEL 6
REMARK VINA RESULT:      -5.6      8.096     20.167
REMARK  Name = Fulvestrant.pdbqt.pdb
REMARK  12 active torsions:
REMARK  status: ('A' for Active; 'I' for Inactive)
REMARK    1  A    between atoms: C_6  and  O_40
REMARK    2  A    between atoms: C_8  and  C_19
REMARK    3  A    between atoms: C_18  and  O_42
REMARK    4  A    between atoms: C_20  and  C_21
REMARK    5  A    between atoms: C_22  and  C_23
REMARK    6  A    between atoms: C_23  and  C_24
REMARK    7  A    between atoms: C_25  and  C_26
REMARK    8  A    between atoms: C_27  and  S_28
REMARK    9  A    between atoms: S_28  and  C_30
REMARK   10  A    between atoms: C_30  and  C_31
REMARK   11  A    between atoms: C_32  and  C_33
REMARK   12  A    between atoms: C_33  and  C_36
REMARK                            x       y       z     vdW  Elec       q    Type
REMARK                         _______ _______ _______ _____ _____    ______ ____
ROOT
ATOM      1  C   UNL     1      55.111 217.678 329.260  0.00  0.00    +0.000 C 
ATOM      2  C   UNL     1      55.170 218.147 327.727  0.00  0.00    +0.000 C 
ATOM      3  C   UNL     1      53.949 217.943 330.168  0.00  0.00    +0.000 A 
ATOM      4  C   UNL     1      52.561 218.321 329.609  0.00  0.00    +0.000 A 
ATOM      5  C   UNL     1      53.785 218.377 327.330  0.00  0.00    +0.000 C 
ATOM      6  C   UNL     1      55.820 216.937 327.021  0.00  0.00    +0.000 C 
ATOM      7  C   UNL     1      55.789 216.417 329.330  0.00  0.00    +0.000 C 
ATOM      8  C   UNL     1      54.066 217.840 331.647  0.00  0.00    +0.000 A 
ATOM      9  C   UNL     1      52.564 218.470 328.201  0.00  0.00    +0.000 C 
ATOM     10  C   UNL     1      56.205 215.944 327.961  0.00  0.00    +0.000 C 
ATOM     11  C   UNL     1      56.081 219.397 327.625  0.00  0.00    +0.000 C 
ATOM     12  C   UNL     1      51.364 218.555 330.465  0.00  0.00    +0.000 A 
ATOM     13  C   UNL     1      52.821 218.088 332.276  0.00  0.00    +0.000 A 
ATOM     14  C   UNL     1      51.507 218.429 331.867  0.00  0.00    +0.000 A 
ATOM     15  C   UNL     1      50.116 218.893 329.946  0.00  0.00    +0.000 A 
ATOM     16  C   UNL     1      50.448 218.631 332.738  0.00  0.00    +0.000 A 
ATOM     17  C   UNL     1      49.040 219.099 330.812  0.00  0.00    +0.000 A 
ATOM     18  C   UNL     1      49.215 218.968 332.190  0.00  0.00    +0.000 A 
ENDROOT
BRANCH   8  19
ATOM     19  C   UNL     1      55.298 217.700 332.329  0.00  0.00    +0.000 C 
ATOM     20  C   UNL     1      56.641 217.563 333.053  0.00  0.00    +0.000 C 
BRANCH  20  21
ATOM     21  C   UNL     1      57.995 217.443 333.758  0.00  0.00    +0.000 C 
ATOM     22  C   UNL     1      59.361 217.308 334.437  0.00  0.00    +0.000 C 
BRANCH  22  23
ATOM     23  C   UNL     1      60.738 217.154 335.090  0.00  0.00    +0.000 C 
BRANCH  23  24
ATOM     24  C   UNL     1      62.100 216.981 335.771  0.00  0.00    +0.000 C 
ATOM     25  C   UNL     1      63.477 216.826 336.424  0.00  0.00    +0.000 C 
BRANCH  25  26
ATOM     26  C   UNL     1      64.869 216.685 337.048  0.00  0.00    +0.000 C 
ATOM     27  C   UNL     1      66.253 216.509 337.682  0.00  0.00    +0.000 C 
BRANCH  27  28
ATOM     28  S   UNL     1      67.832 216.276 338.422  0.00  0.00    +0.000 S 
ATOM     29  O   UNL     1      68.480 216.016 337.094  0.00  0.00    +0.000 OA
BRANCH  28  30
ATOM     30  C   UNL     1      68.242 217.987 338.358  0.00  0.00    +0.000 C 
BRANCH  30  31
ATOM     31  C   UNL     1      68.591 219.478 338.278  0.00  0.00    +0.000 C 
ATOM     32  C   UNL     1      68.930 220.969 338.183  0.00  0.00    +0.000 C 
BRANCH  32  33
ATOM     33  C   UNL     1      69.249 222.396 338.083  0.00  0.00    +0.000 C 
ATOM     34  F   UNL     1      68.076 223.089 338.065  0.00  0.00    +0.000 F 
ATOM     35  F   UNL     1      69.827 222.609 336.867  0.00  0.00    +0.000 F 
BRANCH  33  36
ATOM     36  C   UNL     1      70.158 222.894 339.211  0.00  0.00    +0.000 C 
ATOM     37  F   UNL     1      71.399 223.212 338.762  0.00  0.00    +0.000 F 
ATOM     38  F   UNL     1      70.319 221.966 340.187  0.00  0.00    +0.000 F 
ATOM     39  F   UNL     1      69.659 224.007 339.807  0.00  0.00    +0.000 F 
ENDBRANCH  33  36
ENDBRANCH  32  33
ENDBRANCH  30  31
ENDBRANCH  28  30
ENDBRANCH  27  28
ENDBRANCH  25  26
ENDBRANCH  23  24
ENDBRANCH  22  23
ENDBRANCH  20  21
ENDBRANCH   8  19
BRANCH   6  40
ATOM     40  O   UNL     1      55.605 216.646 325.690  0.00  0.00    +0.000 OA
ATOM     41  H   UNL     1      55.104 215.819 325.577  0.00  0.00    +0.000 HD
ENDBRANCH   6  40
BRANCH  18  42
ATOM     42  O   UNL     1      48.133 219.180 332.997  0.00  0.00    +0.000 OA
ATOM     43  H   UNL     1      48.053 218.426 333.608  0.00  0.00    +0.000 HD
ENDBRANCH  18  42
TORSDOF 12
ENDMDL
MODEL 7
REMARK VINA RESULT:      -5.6     29.807     31.420
REMARK  Name = Fulvestrant.pdbqt.pdb
REMARK  12 active torsions:
REMARK  status: ('A' for Active; 'I' for Inactive)
REMARK    1  A    between atoms: C_6  and  O_40
REMARK    2  A    between atoms: C_8  and  C_19
REMARK    3  A    between atoms: C_18  and  O_42
REMARK    4  A    between atoms: C_20  and  C_21
REMARK    5  A    between atoms: C_22  and  C_23
REMARK    6  A    between atoms: C_23  and  C_24
REMARK    7  A    between atoms: C_25  and  C_26
REMARK    8  A    between atoms: C_27  and  S_28
REMARK    9  A    between atoms: S_28  and  C_30
REMARK   10  A    between atoms: C_30  and  C_31
REMARK   11  A    between atoms: C_32  and  C_33
REMARK   12  A    between atoms: C_33  and  C_36
REMARK                            x       y       z     vdW  Elec       q    Type
REMARK                         _______ _______ _______ _____ _____    ______ ____
ROOT
ATOM      1  C   UNL     1      53.550 245.317 324.529  0.00  0.00    +0.000 C 
ATOM      2  C   UNL     1      52.896 246.359 325.559  0.00  0.00    +0.000 C 
ATOM      3  C   UNL     1      54.550 245.698 323.480  0.00  0.00    +0.000 A 
ATOM      4  C   UNL     1      55.336 247.024 323.564  0.00  0.00    +0.000 A 
ATOM      5  C   UNL     1      53.798 247.506 325.588  0.00  0.00    +0.000 C 
ATOM      6  C   UNL     1      52.869 245.564 326.883  0.00  0.00    +0.000 C 
ATOM      7  C   UNL     1      53.705 244.082 325.238  0.00  0.00    +0.000 C 
ATOM      8  C   UNL     1      54.850 244.817 322.321  0.00  0.00    +0.000 A 
ATOM      9  C   UNL     1      54.931 247.829 324.655  0.00  0.00    +0.000 C 
ATOM     10  C   UNL     1      53.314 244.229 326.686  0.00  0.00    +0.000 C 
ATOM     11  C   UNL     1      51.457 246.688 325.087  0.00  0.00    +0.000 C 
ATOM     12  C   UNL     1      56.370 247.431 322.572  0.00  0.00    +0.000 A 
ATOM     13  C   UNL     1      55.863 245.376 321.504  0.00  0.00    +0.000 A 
ATOM     14  C   UNL     1      56.644 246.560 321.491  0.00  0.00    +0.000 A 
ATOM     15  C   UNL     1      57.075 248.630 322.660  0.00  0.00    +0.000 A 
ATOM     16  C   UNL     1      57.588 246.859 320.521  0.00  0.00    +0.000 A 
ATOM     17  C   UNL     1      58.029 248.945 321.691  0.00  0.00    +0.000 A 
ATOM     18  C   UNL     1      58.274 248.064 320.637  0.00  0.00    +0.000 A 
ENDROOT
BRANCH   8  19
ATOM     19  C   UNL     1      54.088 243.672 321.987  0.00  0.00    +0.000 C 
ATOM     20  C   UNL     1      53.246 242.446 321.623  0.00  0.00    +0.000 C 
BRANCH  20  21
ATOM     21  C   UNL     1      52.381 241.237 321.256  0.00  0.00    +0.000 C 
ATOM     22  C   UNL     1      51.491 240.048 320.880  0.00  0.00    +0.000 C 
BRANCH  22  23
ATOM     23  C   UNL     1      50.576 238.880 320.498  0.00  0.00    +0.000 C 
BRANCH  23  24
ATOM     24  C   UNL     1      49.688 237.690 320.120  0.00  0.00    +0.000 C 
ATOM     25  C   UNL     1      48.812 236.483 319.772  0.00  0.00    +0.000 C 
BRANCH  25  26
ATOM     26  C   UNL     1      47.949 235.258 319.452  0.00  0.00    +0.000 C 
ATOM     27  C   UNL     1      47.058 234.056 319.122  0.00  0.00    +0.000 C 
BRANCH  27  28
ATOM     28  S   UNL     1      46.008 232.697 318.738  0.00  0.00    +0.000 S 
ATOM     29  O   UNL     1      47.033 231.702 319.196  0.00  0.00    +0.000 OA
BRANCH  28  30
ATOM     30  C   UNL     1      45.225 232.709 320.315  0.00  0.00    +0.000 C 
BRANCH  30  31
ATOM     31  C   UNL     1      44.524 232.708 321.678  0.00  0.00    +0.000 C 
ATOM     32  C   UNL     1      43.807 232.704 323.033  0.00  0.00    +0.000 C 
BRANCH  32  33
ATOM     33  C   UNL     1      43.112 232.699 324.323  0.00  0.00    +0.000 C 
ATOM     34  F   UNL     1      41.906 232.088 324.149  0.00  0.00    +0.000 F 
ATOM     35  F   UNL     1      42.833 233.991 324.651  0.00  0.00    +0.000 F 
BRANCH  33  36
ATOM     36  C   UNL     1      43.911 232.016 325.439  0.00  0.00    +0.000 C 
ATOM     37  F   UNL     1      43.119 231.643 326.477  0.00  0.00    +0.000 F 
ATOM     38  F   UNL     1      44.874 232.825 325.948  0.00  0.00    +0.000 F 
ATOM     39  F   UNL     1      44.534 230.893 324.998  0.00  0.00    +0.000 F 
ENDBRANCH  33  36
ENDBRANCH  32  33
ENDBRANCH  30  31
ENDBRANCH  28  30
ENDBRANCH  27  28
ENDBRANCH  25  26
ENDBRANCH  23  24
ENDBRANCH  22  23
ENDBRANCH  20  21
ENDBRANCH   8  19
BRANCH   6  40
ATOM     40  O   UNL     1      52.897 246.174 328.120  0.00  0.00    +0.000 OA
ATOM     41  H   UNL     1      52.441 247.034 328.109  0.00  0.00    +0.000 HD
ENDBRANCH   6  40
BRANCH  18  42
ATOM     42  O   UNL     1      59.216 248.416 319.712  0.00  0.00    +0.000 OA
ATOM     43  H   UNL     1      59.255 247.720 319.033  0.00  0.00    +0.000 HD
ENDBRANCH  18  42
TORSDOF 12
ENDMDL
MODEL 8
REMARK VINA RESULT:      -5.6     23.742     25.906
REMARK  Name = Fulvestrant.pdbqt.pdb
REMARK  12 active torsions:
REMARK  status: ('A' for Active; 'I' for Inactive)
REMARK    1  A    between atoms: C_6  and  O_40
REMARK    2  A    between atoms: C_8  and  C_19
REMARK    3  A    between atoms: C_18  and  O_42
REMARK    4  A    between atoms: C_20  and  C_21
REMARK    5  A    between atoms: C_22  and  C_23
REMARK    6  A    between atoms: C_23  and  C_24
REMARK    7  A    between atoms: C_25  and  C_26
REMARK    8  A    between atoms: C_27  and  S_28
REMARK    9  A    between atoms: S_28  and  C_30
REMARK   10  A    between atoms: C_30  and  C_31
REMARK   11  A    between atoms: C_32  and  C_33
REMARK   12  A    between atoms: C_33  and  C_36
REMARK                            x       y       z     vdW  Elec       q    Type
REMARK                         _______ _______ _______ _____ _____    ______ ____
ROOT
ATOM      1  C   UNL     1      53.607 241.846 348.028  0.00  0.00    +0.000 C 
ATOM      2  C   UNL     1      54.266 242.906 347.020  0.00  0.00    +0.000 C 
ATOM      3  C   UNL     1      54.385 241.076 349.051  0.00  0.00    +0.000 A 
ATOM      4  C   UNL     1      55.792 241.526 349.497  0.00  0.00    +0.000 A 
ATOM      5  C   UNL     1      55.536 243.293 347.625  0.00  0.00    +0.000 C 
ATOM      6  C   UNL     1      53.226 244.047 346.991  0.00  0.00    +0.000 C 
ATOM      7  C   UNL     1      52.307 242.349 348.359  0.00  0.00    +0.000 C 
ATOM      8  C   UNL     1      53.838 239.855 349.700  0.00  0.00    +0.000 A 
ATOM      9  C   UNL     1      56.260 242.648 348.774  0.00  0.00    +0.000 C 
ATOM     10  C   UNL     1      52.073 243.706 347.749  0.00  0.00    +0.000 C 
ATOM     11  C   UNL     1      54.397 242.248 345.623  0.00  0.00    +0.000 C 
ATOM     12  C   UNL     1      56.590 240.820 350.540  0.00  0.00    +0.000 A 
ATOM     13  C   UNL     1      54.741 239.341 350.663  0.00  0.00    +0.000 A 
ATOM     14  C   UNL     1      56.030 239.672 351.150  0.00  0.00    +0.000 A 
ATOM     15  C   UNL     1      57.858 241.238 350.935  0.00  0.00    +0.000 A 
ATOM     16  C   UNL     1      56.702 238.953 352.126  0.00  0.00    +0.000 A 
ATOM     17  C   UNL     1      58.547 240.524 351.918  0.00  0.00    +0.000 A 
ATOM     18  C   UNL     1      57.968 239.396 352.500  0.00  0.00    +0.000 A 
ENDROOT
BRANCH   8  19
ATOM     19  C   UNL     1      52.660 239.198 349.270  0.00  0.00    +0.000 C 
ATOM     20  C   UNL     1      51.391 238.491 348.785  0.00  0.00    +0.000 C 
BRANCH  20  21
ATOM     21  C   UNL     1      50.130 237.791 348.272  0.00  0.00    +0.000 C 
ATOM     22  C   UNL     1      48.886 237.066 347.747  0.00  0.00    +0.000 C 
BRANCH  22  23
ATOM     23  C   UNL     1      47.663 236.318 347.208  0.00  0.00    +0.000 C 
BRANCH  23  24
ATOM     24  C   UNL     1      46.461 235.545 346.655  0.00  0.00    +0.000 C 
ATOM     25  C   UNL     1      45.250 234.765 346.135  0.00  0.00    +0.000 C 
BRANCH  25  26
ATOM     26  C   UNL     1      44.030 233.976 345.649  0.00  0.00    +0.000 C 
ATOM     27  C   UNL     1      42.827 233.183 345.129  0.00  0.00    +0.000 C 
BRANCH  27  28
ATOM     28  S   UNL     1      41.458 232.273 344.500  0.00  0.00    +0.000 S 
ATOM     29  O   UNL     1      41.713 232.747 343.100  0.00  0.00    +0.000 OA
BRANCH  28  30
ATOM     30  C   UNL     1      42.403 230.809 344.243  0.00  0.00    +0.000 C 
BRANCH  30  31
ATOM     31  C   UNL     1      43.230 229.542 343.996  0.00  0.00    +0.000 C 
ATOM     32  C   UNL     1      44.065 228.284 343.735  0.00  0.00    +0.000 C 
BRANCH  32  33
ATOM     33  C   UNL     1      44.866 227.084 343.477  0.00  0.00    +0.000 C 
ATOM     34  F   UNL     1      44.951 226.919 342.126  0.00  0.00    +0.000 F 
ATOM     35  F   UNL     1      44.169 226.010 343.941  0.00  0.00    +0.000 F 
BRANCH  33  36
ATOM     36  C   UNL     1      46.261 227.141 344.107  0.00  0.00    +0.000 C 
ATOM     37  F   UNL     1      46.720 225.906 344.438  0.00  0.00    +0.000 F 
ATOM     38  F   UNL     1      46.282 227.886 345.239  0.00  0.00    +0.000 F 
ATOM     39  F   UNL     1      47.175 227.684 343.262  0.00  0.00    +0.000 F 
ENDBRANCH  33  36
ENDBRANCH  32  33
ENDBRANCH  30  31
ENDBRANCH  28  30
ENDBRANCH  27  28
ENDBRANCH  25  26
ENDBRANCH  23  24
ENDBRANCH  22  23
ENDBRANCH  20  21
ENDBRANCH   8  19
BRANCH   6  40
ATOM     40  O   UNL     1      53.560 245.355 346.708  0.00  0.00    +0.000 OA
ATOM     41  H   UNL     1      52.791 245.948 346.777  0.00  0.00    +0.000 HD
ENDBRANCH   6  40
BRANCH  18  42
ATOM     42  O   UNL     1      58.680 238.729 353.456  0.00  0.00    +0.000 OA
ATOM     43  H   UNL     1      58.615 237.774 353.278  0.00  0.00    +0.000 HD
ENDBRANCH  18  42
TORSDOF 12
ENDMDL
MODEL 9
REMARK VINA RESULT:      -5.5     25.860     31.088
REMARK  Name = Fulvestrant.pdbqt.pdb
REMARK  12 active torsions:
REMARK  status: ('A' for Active; 'I' for Inactive)
REMARK    1  A    between atoms: C_6  and  O_40
REMARK    2  A    between atoms: C_8  and  C_19
REMARK    3  A    between atoms: C_18  and  O_42
REMARK    4  A    between atoms: C_20  and  C_21
REMARK    5  A    between atoms: C_22  and  C_23
REMARK    6  A    between atoms: C_23  and  C_24
REMARK    7  A    between atoms: C_25  and  C_26
REMARK    8  A    between atoms: C_27  and  S_28
REMARK    9  A    between atoms: S_28  and  C_30
REMARK   10  A    between atoms: C_30  and  C_31
REMARK   11  A    between atoms: C_32  and  C_33
REMARK   12  A    between atoms: C_33  and  C_36
REMARK                            x       y       z     vdW  Elec       q    Type
REMARK                         _______ _______ _______ _____ _____    ______ ____
ROOT
ATOM      1  C   UNL     1      42.131 238.016 336.895  0.00  0.00    +0.000 C 
ATOM      2  C   UNL     1      41.504 238.430 338.313  0.00  0.00    +0.000 C 
ATOM      3  C   UNL     1      42.512 239.002 335.833  0.00  0.00    +0.000 A 
ATOM      4  C   UNL     1      42.717 240.496 336.161  0.00  0.00    +0.000 A 
ATOM      5  C   UNL     1      41.860 239.831 338.510  0.00  0.00    +0.000 C 
ATOM      6  C   UNL     1      42.213 237.472 339.296  0.00  0.00    +0.000 C 
ATOM      7  C   UNL     1      42.964 236.875 337.132  0.00  0.00    +0.000 C 
ATOM      8  C   UNL     1      42.728 238.594 334.420  0.00  0.00    +0.000 A 
ATOM      9  C   UNL     1      42.416 240.805 337.509  0.00  0.00    +0.000 C 
ATOM     10  C   UNL     1      43.040 236.549 338.601  0.00  0.00    +0.000 C 
ATOM     11  C   UNL     1      39.979 238.154 338.282  0.00  0.00    +0.000 C 
ATOM     12  C   UNL     1      43.136 241.510 335.152  0.00  0.00    +0.000 A 
ATOM     13  C   UNL     1      43.128 239.696 333.626  0.00  0.00    +0.000 A 
ATOM     14  C   UNL     1      43.352 241.082 333.820  0.00  0.00    +0.000 A 
ATOM     15  C   UNL     1      43.320 242.855 335.461  0.00  0.00    +0.000 A 
ATOM     16  C   UNL     1      43.740 241.956 332.818  0.00  0.00    +0.000 A 
ATOM     17  C   UNL     1      43.712 243.748 334.462  0.00  0.00    +0.000 A 
ATOM     18  C   UNL     1      43.916 243.294 333.158  0.00  0.00    +0.000 A 
ENDROOT
BRANCH   8  19
ATOM     19  C   UNL     1      42.394 237.315 333.913  0.00  0.00    +0.000 C 
ATOM     20  C   UNL     1      42.051 235.924 333.370  0.00  0.00    +0.000 C 
BRANCH  20  21
ATOM     21  C   UNL     1      41.735 234.525 332.835  0.00  0.00    +0.000 C 
ATOM     22  C   UNL     1      41.446 233.114 332.313  0.00  0.00    +0.000 C 
BRANCH  22  23
ATOM     23  C   UNL     1      41.187 231.693 331.805  0.00  0.00    +0.000 C 
BRANCH  23  24
ATOM     24  C   UNL     1      40.963 230.265 331.296  0.00  0.00    +0.000 C 
ATOM     25  C   UNL     1      40.766 228.842 330.765  0.00  0.00    +0.000 C 
BRANCH  25  26
ATOM     26  C   UNL     1      40.593 227.425 330.208  0.00  0.00    +0.000 C 
ATOM     27  C   UNL     1      40.441 226.018 329.622  0.00  0.00    +0.000 C 
BRANCH  27  28
ATOM     28  S   UNL     1      40.282 224.412 328.919  0.00  0.00    +0.000 S 
ATOM     29  O   UNL     1      40.541 224.929 327.535  0.00  0.00    +0.000 OA
BRANCH  28  30
ATOM     30  C   UNL     1      41.981 224.015 329.156  0.00  0.00    +0.000 C 
BRANCH  30  31
ATOM     31  C   UNL     1      43.456 223.668 329.387  0.00  0.00    +0.000 C 
ATOM     32  C   UNL     1      44.935 223.328 329.600  0.00  0.00    +0.000 C 
BRANCH  32  33
ATOM     33  C   UNL     1      46.351 223.004 329.794  0.00  0.00    +0.000 C 
ATOM     34  F   UNL     1      46.956 223.017 328.573  0.00  0.00    +0.000 F 
ATOM     35  F   UNL     1      46.427 221.717 330.235  0.00  0.00    +0.000 F 
BRANCH  33  36
ATOM     36  C   UNL     1      47.062 223.953 330.764  0.00  0.00    +0.000 C 
ATOM     37  F   UNL     1      47.802 223.281 331.683  0.00  0.00    +0.000 F 
ATOM     38  F   UNL     1      46.189 224.730 331.453  0.00  0.00    +0.000 F 
ATOM     39  F   UNL     1      47.909 224.794 330.117  0.00  0.00    +0.000 F 
ENDBRANCH  33  36
ENDBRANCH  32  33
ENDBRANCH  30  31
ENDBRANCH  28  30
ENDBRANCH  27  28
ENDBRANCH  25  26
ENDBRANCH  23  24
ENDBRANCH  22  23
ENDBRANCH  20  21
ENDBRANCH   8  19
BRANCH   6  40
ATOM     40  O   UNL     1      42.408 237.778 340.626  0.00  0.00    +0.000 OA
ATOM     41  H   UNL     1      41.907 237.182 341.211  0.00  0.00    +0.000 HD
ENDBRANCH   6  40
BRANCH  18  42
ATOM     42  O   UNL     1      44.297 244.205 332.213  0.00  0.00    +0.000 OA
ATOM     43  H   UNL     1      43.498 244.631 331.857  0.00  0.00    +0.000 HD
ENDBRANCH  18  42
TORSDOF 12
ENDMDL
