MODEL 1
REMARK VINA RESULT:      -5.2      0.000      0.000
REMARK  Name = Gefitinib.pdbqt.pdb
REMARK  6 active torsions:
REMARK  status: ('A' for Active; 'I' for Inactive)
REMARK    1  A    between atoms: C_3  and  O_11
REMARK    2  A    between atoms: C_6  and  O_21
REMARK    3  A    between atoms: O_11  and  C_12
REMARK    4  A    between atoms: C_13  and  C_14
REMARK    5  A    between atoms: C_14  and  N_15
REMARK    6  A    between atoms: N_23  and  C_25
REMARK                            x       y       z     vdW  Elec       q    Type
REMARK                         _______ _______ _______ _____ _____    ______ ____
ROOT
ATOM      1  N   UNL     1      55.585 228.249 317.951  0.00  0.00    +0.000 NA
ATOM      2  N   UNL     1      57.602 229.022 318.956  0.00  0.00    +0.000 NA
ATOM      3  C   UNL     1      55.363 225.078 320.634  0.00  0.00    +0.000 A 
ATOM      4  C   UNL     1      56.508 227.078 319.821  0.00  0.00    +0.000 A 
ATOM      5  C   UNL     1      56.412 225.994 320.710  0.00  0.00    +0.000 A 
ATOM      6  C   UNL     1      54.387 225.250 319.652  0.00  0.00    +0.000 A 
ATOM      7  C   UNL     1      55.538 227.247 318.830  0.00  0.00    +0.000 A 
ATOM      8  C   UNL     1      54.497 226.331 318.769  0.00  0.00    +0.000 A 
ATOM      9  C   UNL     1      57.544 228.023 319.851  0.00  0.00    +0.000 A 
ATOM     10  C   UNL     1      56.620 229.092 318.049  0.00  0.00    +0.000 A 
ATOM     11  N   UNL     1      58.569 227.888 320.822  0.00  0.00    +0.000 N 
ATOM     12  H   UNL     1      58.180 227.704 321.741  0.00  0.00    +0.000 HD
ENDROOT
BRANCH  11  13
ATOM     13  C   UNL     1      59.789 228.596 320.898  0.00  0.00    +0.000 A 
ATOM     14  C   UNL     1      60.884 228.140 320.155  0.00  0.00    +0.000 A 
ATOM     15  C   UNL     1      62.074 228.862 320.117  0.00  0.00    +0.000 A 
ATOM     16 CL   UNL     1      63.395 228.235 319.214  0.00  0.00    +0.000 Cl
ATOM     17  C   UNL     1      62.174 230.068 320.801  0.00  0.00    +0.000 A 
ATOM     18  F   UNL     1      63.312 230.778 320.776  0.00  0.00    +0.000 F 
ATOM     19  C   UNL     1      61.090 230.562 321.514  0.00  0.00    +0.000 A 
ATOM     20  C   UNL     1      59.903 229.833 321.543  0.00  0.00    +0.000 A 
ENDBRANCH  11  13
BRANCH   6  21
ATOM     21  O   UNL     1      53.371 224.324 319.611  0.00  0.00    +0.000 OA
ATOM     22  C   UNL     1      52.136 224.798 319.153  0.00  0.00    +0.000 C 
ENDBRANCH   6  21
BRANCH   3  23
ATOM     23  O   UNL     1      55.234 224.006 321.485  0.00  0.00    +0.000 OA
BRANCH  23  24
ATOM     24  C   UNL     1      56.281 223.798 322.280  0.00  0.00    +0.000 C 
ATOM     25  C   UNL     1      57.477 223.547 323.204  0.00  0.00    +0.000 C 
BRANCH  25  26
ATOM     26  C   UNL     1      58.655 223.268 324.144  0.00  0.00    +0.000 C 
BRANCH  26  27
ATOM     27  N   UNL     1      59.775 223.018 325.041  0.00  0.00    +0.000 N 
ATOM     28  C   UNL     1      59.999 224.281 325.807  0.00  0.00    +0.000 C 
ATOM     29  C   UNL     1      59.729 224.571 327.320  0.00  0.00    +0.000 C 
ATOM     30  O   UNL     1      59.240 223.849 328.352  0.00  0.00    +0.000 OA
ATOM     31  C   UNL     1      59.037 222.710 327.661  0.00  0.00    +0.000 C 
ATOM     32  C   UNL     1      59.235 222.232 326.191  0.00  0.00    +0.000 C 
ENDBRANCH  26  27
ENDBRANCH  25  26
ENDBRANCH  23  24
ENDBRANCH   3  23
TORSDOF 6
ENDMDL
MODEL 2
REMARK VINA RESULT:      -5.1     20.455     24.485
REMARK  Name = Gefitinib.pdbqt.pdb
REMARK  6 active torsions:
REMARK  status: ('A' for Active; 'I' for Inactive)
REMARK    1  A    between atoms: C_3  and  O_11
REMARK    2  A    between atoms: C_6  and  O_21
REMARK    3  A    between atoms: O_11  and  C_12
REMARK    4  A    between atoms: C_13  and  C_14
REMARK    5  A    between atoms: C_14  and  N_15
REMARK    6  A    between atoms: N_23  and  C_25
REMARK                            x       y       z     vdW  Elec       q    Type
REMARK                         _______ _______ _______ _____ _____    ______ ____
ROOT
ATOM      1  N   UNL     1      75.189 223.959 340.549  0.00  0.00    +0.000 NA
ATOM      2  N   UNL     1      74.192 222.357 342.005  0.00  0.00    +0.000 NA
ATOM      3  C   UNL     1      72.311 223.228 337.635  0.00  0.00    +0.000 A 
ATOM      4  C   UNL     1      73.227 222.779 339.857  0.00  0.00    +0.000 A 
ATOM      5  C   UNL     1      72.271 222.547 338.852  0.00  0.00    +0.000 A 
ATOM      6  C   UNL     1      73.324 224.163 337.418  0.00  0.00    +0.000 A 
ATOM      7  C   UNL     1      74.248 223.707 339.639  0.00  0.00    +0.000 A 
ATOM      8  C   UNL     1      74.273 224.381 338.425  0.00  0.00    +0.000 A 
ATOM      9  C   UNL     1      73.236 222.118 341.093  0.00  0.00    +0.000 A 
ATOM     10  C   UNL     1      75.122 223.267 341.694  0.00  0.00    +0.000 A 
ATOM     11  N   UNL     1      72.235 221.149 341.362  0.00  0.00    +0.000 N 
ATOM     12  H   UNL     1      71.315 221.493 341.107  0.00  0.00    +0.000 HD
ENDROOT
BRANCH  11  13
ATOM     13  C   UNL     1      72.178 220.238 342.439  0.00  0.00    +0.000 A 
ATOM     14  C   UNL     1      71.763 220.699 343.694  0.00  0.00    +0.000 A 
ATOM     15  C   UNL     1      71.591 219.818 344.760  0.00  0.00    +0.000 A 
ATOM     16 CL   UNL     1      71.112 220.448 346.285  0.00  0.00    +0.000 Cl
ATOM     17  C   UNL     1      71.804 218.457 344.574  0.00  0.00    +0.000 A 
ATOM     18  F   UNL     1      71.643 217.594 345.587  0.00  0.00    +0.000 F 
ATOM     19  C   UNL     1      72.178 217.969 343.329  0.00  0.00    +0.000 A 
ATOM     20  C   UNL     1      72.345 218.858 342.269  0.00  0.00    +0.000 A 
ENDBRANCH  11  13
BRANCH   6  21
ATOM     21  O   UNL     1      73.327 224.811 336.205  0.00  0.00    +0.000 OA
ATOM     22  C   UNL     1      74.451 224.587 335.401  0.00  0.00    +0.000 C 
ENDBRANCH   6  21
BRANCH   3  23
ATOM     23  O   UNL     1      71.396 223.030 336.630  0.00  0.00    +0.000 OA
BRANCH  23  24
ATOM     24  C   UNL     1      70.308 222.354 336.993  0.00  0.00    +0.000 C 
ATOM     25  C   UNL     1      69.047 221.584 337.399  0.00  0.00    +0.000 C 
BRANCH  25  26
ATOM     26  C   UNL     1      67.769 220.828 337.776  0.00  0.00    +0.000 C 
BRANCH  26  27
ATOM     27  N   UNL     1      66.547 220.122 338.137  0.00  0.00    +0.000 N 
ATOM     28  C   UNL     1      66.263 219.163 337.026  0.00  0.00    +0.000 C 
ATOM     29  C   UNL     1      66.361 217.603 337.028  0.00  0.00    +0.000 C 
ATOM     30  O   UNL     1      66.711 216.675 337.946  0.00  0.00    +0.000 OA
ATOM     31  C   UNL     1      66.969 217.539 338.948  0.00  0.00    +0.000 C 
ATOM     32  C   UNL     1      66.933 219.085 339.141  0.00  0.00    +0.000 C 
ENDBRANCH  26  27
ENDBRANCH  25  26
ENDBRANCH  23  24
ENDBRANCH   3  23
TORSDOF 6
ENDMDL
MODEL 3
REMARK VINA RESULT:      -5.1     20.286     22.764
REMARK  Name = Gefitinib.pdbqt.pdb
REMARK  6 active torsions:
REMARK  status: ('A' for Active; 'I' for Inactive)
REMARK    1  A    between atoms: C_3  and  O_11
REMARK    2  A    between atoms: C_6  and  O_21
REMARK    3  A    between atoms: O_11  and  C_12
REMARK    4  A    between atoms: C_13  and  C_14
REMARK    5  A    between atoms: C_14  and  N_15
REMARK    6  A    between atoms: N_23  and  C_25
REMARK                            x       y       z     vdW  Elec       q    Type
REMARK                         _______ _______ _______ _____ _____    ______ ____
ROOT
ATOM      1  N   UNL     1      68.285 241.651 329.837  0.00  0.00    +0.000 NA
ATOM      2  N   UNL     1      68.908 239.932 331.365  0.00  0.00    +0.000 NA
ATOM      3  C   UNL     1      67.594 244.302 332.967  0.00  0.00    +0.000 A 
ATOM      4  C   UNL     1      68.281 242.089 332.188  0.00  0.00    +0.000 A 
ATOM      5  C   UNL     1      68.034 243.004 333.226  0.00  0.00    +0.000 A 
ATOM      6  C   UNL     1      67.402 244.697 331.643  0.00  0.00    +0.000 A 
ATOM      7  C   UNL     1      68.079 242.478 330.862  0.00  0.00    +0.000 A 
ATOM      8  C   UNL     1      67.647 243.775 330.618  0.00  0.00    +0.000 A 
ATOM      9  C   UNL     1      68.717 240.773 332.394  0.00  0.00    +0.000 A 
ATOM     10  C   UNL     1      68.686 240.408 330.135  0.00  0.00    +0.000 A 
ATOM     11  N   UNL     1      68.917 240.315 333.722  0.00  0.00    +0.000 N 
ATOM     12  H   UNL     1      69.442 240.993 334.267  0.00  0.00    +0.000 HD
ENDROOT
BRANCH  11  13
ATOM     13  C   UNL     1      69.153 238.992 334.157  0.00  0.00    +0.000 A 
ATOM     14  C   UNL     1      68.061 238.190 334.507  0.00  0.00    +0.000 A 
ATOM     15  C   UNL     1      68.235 236.849 334.841  0.00  0.00    +0.000 A 
ATOM     16 CL   UNL     1      66.861 235.923 335.295  0.00  0.00    +0.000 Cl
ATOM     17  C   UNL     1      69.506 236.286 334.801  0.00  0.00    +0.000 A 
ATOM     18  F   UNL     1      69.694 234.996 335.119  0.00  0.00    +0.000 F 
ATOM     19  C   UNL     1      70.601 237.050 334.420  0.00  0.00    +0.000 A 
ATOM     20  C   UNL     1      70.414 238.389 334.084  0.00  0.00    +0.000 A 
ENDBRANCH  11  13
BRANCH   6  21
ATOM     21  O   UNL     1      66.967 245.985 331.432  0.00  0.00    +0.000 OA
ATOM     22  C   UNL     1      67.725 246.740 330.529  0.00  0.00    +0.000 C 
ENDBRANCH   6  21
BRANCH   3  23
ATOM     23  O   UNL     1      67.342 245.225 333.954  0.00  0.00    +0.000 OA
BRANCH  23  24
ATOM     24  C   UNL     1      67.065 244.702 335.146  0.00  0.00    +0.000 C 
ATOM     25  C   UNL     1      66.755 244.085 336.515  0.00  0.00    +0.000 C 
BRANCH  25  26
ATOM     26  C   UNL     1      66.468 243.442 337.876  0.00  0.00    +0.000 C 
BRANCH  26  27
ATOM     27  N   UNL     1      66.184 242.841 339.171  0.00  0.00    +0.000 N 
ATOM     28  C   UNL     1      64.924 243.473 339.669  0.00  0.00    +0.000 C 
ATOM     29  C   UNL     1      63.503 242.838 339.821  0.00  0.00    +0.000 C 
ATOM     30  O   UNL     1      62.976 241.619 339.572  0.00  0.00    +0.000 OA
ATOM     31  C   UNL     1      64.112 241.049 339.122  0.00  0.00    +0.000 C 
ATOM     32  C   UNL     1      65.588 241.499 338.900  0.00  0.00    +0.000 C 
ENDBRANCH  26  27
ENDBRANCH  25  26
ENDBRANCH  23  24
ENDBRANCH   3  23
TORSDOF 6
ENDMDL
MODEL 4
REMARK VINA RESULT:      -5.0     20.773     24.658
REMARK  Name = Gefitinib.pdbqt.pdb
REMARK  6 active torsions:
REMARK  status: ('A' for Active; 'I' for Inactive)
REMARK    1  A    between atoms: C_3  and  O_11
REMARK    2  A    between atoms: C_6  and  O_21
REMARK    3  A    between atoms: O_11  and  C_12
REMARK    4  A    between atoms: C_13  and  C_14
REMARK    5  A    between atoms: C_14  and  N_15
REMARK    6  A    between atoms: N_23  and  C_25
REMARK                            x       y       z     vdW  Elec       q    Type
REMARK                         _______ _______ _______ _____ _____    ______ ____
ROOT
ATOM      1  N   UNL     1      75.178 226.293 336.942  0.00  0.00    +0.000 NA
ATOM      2  N   UNL     1      73.337 224.804 336.673  0.00  0.00    +0.000 NA
ATOM      3  C   UNL     1      76.182 224.531 340.574  0.00  0.00    +0.000 A 
ATOM      4  C   UNL     1      74.737 224.631 338.605  0.00  0.00    +0.000 A 
ATOM      5  C   UNL     1      75.095 224.059 339.838  0.00  0.00    +0.000 A 
ATOM      6  C   UNL     1      76.930 225.594 340.067  0.00  0.00    +0.000 A 
ATOM      7  C   UNL     1      75.478 225.703 338.099  0.00  0.00    +0.000 A 
ATOM      8  C   UNL     1      76.560 226.158 338.840  0.00  0.00    +0.000 A 
ATOM      9  C   UNL     1      73.652 224.200 337.830  0.00  0.00    +0.000 A 
ATOM     10  C   UNL     1      74.114 225.820 336.280  0.00  0.00    +0.000 A 
ATOM     11  N   UNL     1      72.850 223.130 338.304  0.00  0.00    +0.000 N 
ATOM     12  H   UNL     1      73.425 222.362 338.636  0.00  0.00    +0.000 HD
ENDROOT
BRANCH  11  13
ATOM     13  C   UNL     1      71.614 222.679 337.791  0.00  0.00    +0.000 A 
ATOM     14  C   UNL     1      71.612 221.829 336.679  0.00  0.00    +0.000 A 
ATOM     15  C   UNL     1      70.426 221.276 336.203  0.00  0.00    +0.000 A 
ATOM     16 CL   UNL     1      70.482 220.266 334.814  0.00  0.00    +0.000 Cl
ATOM     17  C   UNL     1      69.227 221.544 336.853  0.00  0.00    +0.000 A 
ATOM     18  F   UNL     1      68.074 221.021 336.409  0.00  0.00    +0.000 F 
ATOM     19  C   UNL     1      69.207 222.353 337.982  0.00  0.00    +0.000 A 
ATOM     20  C   UNL     1      70.399 222.899 338.451  0.00  0.00    +0.000 A 
ENDBRANCH  11  13
BRANCH   6  21
ATOM     21  O   UNL     1      77.992 226.028 340.825  0.00  0.00    +0.000 OA
ATOM     22  C   UNL     1      77.855 227.304 341.385  0.00  0.00    +0.000 C 
ENDBRANCH   6  21
BRANCH   3  23
ATOM     23  O   UNL     1      76.563 223.998 341.782  0.00  0.00    +0.000 OA
BRANCH  23  24
ATOM     24  C   UNL     1      75.788 223.010 342.223  0.00  0.00    +0.000 C 
ATOM     25  C   UNL     1      74.884 221.876 342.719  0.00  0.00    +0.000 C 
BRANCH  25  26
ATOM     26  C   UNL     1      73.958 220.748 343.187  0.00  0.00    +0.000 C 
BRANCH  26  27
ATOM     27  N   UNL     1      73.068 219.680 343.621  0.00  0.00    +0.000 N 
ATOM     28  C   UNL     1      71.777 220.328 344.003  0.00  0.00    +0.000 C 
ATOM     29  C   UNL     1      70.395 220.263 343.275  0.00  0.00    +0.000 C 
ATOM     30  O   UNL     1      69.939 219.663 342.154  0.00  0.00    +0.000 OA
ATOM     31  C   UNL     1      71.104 219.079 341.808  0.00  0.00    +0.000 C 
ATOM     32  C   UNL     1      72.552 219.022 342.383  0.00  0.00    +0.000 C 
ENDBRANCH  26  27
ENDBRANCH  25  26
ENDBRANCH  23  24
ENDBRANCH   3  23
TORSDOF 6
ENDMDL
MODEL 5
REMARK VINA RESULT:      -5.0     26.297     28.762
REMARK  Name = Gefitinib.pdbqt.pdb
REMARK  6 active torsions:
REMARK  status: ('A' for Active; 'I' for Inactive)
REMARK    1  A    between atoms: C_3  and  O_11
REMARK    2  A    between atoms: C_6  and  O_21
REMARK    3  A    between atoms: O_11  and  C_12
REMARK    4  A    between atoms: C_13  and  C_14
REMARK    5  A    between atoms: C_14  and  N_15
REMARK    6  A    between atoms: N_23  and  C_25
REMARK                            x       y       z     vdW  Elec       q    Type
REMARK                         _______ _______ _______ _____ _____    ______ ____
ROOT
ATOM      1  N   UNL     1      42.718 229.679 344.979  0.00  0.00    +0.000 NA
ATOM      2  N   UNL     1      42.203 231.401 343.415  0.00  0.00    +0.000 NA
ATOM      3  C   UNL     1      45.714 232.007 346.684  0.00  0.00    +0.000 A 
ATOM      4  C   UNL     1      43.933 231.739 345.032  0.00  0.00    +0.000 A 
ATOM      5  C   UNL     1      44.955 232.501 345.623  0.00  0.00    +0.000 A 
ATOM      6  C   UNL     1      45.444 230.727 347.169  0.00  0.00    +0.000 A 
ATOM      7  C   UNL     1      43.667 230.453 345.508  0.00  0.00    +0.000 A 
ATOM      8  C   UNL     1      44.426 229.976 346.568  0.00  0.00    +0.000 A 
ATOM      9  C   UNL     1      43.147 232.185 343.961  0.00  0.00    +0.000 A 
ATOM     10  C   UNL     1      42.029 230.187 343.949  0.00  0.00    +0.000 A 
ATOM     11  N   UNL     1      43.387 233.474 343.421  0.00  0.00    +0.000 N 
ATOM     12  H   UNL     1      43.477 234.168 344.158  0.00  0.00    +0.000 HD
ENDROOT
BRANCH  11  13
ATOM     13  C   UNL     1      42.860 234.031 342.235  0.00  0.00    +0.000 A 
ATOM     14  C   UNL     1      41.992 235.125 342.328  0.00  0.00    +0.000 A 
ATOM     15  C   UNL     1      41.530 235.772 341.185  0.00  0.00    +0.000 A 
ATOM     16 CL   UNL     1      40.440 237.089 341.362  0.00  0.00    +0.000 Cl
ATOM     17  C   UNL     1      41.954 235.349 339.931  0.00  0.00    +0.000 A 
ATOM     18  F   UNL     1      41.520 235.959 338.818  0.00  0.00    +0.000 F 
ATOM     19  C   UNL     1      42.845 234.290 339.812  0.00  0.00    +0.000 A 
ATOM     20  C   UNL     1      43.304 233.652 340.963  0.00  0.00    +0.000 A 
ENDBRANCH  11  13
BRANCH   6  21
ATOM     21  O   UNL     1      46.215 230.279 348.215  0.00  0.00    +0.000 OA
ATOM     22  C   UNL     1      45.580 230.233 349.462  0.00  0.00    +0.000 C 
ENDBRANCH   6  21
BRANCH   3  23
ATOM     23  O   UNL     1      46.721 232.721 347.288  0.00  0.00    +0.000 OA
BRANCH  23  24
ATOM     24  C   UNL     1      46.679 234.034 347.072  0.00  0.00    +0.000 C 
ATOM     25  C   UNL     1      46.643 235.544 346.810  0.00  0.00    +0.000 C 
BRANCH  25  26
ATOM     26  C   UNL     1      46.630 237.049 346.521  0.00  0.00    +0.000 C 
BRANCH  26  27
ATOM     27  N   UNL     1      46.609 238.476 346.236  0.00  0.00    +0.000 N 
ATOM     28  C   UNL     1      47.054 238.635 344.818  0.00  0.00    +0.000 C 
ATOM     29  C   UNL     1      46.214 239.061 343.569  0.00  0.00    +0.000 C 
ATOM     30  O   UNL     1      44.921 239.392 343.362  0.00  0.00    +0.000 OA
ATOM     31  C   UNL     1      44.519 239.248 344.641  0.00  0.00    +0.000 C 
ATOM     32  C   UNL     1      45.181 238.844 345.992  0.00  0.00    +0.000 C 
ENDBRANCH  26  27
ENDBRANCH  25  26
ENDBRANCH  23  24
ENDBRANCH   3  23
TORSDOF 6
ENDMDL
MODEL 6
REMARK VINA RESULT:      -5.0     29.290     32.198
REMARK  Name = Gefitinib.pdbqt.pdb
REMARK  6 active torsions:
REMARK  status: ('A' for Active; 'I' for Inactive)
REMARK    1  A    between atoms: C_3  and  O_11
REMARK    2  A    between atoms: C_6  and  O_21
REMARK    3  A    between atoms: O_11  and  C_12
REMARK    4  A    between atoms: C_13  and  C_14
REMARK    5  A    between atoms: C_14  and  N_15
REMARK    6  A    between atoms: N_23  and  C_25
REMARK                            x       y       z     vdW  Elec       q    Type
REMARK                         _______ _______ _______ _____ _____    ______ ____
ROOT
ATOM      1  N   UNL     1      59.146 226.567 355.471  0.00  0.00    +0.000 NA
ATOM      2  N   UNL     1      61.340 225.714 355.106  0.00  0.00    +0.000 NA
ATOM      3  C   UNL     1      59.451 229.022 352.127  0.00  0.00    +0.000 A 
ATOM      4  C   UNL     1      60.427 227.336 353.604  0.00  0.00    +0.000 A 
ATOM      5  C   UNL     1      60.506 228.180 352.483  0.00  0.00    +0.000 A 
ATOM      6  C   UNL     1      58.293 229.018 352.904  0.00  0.00    +0.000 A 
ATOM      7  C   UNL     1      59.272 227.337 354.390  0.00  0.00    +0.000 A 
ATOM      8  C   UNL     1      58.229 228.176 354.021  0.00  0.00    +0.000 A 
ATOM      9  C   UNL     1      61.458 226.477 354.008  0.00  0.00    +0.000 A 
ATOM     10  C   UNL     1      60.190 225.791 355.786  0.00  0.00    +0.000 A 
ATOM     11  N   UNL     1      62.664 226.451 353.260  0.00  0.00    +0.000 N 
ATOM     12  H   UNL     1      62.475 226.395 352.264  0.00  0.00    +0.000 HD
ENDROOT
BRANCH  11  13
ATOM     13  C   UNL     1      63.882 225.822 353.601  0.00  0.00    +0.000 A 
ATOM     14  C   UNL     1      64.730 226.446 354.523  0.00  0.00    +0.000 A 
ATOM     15  C   UNL     1      65.890 225.817 354.969  0.00  0.00    +0.000 A 
ATOM     16 CL   UNL     1      66.909 226.647 356.075  0.00  0.00    +0.000 Cl
ATOM     17  C   UNL     1      66.202 224.540 354.517  0.00  0.00    +0.000 A 
ATOM     18  F   UNL     1      67.314 223.918 354.934  0.00  0.00    +0.000 F 
ATOM     19  C   UNL     1      65.357 223.883 353.632  0.00  0.00    +0.000 A 
ATOM     20  C   UNL     1      64.197 224.521 353.195  0.00  0.00    +0.000 A 
ENDBRANCH  11  13
BRANCH   6  21
ATOM     21  O   UNL     1      57.279 229.863 352.519  0.00  0.00    +0.000 OA
ATOM     22  C   UNL     1      56.311 230.133 353.494  0.00  0.00    +0.000 C 
ENDBRANCH   6  21
BRANCH   3  23
ATOM     23  O   UNL     1      59.490 229.861 351.039  0.00  0.00    +0.000 OA
BRANCH  23  24
ATOM     24  C   UNL     1      60.693 229.998 350.485  0.00  0.00    +0.000 C 
ATOM     25  C   UNL     1      62.070 230.163 349.833  0.00  0.00    +0.000 C 
BRANCH  25  26
ATOM     26  C   UNL     1      63.432 230.349 349.155  0.00  0.00    +0.000 C 
BRANCH  26  27
ATOM     27  N   UNL     1      64.727 230.510 348.511  0.00  0.00    +0.000 N 
ATOM     28  C   UNL     1      65.349 231.735 349.101  0.00  0.00    +0.000 C 
ATOM     29  C   UNL     1      66.573 231.845 350.067  0.00  0.00    +0.000 C 
ATOM     30  O   UNL     1      67.406 230.954 350.649  0.00  0.00    +0.000 OA
ATOM     31  C   UNL     1      66.845 229.849 350.118  0.00  0.00    +0.000 C 
ATOM     32  C   UNL     1      65.655 229.537 349.162  0.00  0.00    +0.000 C 
ENDBRANCH  26  27
ENDBRANCH  25  26
ENDBRANCH  23  24
ENDBRANCH   3  23
TORSDOF 6
ENDMDL
MODEL 7
REMARK VINA RESULT:      -4.9     28.473     30.906
REMARK  Name = Gefitinib.pdbqt.pdb
REMARK  6 active torsions:
REMARK  status: ('A' for Active; 'I' for Inactive)
REMARK    1  A    between atoms: C_3  and  O_11
REMARK    2  A    between atoms: C_6  and  O_21
REMARK    3  A    between atoms: O_11  and  C_12
REMARK    4  A    between atoms: C_13  and  C_14
REMARK    5  A    between atoms: C_14  and  N_15
REMARK    6  A    between atoms: N_23  and  C_25
REMARK                            x       y       z     vdW  Elec       q    Type
REMARK                         _______ _______ _______ _____ _____    ______ ____
ROOT
ATOM      1  N   UNL     1      54.496 246.608 345.323  0.00  0.00    +0.000 NA
ATOM      2  N   UNL     1      54.848 244.477 346.329  0.00  0.00    +0.000 NA
ATOM      3  C   UNL     1      50.377 246.029 345.334  0.00  0.00    +0.000 A 
ATOM      4  C   UNL     1      52.623 245.224 345.866  0.00  0.00    +0.000 A 
ATOM      5  C   UNL     1      51.228 245.052 345.852  0.00  0.00    +0.000 A 
ATOM      6  C   UNL     1      50.930 247.204 344.825  0.00  0.00    +0.000 A 
ATOM      7  C   UNL     1      53.181 246.395 345.347  0.00  0.00    +0.000 A 
ATOM      8  C   UNL     1      52.321 247.361 344.840  0.00  0.00    +0.000 A 
ATOM      9  C   UNL     1      53.522 244.272 346.368  0.00  0.00    +0.000 A 
ATOM     10  C   UNL     1      55.275 245.635 345.811  0.00  0.00    +0.000 A 
ATOM     11  N   UNL     1      53.014 243.054 346.888  0.00  0.00    +0.000 N 
ATOM     12  H   UNL     1      52.231 243.221 347.511  0.00  0.00    +0.000 HD
ENDROOT
BRANCH  11  13
ATOM     13  C   UNL     1      53.739 241.897 347.250  0.00  0.00    +0.000 A 
ATOM     14  C   UNL     1      54.956 242.044 347.926  0.00  0.00    +0.000 A 
ATOM     15  C   UNL     1      55.653 240.933 348.395  0.00  0.00    +0.000 A 
ATOM     16 CL   UNL     1      57.158 241.174 349.188  0.00  0.00    +0.000 Cl
ATOM     17  C   UNL     1      55.125 239.659 348.218  0.00  0.00    +0.000 A 
ATOM     18  F   UNL     1      55.782 238.577 348.662  0.00  0.00    +0.000 F 
ATOM     19  C   UNL     1      53.901 239.489 347.584  0.00  0.00    +0.000 A 
ATOM     20  C   UNL     1      53.210 240.607 347.122  0.00  0.00    +0.000 A 
ENDBRANCH  11  13
BRANCH   6  21
ATOM     21  O   UNL     1      50.056 248.140 344.324  0.00  0.00    +0.000 OA
ATOM     22  C   UNL     1      49.992 249.348 345.027  0.00  0.00    +0.000 C 
ENDBRANCH   6  21
BRANCH   3  23
ATOM     23  O   UNL     1      49.010 245.898 345.303  0.00  0.00    +0.000 OA
BRANCH  23  24
ATOM     24  C   UNL     1      48.560 244.962 344.470  0.00  0.00    +0.000 C 
ATOM     25  C   UNL     1      48.048 243.893 343.497  0.00  0.00    +0.000 C 
BRANCH  25  26
ATOM     26  C   UNL     1      47.555 242.841 342.499  0.00  0.00    +0.000 C 
BRANCH  26  27
ATOM     27  N   UNL     1      47.095 241.847 341.539  0.00  0.00    +0.000 N 
ATOM     28  C   UNL     1      47.058 240.539 342.263  0.00  0.00    +0.000 C 
ATOM     29  C   UNL     1      45.817 239.698 342.706  0.00  0.00    +0.000 C 
ATOM     30  O   UNL     1      44.479 239.854 342.603  0.00  0.00    +0.000 OA
ATOM     31  C   UNL     1      44.511 241.034 341.951  0.00  0.00    +0.000 C 
ATOM     32  C   UNL     1      45.613 242.006 341.433  0.00  0.00    +0.000 C 
ENDBRANCH  26  27
ENDBRANCH  25  26
ENDBRANCH  23  24
ENDBRANCH   3  23
TORSDOF 6
ENDMDL
MODEL 8
REMARK VINA RESULT:      -4.9     23.412     27.431
REMARK  Name = Gefitinib.pdbqt.pdb
REMARK  6 active torsions:
REMARK  status: ('A' for Active; 'I' for Inactive)
REMARK    1  A    between atoms: C_3  and  O_11
REMARK    2  A    between atoms: C_6  and  O_21
REMARK    3  A    between atoms: O_11  and  C_12
REMARK    4  A    between atoms: C_13  and  C_14
REMARK    5  A    between atoms: C_14  and  N_15
REMARK    6  A    between atoms: N_23  and  C_25
REMARK                            x       y       z     vdW  Elec       q    Type
REMARK                         _______ _______ _______ _____ _____    ______ ____
ROOT
ATOM      1  N   UNL     1      76.908 223.456 339.062  0.00  0.00    +0.000 NA
ATOM      2  N   UNL     1      74.722 222.513 339.159  0.00  0.00    +0.000 NA
ATOM      3  C   UNL     1      76.560 224.877 342.956  0.00  0.00    +0.000 A 
ATOM      4  C   UNL     1      75.610 223.661 341.061  0.00  0.00    +0.000 A 
ATOM      5  C   UNL     1      75.517 224.158 342.372  0.00  0.00    +0.000 A 
ATOM      6  C   UNL     1      77.722 225.101 342.217  0.00  0.00    +0.000 A 
ATOM      7  C   UNL     1      76.768 223.892 340.314  0.00  0.00    +0.000 A 
ATOM      8  C   UNL     1      77.800 224.605 340.910  0.00  0.00    +0.000 A 
ATOM      9  C   UNL     1      74.590 222.939 340.426  0.00  0.00    +0.000 A 
ATOM     10  C   UNL     1      75.873 222.788 338.536  0.00  0.00    +0.000 A 
ATOM     11  N   UNL     1      73.382 222.693 341.127  0.00  0.00    +0.000 N 
ATOM     12  H   UNL     1      73.568 222.364 342.070  0.00  0.00    +0.000 HD
ENDROOT
BRANCH  11  13
ATOM     13  C   UNL     1      72.173 222.173 340.616  0.00  0.00    +0.000 A 
ATOM     14  C   UNL     1      71.323 223.019 339.894  0.00  0.00    +0.000 A 
ATOM     15  C   UNL     1      70.173 222.528 339.283  0.00  0.00    +0.000 A 
ATOM     16 CL   UNL     1      69.152 223.621 338.438  0.00  0.00    +0.000 Cl
ATOM     17  C   UNL     1      69.872 221.173 339.362  0.00  0.00    +0.000 A 
ATOM     18  F   UNL     1      68.768 220.681 338.780  0.00  0.00    +0.000 F 
ATOM     19  C   UNL     1      70.718 220.305 340.040  0.00  0.00    +0.000 A 
ATOM     20  C   UNL     1      71.868 220.807 340.646  0.00  0.00    +0.000 A 
ENDBRANCH  11  13
BRANCH   6  21
ATOM     21  O   UNL     1      78.725 225.815 342.830  0.00  0.00    +0.000 OA
ATOM     22  C   UNL     1      78.992 227.076 342.285  0.00  0.00    +0.000 C 
ENDBRANCH   6  21
BRANCH   3  23
ATOM     23  O   UNL     1      76.508 225.379 344.235  0.00  0.00    +0.000 OA
BRANCH  23  24
ATOM     24  C   UNL     1      75.908 224.585 345.119  0.00  0.00    +0.000 C 
ATOM     25  C   UNL     1      75.232 223.661 346.139  0.00  0.00    +0.000 C 
BRANCH  25  26
ATOM     26  C   UNL     1      74.588 222.722 347.163  0.00  0.00    +0.000 C 
BRANCH  26  27
ATOM     27  N   UNL     1      73.978 221.839 348.148  0.00  0.00    +0.000 N 
ATOM     28  C   UNL     1      73.048 222.682 348.960  0.00  0.00    +0.000 C 
ATOM     29  C   UNL     1      71.485 222.675 348.983  0.00  0.00    +0.000 C 
ATOM     30  O   UNL     1      70.529 221.976 348.332  0.00  0.00    +0.000 OA
ATOM     31  C   UNL     1      71.367 221.216 347.598  0.00  0.00    +0.000 C 
ATOM     32  C   UNL     1      72.910 221.075 347.435  0.00  0.00    +0.000 C 
ENDBRANCH  26  27
ENDBRANCH  25  26
ENDBRANCH  23  24
ENDBRANCH   3  23
TORSDOF 6
ENDMDL
MODEL 9
REMARK VINA RESULT:      -4.8     25.461     26.918
REMARK  Name = Gefitinib.pdbqt.pdb
REMARK  6 active torsions:
REMARK  status: ('A' for Active; 'I' for Inactive)
REMARK    1  A    between atoms: C_3  and  O_11
REMARK    2  A    between atoms: C_6  and  O_21
REMARK    3  A    between atoms: O_11  and  C_12
REMARK    4  A    between atoms: C_13  and  C_14
REMARK    5  A    between atoms: C_14  and  N_15
REMARK    6  A    between atoms: N_23  and  C_25
REMARK                            x       y       z     vdW  Elec       q    Type
REMARK                         _______ _______ _______ _____ _____    ______ ____
ROOT
ATOM      1  N   UNL     1      38.735 234.069 339.629  0.00  0.00    +0.000 NA
ATOM      2  N   UNL     1      39.858 235.804 338.444  0.00  0.00    +0.000 NA
ATOM      3  C   UNL     1      42.108 233.358 341.957  0.00  0.00    +0.000 A 
ATOM      4  C   UNL     1      40.992 234.625 340.189  0.00  0.00    +0.000 A 
ATOM      5  C   UNL     1      42.119 234.360 340.985  0.00  0.00    +0.000 A 
ATOM      6  C   UNL     1      40.944 232.610 342.140  0.00  0.00    +0.000 A 
ATOM      7  C   UNL     1      39.829 233.871 340.363  0.00  0.00    +0.000 A 
ATOM      8  C   UNL     1      39.830 232.881 341.337  0.00  0.00    +0.000 A 
ATOM      9  C   UNL     1      40.954 235.614 339.196  0.00  0.00    +0.000 A 
ATOM     10  C   UNL     1      38.799 235.027 338.695  0.00  0.00    +0.000 A 
ATOM     11  N   UNL     1      42.113 236.397 338.960  0.00  0.00    +0.000 N 
ATOM     12  H   UNL     1      42.512 236.731 339.831  0.00  0.00    +0.000 HD
ENDROOT
BRANCH  11  13
ATOM     13  C   UNL     1      42.353 237.290 337.893  0.00  0.00    +0.000 A 
ATOM     14  C   UNL     1      42.678 236.771 336.634  0.00  0.00    +0.000 A 
ATOM     15  C   UNL     1      42.821 237.606 335.529  0.00  0.00    +0.000 A 
ATOM     16 CL   UNL     1      43.253 236.914 334.017  0.00  0.00    +0.000 Cl
ATOM     17  C   UNL     1      42.611 238.974 335.665  0.00  0.00    +0.000 A 
ATOM     18  F   UNL     1      42.744 239.795 334.612  0.00  0.00    +0.000 F 
ATOM     19  C   UNL     1      42.251 239.510 336.894  0.00  0.00    +0.000 A 
ATOM     20  C   UNL     1      42.108 238.665 337.992  0.00  0.00    +0.000 A 
ENDBRANCH  11  13
BRANCH   6  21
ATOM     21  O   UNL     1      40.976 231.633 343.107  0.00  0.00    +0.000 OA
ATOM     22  C   UNL     1      40.321 230.438 342.785  0.00  0.00    +0.000 C 
ENDBRANCH   6  21
BRANCH   3  23
ATOM     23  O   UNL     1      43.188 233.069 342.755  0.00  0.00    +0.000 OA
BRANCH  23  24
ATOM     24  C   UNL     1      43.609 234.081 343.510  0.00  0.00    +0.000 C 
ATOM     25  C   UNL     1      44.110 235.246 344.371  0.00  0.00    +0.000 C 
BRANCH  25  26
ATOM     26  C   UNL     1      44.640 236.411 345.213  0.00  0.00    +0.000 C 
BRANCH  26  27
ATOM     27  N   UNL     1      45.154 237.510 346.018  0.00  0.00    +0.000 N 
ATOM     28  C   UNL     1      45.778 236.897 347.230  0.00  0.00    +0.000 C 
ATOM     29  C   UNL     1      47.291 236.802 347.613  0.00  0.00    +0.000 C 
ATOM     30  O   UNL     1      48.444 237.198 347.031  0.00  0.00    +0.000 OA
ATOM     31  C   UNL     1      47.882 237.751 345.937  0.00  0.00    +0.000 C 
ATOM     32  C   UNL     1      46.437 237.942 345.386  0.00  0.00    +0.000 C 
ENDBRANCH  26  27
ENDBRANCH  25  26
ENDBRANCH  23  24
ENDBRANCH   3  23
TORSDOF 6
ENDMDL
