MODEL 1
REMARK VINA RESULT:      -5.6      0.000      0.000
REMARK  Name = Genistein.pdbqt.pdb
REMARK  4 active torsions:
REMARK  status: ('A' for Active; 'I' for Inactive)
REMARK    1  A    between atoms: C_4  and  C_12
REMARK    2  A    between atoms: C_7  and  O_20
REMARK    3  A    between atoms: C_11  and  O_22
REMARK    4  A    between atoms: C_17  and  O_18
REMARK                            x       y       z     vdW  Elec       q    Type
REMARK                         _______ _______ _______ _____ _____    ______ ____
ROOT
ATOM      1  O   UNL     1      54.778 247.474 324.444  0.00  0.00    +0.000 OA
ATOM      2  O   UNL     1      54.929 243.828 322.398  0.00  0.00    +0.000 OA
ATOM      3  C   UNL     1      55.627 246.095 322.563  0.00  0.00    +0.000 A 
ATOM      4  C   UNL     1      54.042 245.075 324.266  0.00  0.00    +0.000 A 
ATOM      5  C   UNL     1      55.546 247.318 323.292  0.00  0.00    +0.000 A 
ATOM      6  C   UNL     1      54.859 244.879 323.024  0.00  0.00    +0.000 A 
ATOM      7  C   UNL     1      56.426 246.034 321.418  0.00  0.00    +0.000 A 
ATOM      8  C   UNL     1      54.205 246.301 324.652  0.00  0.00    +0.000 A 
ATOM      9  C   UNL     1      56.254 248.440 322.867  0.00  0.00    +0.000 A 
ATOM     10  C   UNL     1      57.131 247.161 320.998  0.00  0.00    +0.000 A 
ATOM     11  C   UNL     1      57.040 248.347 321.723  0.00  0.00    +0.000 A 
ENDROOT
BRANCH   4  12
ATOM     12  C   UNL     1      53.205 244.078 324.931  0.00  0.00    +0.000 A 
ATOM     13  C   UNL     1      52.104 243.512 324.284  0.00  0.00    +0.000 A 
ATOM     14  C   UNL     1      53.493 243.666 326.238  0.00  0.00    +0.000 A 
ATOM     15  C   UNL     1      51.306 242.561 324.918  0.00  0.00    +0.000 A 
ATOM     16  C   UNL     1      52.703 242.716 326.884  0.00  0.00    +0.000 A 
ATOM     17  C   UNL     1      51.614 242.171 326.216  0.00  0.00    +0.000 A 
BRANCH  17  18
ATOM     18  O   UNL     1      50.854 241.242 326.864  0.00  0.00    +0.000 OA
ATOM     19  H   UNL     1      49.927 241.538 326.841  0.00  0.00    +0.000 HD
ENDBRANCH  17  18
ENDBRANCH   4  12
BRANCH   7  20
ATOM     20  O   UNL     1      56.565 244.905 320.656  0.00  0.00    +0.000 OA
ATOM     21  H   UNL     1      55.797 244.841 320.044  0.00  0.00    +0.000 HD
ENDBRANCH   7  20
BRANCH  11  22
ATOM     22  O   UNL     1      57.726 249.457 321.322  0.00  0.00    +0.000 OA
ATOM     23  H   UNL     1      58.326 249.198 320.599  0.00  0.00    +0.000 HD
ENDBRANCH  11  22
TORSDOF 4
ENDMDL
MODEL 2
REMARK VINA RESULT:      -5.3      9.402     12.282
REMARK  Name = Genistein.pdbqt.pdb
REMARK  4 active torsions:
REMARK  status: ('A' for Active; 'I' for Inactive)
REMARK    1  A    between atoms: C_4  and  C_12
REMARK    2  A    between atoms: C_7  and  O_20
REMARK    3  A    between atoms: C_11  and  O_22
REMARK    4  A    between atoms: C_17  and  O_18
REMARK                            x       y       z     vdW  Elec       q    Type
REMARK                         _______ _______ _______ _____ _____    ______ ____
ROOT
ATOM      1  O   UNL     1      45.426 237.207 324.989  0.00  0.00    +0.000 OA
ATOM      2  O   UNL     1      49.477 236.332 324.419  0.00  0.00    +0.000 OA
ATOM      3  C   UNL     1      47.819 237.753 325.360  0.00  0.00    +0.000 A 
ATOM      4  C   UNL     1      47.183 235.706 323.995  0.00  0.00    +0.000 A 
ATOM      5  C   UNL     1      46.426 238.013 325.529  0.00  0.00    +0.000 A 
ATOM      6  C   UNL     1      48.281 236.555 324.564  0.00  0.00    +0.000 A 
ATOM      7  C   UNL     1      48.751 238.618 325.940  0.00  0.00    +0.000 A 
ATOM      8  C   UNL     1      46.055 236.240 324.346  0.00  0.00    +0.000 A 
ATOM      9  C   UNL     1      46.001 239.117 326.262  0.00  0.00    +0.000 A 
ATOM     10  C   UNL     1      48.317 239.721 326.673  0.00  0.00    +0.000 A 
ATOM     11  C   UNL     1      46.953 239.960 326.828  0.00  0.00    +0.000 A 
ENDROOT
BRANCH   4  12
ATOM     12  C   UNL     1      47.338 234.497 323.189  0.00  0.00    +0.000 A 
ATOM     13  C   UNL     1      47.401 233.235 323.786  0.00  0.00    +0.000 A 
ATOM     14  C   UNL     1      47.425 234.578 321.795  0.00  0.00    +0.000 A 
ATOM     15  C   UNL     1      47.549 232.082 323.018  0.00  0.00    +0.000 A 
ATOM     16  C   UNL     1      47.573 233.432 321.014  0.00  0.00    +0.000 A 
ATOM     17  C   UNL     1      47.633 232.192 321.635  0.00  0.00    +0.000 A 
BRANCH  17  18
ATOM     18  O   UNL     1      47.778 231.082 320.854  0.00  0.00    +0.000 OA
ATOM     19  H   UNL     1      48.729 230.894 320.765  0.00  0.00    +0.000 HD
ENDBRANCH  17  18
ENDBRANCH   4  12
BRANCH   7  20
ATOM     20  O   UNL     1      50.105 238.448 325.832  0.00  0.00    +0.000 OA
ATOM     21  H   UNL     1      50.552 239.104 326.414  0.00  0.00    +0.000 HD
ENDBRANCH   7  20
BRANCH  11  22
ATOM     22  O   UNL     1      46.516 241.037 327.543  0.00  0.00    +0.000 OA
ATOM     23  H   UNL     1      47.248 241.676 327.607  0.00  0.00    +0.000 HD
ENDBRANCH  11  22
TORSDOF 4
ENDMDL
MODEL 3
REMARK VINA RESULT:      -5.3      0.707      2.260
REMARK  Name = Genistein.pdbqt.pdb
REMARK  4 active torsions:
REMARK  status: ('A' for Active; 'I' for Inactive)
REMARK    1  A    between atoms: C_4  and  C_12
REMARK    2  A    between atoms: C_7  and  O_20
REMARK    3  A    between atoms: C_11  and  O_22
REMARK    4  A    between atoms: C_17  and  O_18
REMARK                            x       y       z     vdW  Elec       q    Type
REMARK                         _______ _______ _______ _____ _____    ______ ____
ROOT
ATOM      1  O   UNL     1      55.767 244.852 322.052  0.00  0.00    +0.000 OA
ATOM      2  O   UNL     1      53.857 246.948 325.129  0.00  0.00    +0.000 OA
ATOM      3  C   UNL     1      55.349 246.971 323.277  0.00  0.00    +0.000 A 
ATOM      4  C   UNL     1      54.189 244.833 324.012  0.00  0.00    +0.000 A 
ATOM      5  C   UNL     1      55.978 246.216 322.243  0.00  0.00    +0.000 A 
ATOM      6  C   UNL     1      54.397 246.300 324.240  0.00  0.00    +0.000 A 
ATOM      7  C   UNL     1      55.622 248.337 323.390  0.00  0.00    +0.000 A 
ATOM      8  C   UNL     1      54.914 244.489 322.995  0.00  0.00    +0.000 A 
ATOM      9  C   UNL     1      56.855 246.835 321.356  0.00  0.00    +0.000 A 
ATOM     10  C   UNL     1      56.501 248.948 322.498  0.00  0.00    +0.000 A 
ATOM     11  C   UNL     1      57.106 248.196 321.494  0.00  0.00    +0.000 A 
ENDROOT
BRANCH   4  12
ATOM     12  C   UNL     1      53.330 243.938 324.786  0.00  0.00    +0.000 A 
ATOM     13  C   UNL     1      52.185 243.370 324.222  0.00  0.00    +0.000 A 
ATOM     14  C   UNL     1      53.640 243.629 326.115  0.00  0.00    +0.000 A 
ATOM     15  C   UNL     1      51.366 242.517 324.959  0.00  0.00    +0.000 A 
ATOM     16  C   UNL     1      52.830 242.777 326.864  0.00  0.00    +0.000 A 
ATOM     17  C   UNL     1      51.697 242.227 326.278  0.00  0.00    +0.000 A 
BRANCH  17  18
ATOM     18  O   UNL     1      50.917 241.396 327.027  0.00  0.00    +0.000 OA
ATOM     19  H   UNL     1      50.687 241.856 327.853  0.00  0.00    +0.000 HD
ENDBRANCH  17  18
ENDBRANCH   4  12
BRANCH   7  20
ATOM     20  O   UNL     1      55.066 249.139 324.349  0.00  0.00    +0.000 OA
ATOM     21  H   UNL     1      54.964 250.047 323.982  0.00  0.00    +0.000 HD
ENDBRANCH   7  20
BRANCH  11  22
ATOM     22  O   UNL     1      57.969 248.784 320.615  0.00  0.00    +0.000 OA
ATOM     23  H   UNL     1      58.821 248.915 321.067  0.00  0.00    +0.000 HD
ENDBRANCH  11  22
TORSDOF 4
ENDMDL
MODEL 4
REMARK VINA RESULT:      -5.3     31.008     32.100
REMARK  Name = Genistein.pdbqt.pdb
REMARK  4 active torsions:
REMARK  status: ('A' for Active; 'I' for Inactive)
REMARK    1  A    between atoms: C_4  and  C_12
REMARK    2  A    between atoms: C_7  and  O_20
REMARK    3  A    between atoms: C_11  and  O_22
REMARK    4  A    between atoms: C_17  and  O_18
REMARK                            x       y       z     vdW  Elec       q    Type
REMARK                         _______ _______ _______ _____ _____    ______ ____
ROOT
ATOM      1  O   UNL     1      72.697 223.194 335.875  0.00  0.00    +0.000 OA
ATOM      2  O   UNL     1      72.840 223.546 340.042  0.00  0.00    +0.000 OA
ATOM      3  C   UNL     1      73.634 224.254 337.915  0.00  0.00    +0.000 A 
ATOM      4  C   UNL     1      71.859 222.448 338.127  0.00  0.00    +0.000 A 
ATOM      5  C   UNL     1      73.552 224.100 336.499  0.00  0.00    +0.000 A 
ATOM      6  C   UNL     1      72.769 223.414 338.826  0.00  0.00    +0.000 A 
ATOM      7  C   UNL     1      74.523 225.190 338.450  0.00  0.00    +0.000 A 
ATOM      8  C   UNL     1      72.052 222.581 336.853  0.00  0.00    +0.000 A 
ATOM      9  C   UNL     1      74.350 224.874 335.660  0.00  0.00    +0.000 A 
ATOM     10  C   UNL     1      75.318 225.961 337.604  0.00  0.00    +0.000 A 
ATOM     11  C   UNL     1      75.224 225.797 336.224  0.00  0.00    +0.000 A 
ENDROOT
BRANCH   4  12
ATOM     12  C   UNL     1      70.921 221.518 338.753  0.00  0.00    +0.000 A 
ATOM     13  C   UNL     1      69.738 221.144 338.110  0.00  0.00    +0.000 A 
ATOM     14  C   UNL     1      71.191 220.978 340.016  0.00  0.00    +0.000 A 
ATOM     15  C   UNL     1      68.844 220.257 338.706  0.00  0.00    +0.000 A 
ATOM     16  C   UNL     1      70.304 220.090 340.624  0.00  0.00    +0.000 A 
ATOM     17  C   UNL     1      69.136 219.737 339.961  0.00  0.00    +0.000 A 
BRANCH  17  18
ATOM     18  O   UNL     1      68.282 218.866 340.572  0.00  0.00    +0.000 OA
ATOM     19  H   UNL     1      68.705 217.989 340.594  0.00  0.00    +0.000 HD
ENDBRANCH  17  18
ENDBRANCH   4  12
BRANCH   7  20
ATOM     20  O   UNL     1      74.669 225.407 339.794  0.00  0.00    +0.000 OA
ATOM     21  H   UNL     1      73.937 225.988 340.101  0.00  0.00    +0.000 HD
ENDBRANCH   7  20
BRANCH  11  22
ATOM     22  O   UNL     1      75.998 226.547 335.385  0.00  0.00    +0.000 OA
ATOM     23  H   UNL     1      76.153 227.411 335.806  0.00  0.00    +0.000 HD
ENDBRANCH  11  22
TORSDOF 4
ENDMDL
MODEL 5
REMARK VINA RESULT:      -5.2     29.586     31.724
REMARK  Name = Genistein.pdbqt.pdb
REMARK  4 active torsions:
REMARK  status: ('A' for Active; 'I' for Inactive)
REMARK    1  A    between atoms: C_4  and  C_12
REMARK    2  A    between atoms: C_7  and  O_20
REMARK    3  A    between atoms: C_11  and  O_22
REMARK    4  A    between atoms: C_17  and  O_18
REMARK                            x       y       z     vdW  Elec       q    Type
REMARK                         _______ _______ _______ _____ _____    ______ ____
ROOT
ATOM      1  O   UNL     1      69.847 219.980 334.680  0.00  0.00    +0.000 OA
ATOM      2  O   UNL     1      66.728 220.568 337.406  0.00  0.00    +0.000 OA
ATOM      3  C   UNL     1      67.420 220.163 335.168  0.00  0.00    +0.000 A 
ATOM      4  C   UNL     1      69.111 220.408 337.048  0.00  0.00    +0.000 A 
ATOM      5  C   UNL     1      68.514 219.967 334.274  0.00  0.00    +0.000 A 
ATOM      6  C   UNL     1      67.668 220.400 336.639  0.00  0.00    +0.000 A 
ATOM      7  C   UNL     1      66.115 220.133 334.667  0.00  0.00    +0.000 A 
ATOM      8  C   UNL     1      69.820 220.200 335.984  0.00  0.00    +0.000 A 
ATOM      9  C   UNL     1      68.285 219.750 332.918  0.00  0.00    +0.000 A 
ATOM     10  C   UNL     1      65.893 219.915 333.309  0.00  0.00    +0.000 A 
ATOM     11  C   UNL     1      66.975 219.726 332.451  0.00  0.00    +0.000 A 
ENDROOT
BRANCH   4  12
ATOM     12  C   UNL     1      69.639 220.612 338.395  0.00  0.00    +0.000 A 
ATOM     13  C   UNL     1      70.140 221.855 338.793  0.00  0.00    +0.000 A 
ATOM     14  C   UNL     1      69.653 219.563 339.321  0.00  0.00    +0.000 A 
ATOM     15  C   UNL     1      70.643 222.051 340.078  0.00  0.00    +0.000 A 
ATOM     16  C   UNL     1      70.154 219.745 340.609  0.00  0.00    +0.000 A 
ATOM     17  C   UNL     1      70.645 220.991 340.977  0.00  0.00    +0.000 A 
BRANCH  17  18
ATOM     18  O   UNL     1      71.130 221.150 342.242  0.00  0.00    +0.000 OA
ATOM     19  H   UNL     1      71.419 222.074 342.343  0.00  0.00    +0.000 HD
ENDBRANCH  17  18
ENDBRANCH   4  12
BRANCH   7  20
ATOM     20  O   UNL     1      65.005 220.311 335.448  0.00  0.00    +0.000 OA
ATOM     21  H   UNL     1      65.055 219.693 336.213  0.00  0.00    +0.000 HD
ENDBRANCH   7  20
BRANCH  11  22
ATOM     22  O   UNL     1      66.770 219.511 331.118  0.00  0.00    +0.000 OA
ATOM     23  H   UNL     1      65.835 219.271 330.989  0.00  0.00    +0.000 HD
ENDBRANCH  11  22
TORSDOF 4
ENDMDL
MODEL 6
REMARK VINA RESULT:      -5.1      2.795      7.106
REMARK  Name = Genistein.pdbqt.pdb
REMARK  4 active torsions:
REMARK  status: ('A' for Active; 'I' for Inactive)
REMARK    1  A    between atoms: C_4  and  C_12
REMARK    2  A    between atoms: C_7  and  O_20
REMARK    3  A    between atoms: C_11  and  O_22
REMARK    4  A    between atoms: C_17  and  O_18
REMARK                            x       y       z     vdW  Elec       q    Type
REMARK                         _______ _______ _______ _____ _____    ______ ____
ROOT
ATOM      1  O   UNL     1      51.485 247.129 326.610  0.00  0.00    +0.000 OA
ATOM      2  O   UNL     1      53.797 243.652 326.338  0.00  0.00    +0.000 OA
ATOM      3  C   UNL     1      52.104 244.883 327.467  0.00  0.00    +0.000 A 
ATOM      4  C   UNL     1      53.275 245.824 325.418  0.00  0.00    +0.000 A 
ATOM      5  C   UNL     1      51.338 246.085 327.521  0.00  0.00    +0.000 A 
ATOM      6  C   UNL     1      53.139 244.685 326.384  0.00  0.00    +0.000 A 
ATOM      7  C   UNL     1      51.886 243.890 328.426  0.00  0.00    +0.000 A 
ATOM      8  C   UNL     1      52.429 246.739 325.771  0.00  0.00    +0.000 A 
ATOM      9  C   UNL     1      50.385 246.267 328.519  0.00  0.00    +0.000 A 
ATOM     10  C   UNL     1      50.930 244.080 329.422  0.00  0.00    +0.000 A 
ATOM     11  C   UNL     1      50.191 245.260 329.459  0.00  0.00    +0.000 A 
ENDROOT
BRANCH   4  12
ATOM     12  C   UNL     1      54.190 245.904 324.281  0.00  0.00    +0.000 A 
ATOM     13  C   UNL     1      54.409 244.802 323.451  0.00  0.00    +0.000 A 
ATOM     14  C   UNL     1      54.870 247.095 323.998  0.00  0.00    +0.000 A 
ATOM     15  C   UNL     1      55.281 244.878 322.367  0.00  0.00    +0.000 A 
ATOM     16  C   UNL     1      55.746 247.184 322.917  0.00  0.00    +0.000 A 
ATOM     17  C   UNL     1      55.943 246.072 322.109  0.00  0.00    +0.000 A 
BRANCH  17  18
ATOM     18  O   UNL     1      56.803 246.180 321.055  0.00  0.00    +0.000 OA
ATOM     19  H   UNL     1      57.278 245.335 320.962  0.00  0.00    +0.000 HD
ENDBRANCH  17  18
ENDBRANCH   4  12
BRANCH   7  20
ATOM     20  O   UNL     1      52.572 242.706 328.452  0.00  0.00    +0.000 OA
ATOM     21  H   UNL     1      53.358 242.810 329.036  0.00  0.00    +0.000 HD
ENDBRANCH   7  20
BRANCH  11  22
ATOM     22  O   UNL     1      49.252 245.457 330.430  0.00  0.00    +0.000 OA
ATOM     23  H   UNL     1      48.377 245.492 330.004  0.00  0.00    +0.000 HD
ENDBRANCH  11  22
TORSDOF 4
ENDMDL
MODEL 7
REMARK VINA RESULT:      -5.0      3.117      5.762
REMARK  Name = Genistein.pdbqt.pdb
REMARK  4 active torsions:
REMARK  status: ('A' for Active; 'I' for Inactive)
REMARK    1  A    between atoms: C_4  and  C_12
REMARK    2  A    between atoms: C_7  and  O_20
REMARK    3  A    between atoms: C_11  and  O_22
REMARK    4  A    between atoms: C_17  and  O_18
REMARK                            x       y       z     vdW  Elec       q    Type
REMARK                         _______ _______ _______ _____ _____    ______ ____
ROOT
ATOM      1  O   UNL     1      51.042 242.762 323.234  0.00  0.00    +0.000 OA
ATOM      2  O   UNL     1      51.468 241.881 327.302  0.00  0.00    +0.000 OA
ATOM      3  C   UNL     1      52.252 243.045 325.383  0.00  0.00    +0.000 A 
ATOM      4  C   UNL     1      50.215 241.532 325.266  0.00  0.00    +0.000 A 
ATOM      5  C   UNL     1      52.069 243.317 323.995  0.00  0.00    +0.000 A 
ATOM      6  C   UNL     1      51.310 242.114 326.109  0.00  0.00    +0.000 A 
ATOM      7  C   UNL     1      53.312 243.650 326.064  0.00  0.00    +0.000 A 
ATOM      8  C   UNL     1      50.358 241.995 324.065  0.00  0.00    +0.000 A 
ATOM      9  C   UNL     1      52.938 244.175 323.325  0.00  0.00    +0.000 A 
ATOM     10  C   UNL     1      54.178 244.508 325.387  0.00  0.00    +0.000 A 
ATOM     11  C   UNL     1      53.984 244.762 324.031  0.00  0.00    +0.000 A 
ENDROOT
BRANCH   4  12
ATOM     12  C   UNL     1      49.170 240.608 325.703  0.00  0.00    +0.000 A 
ATOM     13  C   UNL     1      48.071 241.056 326.439  0.00  0.00    +0.000 A 
ATOM     14  C   UNL     1      49.249 239.246 325.389  0.00  0.00    +0.000 A 
ATOM     15  C   UNL     1      47.074 240.176 326.855  0.00  0.00    +0.000 A 
ATOM     16  C   UNL     1      48.259 238.353 325.800  0.00  0.00    +0.000 A 
ATOM     17  C   UNL     1      47.178 238.828 326.530  0.00  0.00    +0.000 A 
BRANCH  17  18
ATOM     18  O   UNL     1      46.219 237.940 326.923  0.00  0.00    +0.000 OA
ATOM     19  H   UNL     1      45.513 238.435 327.375  0.00  0.00    +0.000 HD
ENDBRANCH  17  18
ENDBRANCH   4  12
BRANCH   7  20
ATOM     20  O   UNL     1      53.565 243.449 327.394  0.00  0.00    +0.000 OA
ATOM     21  H   UNL     1      54.436 242.998 327.485  0.00  0.00    +0.000 HD
ENDBRANCH   7  20
BRANCH  11  22
ATOM     22  O   UNL     1      54.825 245.600 323.357  0.00  0.00    +0.000 OA
ATOM     23  H   UNL     1      54.301 246.347 323.018  0.00  0.00    +0.000 HD
ENDBRANCH  11  22
TORSDOF 4
ENDMDL
MODEL 8
REMARK VINA RESULT:      -4.9     20.035     24.966
REMARK  Name = Genistein.pdbqt.pdb
REMARK  4 active torsions:
REMARK  status: ('A' for Active; 'I' for Inactive)
REMARK    1  A    between atoms: C_4  and  C_12
REMARK    2  A    between atoms: C_7  and  O_20
REMARK    3  A    between atoms: C_11  and  O_22
REMARK    4  A    between atoms: C_17  and  O_18
REMARK                            x       y       z     vdW  Elec       q    Type
REMARK                         _______ _______ _______ _____ _____    ______ ____
ROOT
ATOM      1  O   UNL     1      43.821 237.171 344.709  0.00  0.00    +0.000 OA
ATOM      2  O   UNL     1      47.750 238.086 345.819  0.00  0.00    +0.000 OA
ATOM      3  C   UNL     1      45.833 236.704 346.085  0.00  0.00    +0.000 A 
ATOM      4  C   UNL     1      45.850 238.631 344.430  0.00  0.00    +0.000 A 
ATOM      5  C   UNL     1      44.495 236.428 345.676  0.00  0.00    +0.000 A 
ATOM      6  C   UNL     1      46.600 237.849 345.467  0.00  0.00    +0.000 A 
ATOM      7  C   UNL     1      46.428 235.902 347.063  0.00  0.00    +0.000 A 
ATOM      8  C   UNL     1      44.673 238.103 344.318  0.00  0.00    +0.000 A 
ATOM      9  C   UNL     1      43.789 235.372 346.246  0.00  0.00    +0.000 A 
ATOM     10  C   UNL     1      45.714 234.847 347.629  0.00  0.00    +0.000 A 
ATOM     11  C   UNL     1      44.408 234.592 347.217  0.00  0.00    +0.000 A 
ENDROOT
BRANCH   4  12
ATOM     12  C   UNL     1      46.342 239.783 343.676  0.00  0.00    +0.000 A 
ATOM     13  C   UNL     1      46.835 239.638 342.376  0.00  0.00    +0.000 A 
ATOM     14  C   UNL     1      46.327 241.063 344.242  0.00  0.00    +0.000 A 
ATOM     15  C   UNL     1      47.303 240.735 341.656  0.00  0.00    +0.000 A 
ATOM     16  C   UNL     1      46.793 242.169 343.533  0.00  0.00    +0.000 A 
ATOM     17  C   UNL     1      47.277 241.995 342.243  0.00  0.00    +0.000 A 
BRANCH  17  18
ATOM     18  O   UNL     1      47.728 243.089 341.565  0.00  0.00    +0.000 OA
ATOM     19  H   UNL     1      46.965 243.661 341.368  0.00  0.00    +0.000 HD
ENDBRANCH  17  18
ENDBRANCH   4  12
BRANCH   7  20
ATOM     20  O   UNL     1      47.705 236.090 347.517  0.00  0.00    +0.000 OA
ATOM     21  H   UNL     1      48.316 235.534 346.981  0.00  0.00    +0.000 HD
ENDBRANCH   7  20
BRANCH  11  22
ATOM     22  O   UNL     1      43.699 233.562 347.764  0.00  0.00    +0.000 OA
ATOM     23  H   UNL     1      43.435 232.960 347.045  0.00  0.00    +0.000 HD
ENDBRANCH  11  22
TORSDOF 4
ENDMDL
MODEL 9
REMARK VINA RESULT:      -4.9     18.765     19.697
REMARK  Name = Genistein.pdbqt.pdb
REMARK  4 active torsions:
REMARK  status: ('A' for Active; 'I' for Inactive)
REMARK    1  A    between atoms: C_4  and  C_12
REMARK    2  A    between atoms: C_7  and  O_20
REMARK    3  A    between atoms: C_11  and  O_22
REMARK    4  A    between atoms: C_17  and  O_18
REMARK                            x       y       z     vdW  Elec       q    Type
REMARK                         _______ _______ _______ _____ _____    ______ ____
ROOT
ATOM      1  O   UNL     1      68.083 241.707 338.412  0.00  0.00    +0.000 OA
ATOM      2  O   UNL     1      63.977 240.902 338.439  0.00  0.00    +0.000 OA
ATOM      3  C   UNL     1      66.185 240.183 337.925  0.00  0.00    +0.000 A 
ATOM      4  C   UNL     1      65.746 242.464 338.954  0.00  0.00    +0.000 A 
ATOM      5  C   UNL     1      67.576 240.501 337.935  0.00  0.00    +0.000 A 
ATOM      6  C   UNL     1      65.172 241.175 338.448  0.00  0.00    +0.000 A 
ATOM      7  C   UNL     1      65.770 238.945 337.427  0.00  0.00    +0.000 A 
ATOM      8  C   UNL     1      67.032 242.403 338.809  0.00  0.00    +0.000 A 
ATOM      9  C   UNL     1      68.509 239.587 337.453  0.00  0.00    +0.000 A 
ATOM     10  C   UNL     1      66.711 238.036 336.946  0.00  0.00    +0.000 A 
ATOM     11  C   UNL     1      68.065 238.363 336.964  0.00  0.00    +0.000 A 
ENDROOT
BRANCH   4  12
ATOM     12  C   UNL     1      65.005 243.594 339.511  0.00  0.00    +0.000 A 
ATOM     13  C   UNL     1      65.288 244.906 339.121  0.00  0.00    +0.000 A 
ATOM     14  C   UNL     1      63.989 243.385 340.451  0.00  0.00    +0.000 A 
ATOM     15  C   UNL     1      64.581 245.984 339.651  0.00  0.00    +0.000 A 
ATOM     16  C   UNL     1      63.275 244.454 340.990  0.00  0.00    +0.000 A 
ATOM     17  C   UNL     1      63.578 245.747 340.583  0.00  0.00    +0.000 A 
BRANCH  17  18
ATOM     18  O   UNL     1      62.868 246.780 341.121  0.00  0.00    +0.000 OA
ATOM     19  H   UNL     1      62.777 247.473 340.443  0.00  0.00    +0.000 HD
ENDBRANCH  17  18
ENDBRANCH   4  12
BRANCH   7  20
ATOM     20  O   UNL     1      64.459 238.554 337.378  0.00  0.00    +0.000 OA
ATOM     21  H   UNL     1      64.263 238.222 336.472  0.00  0.00    +0.000 HD
ENDBRANCH   7  20
BRANCH  11  22
ATOM     22  O   UNL     1      68.995 237.480 336.496  0.00  0.00    +0.000 OA
ATOM     23  H   UNL     1      68.860 236.628 336.947  0.00  0.00    +0.000 HD
ENDBRANCH  11  22
TORSDOF 4
ENDMDL
