MODEL 1
REMARK VINA RESULT:      -5.1      0.000      0.000
REMARK  Name = Hyoscyamine.pdbqt.pdb
REMARK  6 active torsions:
REMARK  status: ('A' for Active; 'I' for Inactive)
REMARK    1  A    between atoms: C_2  and  O_3
REMARK    2  A    between atoms: C_2  and  C_13
REMARK    3  A    between atoms: O_3  and  C_4
REMARK    4  A    between atoms: C_13  and  C_14
REMARK    5  A    between atoms: C_13  and  C_20
REMARK    6  A    between atoms: C_20  and  O_21
REMARK                            x       y       z     vdW  Elec       q    Type
REMARK                         _______ _______ _______ _____ _____    ______ ____
ROOT
ATOM      1  O   UNL     1      48.498 243.290 325.948  0.00  0.00    +0.000 OA
ATOM      2  C   UNL     1      49.239 242.729 326.746  0.00  0.00    +0.000 C 
ENDROOT
BRANCH   2   3
ATOM      3  O   UNL     1      49.111 242.705 328.104  0.00  0.00    +0.000 OA
BRANCH   3   4
ATOM      4  C   UNL     1      49.444 243.920 328.703  0.00  0.00    +0.000 C 
ATOM      5  C   UNL     1      50.510 243.999 329.687  0.00  0.00    +0.000 C 
ATOM      6  C   UNL     1      50.507 244.786 330.927  0.00  0.00    +0.000 C 
ATOM      7  N   UNL     1      49.085 244.612 331.477  0.00  0.00    +0.000 NA
ATOM      8  C   UNL     1      50.624 246.215 330.694  0.00  0.00    +0.000 C 
ATOM      9  C   UNL     1      48.379 245.528 330.465  0.00  0.00    +0.000 C 
ATOM     10  C   UNL     1      48.970 245.135 332.847  0.00  0.00    +0.000 C 
ATOM     11  C   UNL     1      49.212 246.719 330.390  0.00  0.00    +0.000 C 
ATOM     12  C   UNL     1      48.371 244.747 329.218  0.00  0.00    +0.000 C 
ENDBRANCH   3   4
ENDBRANCH   2   3
BRANCH   2  13
ATOM     13  C   UNL     1      50.466 241.989 326.328  0.00  0.00    +0.000 C 
BRANCH  13  14
ATOM     14  C   UNL     1      51.699 242.646 325.855  0.00  0.00    +0.000 A 
ATOM     15  C   UNL     1      51.894 242.883 324.490  0.00  0.00    +0.000 A 
ATOM     16  C   UNL     1      53.069 243.470 324.025  0.00  0.00    +0.000 A 
ATOM     17  C   UNL     1      54.072 243.821 324.923  0.00  0.00    +0.000 A 
ATOM     18  C   UNL     1      53.899 243.583 326.282  0.00  0.00    +0.000 A 
ATOM     19  C   UNL     1      52.721 242.995 326.741  0.00  0.00    +0.000 A 
ENDBRANCH  13  14
BRANCH  13  20
ATOM     20  C   UNL     1      50.441 240.565 326.466  0.00  0.00    +0.000 C 
BRANCH  20  21
ATOM     21  O   UNL     1      50.417 239.242 326.594  0.00  0.00    +0.000 OA
ATOM     22  H   UNL     1      49.650 238.868 326.126  0.00  0.00    +0.000 HD
ENDBRANCH  20  21
ENDBRANCH  13  20
ENDBRANCH   2  13
TORSDOF 6
ENDMDL
MODEL 2
REMARK VINA RESULT:      -4.7      3.762      6.014
REMARK  Name = Hyoscyamine.pdbqt.pdb
REMARK  6 active torsions:
REMARK  status: ('A' for Active; 'I' for Inactive)
REMARK    1  A    between atoms: C_2  and  O_3
REMARK    2  A    between atoms: C_2  and  C_13
REMARK    3  A    between atoms: O_3  and  C_4
REMARK    4  A    between atoms: C_13  and  C_14
REMARK    5  A    between atoms: C_13  and  C_20
REMARK    6  A    between atoms: C_20  and  O_21
REMARK                            x       y       z     vdW  Elec       q    Type
REMARK                         _______ _______ _______ _____ _____    ______ ____
ROOT
ATOM      1  O   UNL     1      49.567 243.889 325.165  0.00  0.00    +0.000 OA
ATOM      2  C   UNL     1      50.158 243.013 325.784  0.00  0.00    +0.000 C 
ENDROOT
BRANCH   2   3
ATOM      3  O   UNL     1      49.600 241.945 326.424  0.00  0.00    +0.000 OA
BRANCH   3   4
ATOM      4  C   UNL     1      49.648 240.772 325.670  0.00  0.00    +0.000 C 
ATOM      5  C   UNL     1      49.079 240.721 324.335  0.00  0.00    +0.000 C 
ATOM      6  C   UNL     1      48.307 239.618 323.749  0.00  0.00    +0.000 C 
ATOM      7  N   UNL     1      47.399 239.148 324.893  0.00  0.00    +0.000 NA
ATOM      8  C   UNL     1      49.120 238.454 323.440  0.00  0.00    +0.000 C 
ATOM      9  C   UNL     1      48.485 238.434 325.712  0.00  0.00    +0.000 C 
ATOM     10  C   UNL     1      46.378 238.203 324.415  0.00  0.00    +0.000 C 
ATOM     11  C   UNL     1      49.241 237.657 324.740  0.00  0.00    +0.000 C 
ATOM     12  C   UNL     1      49.264 239.529 326.309  0.00  0.00    +0.000 C 
ENDBRANCH   3   4
ENDBRANCH   2   3
BRANCH   2  13
ATOM     13  C   UNL     1      51.640 243.009 325.967  0.00  0.00    +0.000 C 
BRANCH  13  14
ATOM     14  C   UNL     1      52.598 243.375 324.907  0.00  0.00    +0.000 A 
ATOM     15  C   UNL     1      53.568 244.357 325.140  0.00  0.00    +0.000 A 
ATOM     16  C   UNL     1      54.456 244.739 324.136  0.00  0.00    +0.000 A 
ATOM     17  C   UNL     1      54.379 244.148 322.879  0.00  0.00    +0.000 A 
ATOM     18  C   UNL     1      53.414 243.179 322.627  0.00  0.00    +0.000 A 
ATOM     19  C   UNL     1      52.528 242.801 323.636  0.00  0.00    +0.000 A 
ENDBRANCH  13  14
BRANCH  13  20
ATOM     20  C   UNL     1      52.129 242.692 327.274  0.00  0.00    +0.000 C 
BRANCH  20  21
ATOM     21  O   UNL     1      52.584 242.397 328.487  0.00  0.00    +0.000 OA
ATOM     22  H   UNL     1      53.412 241.889 328.427  0.00  0.00    +0.000 HD
ENDBRANCH  20  21
ENDBRANCH  13  20
ENDBRANCH   2  13
TORSDOF 6
ENDMDL
MODEL 3
REMARK VINA RESULT:      -4.7     19.257     22.024
REMARK  Name = Hyoscyamine.pdbqt.pdb
REMARK  6 active torsions:
REMARK  status: ('A' for Active; 'I' for Inactive)
REMARK    1  A    between atoms: C_2  and  O_3
REMARK    2  A    between atoms: C_2  and  C_13
REMARK    3  A    between atoms: O_3  and  C_4
REMARK    4  A    between atoms: C_13  and  C_14
REMARK    5  A    between atoms: C_13  and  C_20
REMARK    6  A    between atoms: C_20  and  O_21
REMARK                            x       y       z     vdW  Elec       q    Type
REMARK                         _______ _______ _______ _____ _____    ______ ____
ROOT
ATOM      1  O   UNL     1      52.279 240.614 351.376  0.00  0.00    +0.000 OA
ATOM      2  C   UNL     1      52.841 239.938 350.523  0.00  0.00    +0.000 C 
ENDROOT
BRANCH   2   3
ATOM      3  O   UNL     1      53.918 239.120 350.706  0.00  0.00    +0.000 OA
BRANCH   3   4
ATOM      4  C   UNL     1      55.130 239.811 350.719  0.00  0.00    +0.000 C 
ATOM      5  C   UNL     1      55.217 241.152 351.269  0.00  0.00    +0.000 C 
ATOM      6  C   UNL     1      55.982 242.280 350.720  0.00  0.00    +0.000 C 
ATOM      7  N   UNL     1      55.762 242.179 349.205  0.00  0.00    +0.000 NA
ATOM      8  C   UNL     1      57.418 242.127 350.881  0.00  0.00    +0.000 C 
ATOM      9  C   UNL     1      56.678 240.970 348.963  0.00  0.00    +0.000 C 
ATOM     10  C   UNL     1      56.257 243.376 348.509  0.00  0.00    +0.000 C 
ATOM     11  C   UNL     1      57.891 241.259 349.714  0.00  0.00    +0.000 C 
ATOM     12  C   UNL     1      55.921 239.831 349.505  0.00  0.00    +0.000 C 
ENDBRANCH   3   4
ENDBRANCH   2   3
BRANCH   2  13
ATOM     13  C   UNL     1      52.432 239.942 349.087  0.00  0.00    +0.000 C 
BRANCH  13  14
ATOM     14  C   UNL     1      52.651 241.080 348.176  0.00  0.00    +0.000 A 
ATOM     15  C   UNL     1      53.287 240.887 346.944  0.00  0.00    +0.000 A 
ATOM     16  C   UNL     1      53.533 241.959 346.088  0.00  0.00    +0.000 A 
ATOM     17  C   UNL     1      53.154 243.245 346.460  0.00  0.00    +0.000 A 
ATOM     18  C   UNL     1      52.531 243.457 347.685  0.00  0.00    +0.000 A 
ATOM     19  C   UNL     1      52.287 242.380 348.536  0.00  0.00    +0.000 A 
ENDBRANCH  13  14
BRANCH  13  20
ATOM     20  C   UNL     1      51.857 238.736 348.576  0.00  0.00    +0.000 C 
BRANCH  20  21
ATOM     21  O   UNL     1      51.323 237.616 348.100  0.00  0.00    +0.000 OA
ATOM     22  H   UNL     1      50.406 237.770 347.813  0.00  0.00    +0.000 HD
ENDBRANCH  20  21
ENDBRANCH  13  20
ENDBRANCH   2  13
TORSDOF 6
ENDMDL
MODEL 4
REMARK VINA RESULT:      -4.7     25.888     28.024
REMARK  Name = Hyoscyamine.pdbqt.pdb
REMARK  6 active torsions:
REMARK  status: ('A' for Active; 'I' for Inactive)
REMARK    1  A    between atoms: C_2  and  O_3
REMARK    2  A    between atoms: C_2  and  C_13
REMARK    3  A    between atoms: O_3  and  C_4
REMARK    4  A    between atoms: C_13  and  C_14
REMARK    5  A    between atoms: C_13  and  C_20
REMARK    6  A    between atoms: C_20  and  O_21
REMARK                            x       y       z     vdW  Elec       q    Type
REMARK                         _______ _______ _______ _____ _____    ______ ____
ROOT
ATOM      1  O   UNL     1      56.526 215.264 335.078  0.00  0.00    +0.000 OA
ATOM      2  C   UNL     1      56.532 216.488 335.016  0.00  0.00    +0.000 C 
ENDROOT
BRANCH   2   3
ATOM      3  O   UNL     1      56.124 217.358 335.985  0.00  0.00    +0.000 OA
BRANCH   3   4
ATOM      4  C   UNL     1      57.169 217.797 336.798  0.00  0.00    +0.000 C 
ATOM      5  C   UNL     1      58.206 216.880 337.239  0.00  0.00    +0.000 C 
ATOM      6  C   UNL     1      58.819 216.820 338.572  0.00  0.00    +0.000 C 
ATOM      7  N   UNL     1      57.642 217.029 339.535  0.00  0.00    +0.000 NA
ATOM      8  C   UNL     1      59.703 217.940 338.844  0.00  0.00    +0.000 C 
ATOM      9  C   UNL     1      57.463 218.534 339.287  0.00  0.00    +0.000 C 
ATOM     10  C   UNL     1      58.031 216.756 340.926  0.00  0.00    +0.000 C 
ATOM     11  C   UNL     1      58.810 219.086 339.324  0.00  0.00    +0.000 C 
ATOM     12  C   UNL     1      56.845 218.609 337.954  0.00  0.00    +0.000 C 
ENDBRANCH   3   4
ENDBRANCH   2   3
BRANCH   2  13
ATOM     13  C   UNL     1      56.972 217.235 333.801  0.00  0.00    +0.000 C 
BRANCH  13  14
ATOM     14  C   UNL     1      56.043 217.795 332.802  0.00  0.00    +0.000 A 
ATOM     15  C   UNL     1      56.168 217.452 331.451  0.00  0.00    +0.000 A 
ATOM     16  C   UNL     1      55.320 218.002 330.491  0.00  0.00    +0.000 A 
ATOM     17  C   UNL     1      54.338 218.912 330.870  0.00  0.00    +0.000 A 
ATOM     18  C   UNL     1      54.207 219.271 332.207  0.00  0.00    +0.000 A 
ATOM     19  C   UNL     1      55.059 218.718 333.163  0.00  0.00    +0.000 A 
ENDBRANCH  13  14
BRANCH  13  20
ATOM     20  C   UNL     1      58.377 217.463 333.655  0.00  0.00    +0.000 C 
BRANCH  20  21
ATOM     21  O   UNL     1      59.682 217.674 333.520  0.00  0.00    +0.000 OA
ATOM     22  H   UNL     1      59.849 218.568 333.175  0.00  0.00    +0.000 HD
ENDBRANCH  20  21
ENDBRANCH  13  20
ENDBRANCH   2  13
TORSDOF 6
ENDMDL
MODEL 5
REMARK VINA RESULT:      -4.7      4.279      5.740
REMARK  Name = Hyoscyamine.pdbqt.pdb
REMARK  6 active torsions:
REMARK  status: ('A' for Active; 'I' for Inactive)
REMARK    1  A    between atoms: C_2  and  O_3
REMARK    2  A    between atoms: C_2  and  C_13
REMARK    3  A    between atoms: O_3  and  C_4
REMARK    4  A    between atoms: C_13  and  C_14
REMARK    5  A    between atoms: C_13  and  C_20
REMARK    6  A    between atoms: C_20  and  O_21
REMARK                            x       y       z     vdW  Elec       q    Type
REMARK                         _______ _______ _______ _____ _____    ______ ____
ROOT
ATOM      1  O   UNL     1      51.398 244.622 323.258  0.00  0.00    +0.000 OA
ATOM      2  C   UNL     1      52.138 243.873 323.884  0.00  0.00    +0.000 C 
ENDROOT
BRANCH   2   3
ATOM      3  O   UNL     1      51.886 242.579 324.236  0.00  0.00    +0.000 OA
BRANCH   3   4
ATOM      4  C   UNL     1      50.584 242.385 324.699  0.00  0.00    +0.000 C 
ATOM      5  C   UNL     1      50.336 241.891 326.042  0.00  0.00    +0.000 C 
ATOM      6  C   UNL     1      49.320 240.910 326.445  0.00  0.00    +0.000 C 
ATOM      7  N   UNL     1      49.353 239.857 325.329  0.00  0.00    +0.000 NA
ATOM      8  C   UNL     1      47.968 241.437 326.396  0.00  0.00    +0.000 C 
ATOM      9  C   UNL     1      48.640 240.697 324.259  0.00  0.00    +0.000 C 
ATOM     10  C   UNL     1      48.569 238.666 325.689  0.00  0.00    +0.000 C 
ATOM     11  C   UNL     1      47.504 241.296 324.945  0.00  0.00    +0.000 C 
ATOM     12  C   UNL     1      49.649 241.683 323.842  0.00  0.00    +0.000 C 
ENDBRANCH   3   4
ENDBRANCH   2   3
BRANCH   2  13
ATOM     13  C   UNL     1      53.469 244.302 324.409  0.00  0.00    +0.000 C 
BRANCH  13  14
ATOM     14  C   UNL     1      54.364 245.240 323.705  0.00  0.00    +0.000 A 
ATOM     15  C   UNL     1      55.122 244.806 322.612  0.00  0.00    +0.000 A 
ATOM     16  C   UNL     1      55.999 245.671 321.960  0.00  0.00    +0.000 A 
ATOM     17  C   UNL     1      56.136 246.983 322.401  0.00  0.00    +0.000 A 
ATOM     18  C   UNL     1      55.397 247.428 323.492  0.00  0.00    +0.000 A 
ATOM     19  C   UNL     1      54.522 246.558 324.140  0.00  0.00    +0.000 A 
ENDBRANCH  13  14
BRANCH  13  20
ATOM     20  C   UNL     1      53.843 243.812 325.700  0.00  0.00    +0.000 C 
BRANCH  20  21
ATOM     21  O   UNL     1      54.191 243.356 326.899  0.00  0.00    +0.000 OA
ATOM     22  H   UNL     1      53.643 243.767 327.591  0.00  0.00    +0.000 HD
ENDBRANCH  20  21
ENDBRANCH  13  20
ENDBRANCH   2  13
TORSDOF 6
ENDMDL
MODEL 6
REMARK VINA RESULT:      -4.6     25.688     27.596
REMARK  Name = Hyoscyamine.pdbqt.pdb
REMARK  6 active torsions:
REMARK  status: ('A' for Active; 'I' for Inactive)
REMARK    1  A    between atoms: C_2  and  O_3
REMARK    2  A    between atoms: C_2  and  C_13
REMARK    3  A    between atoms: O_3  and  C_4
REMARK    4  A    between atoms: C_13  and  C_14
REMARK    5  A    between atoms: C_13  and  C_20
REMARK    6  A    between atoms: C_20  and  O_21
REMARK                            x       y       z     vdW  Elec       q    Type
REMARK                         _______ _______ _______ _____ _____    ______ ____
ROOT
ATOM      1  O   UNL     1      56.200 214.611 333.266  0.00  0.00    +0.000 OA
ATOM      2  C   UNL     1      56.852 215.635 333.096  0.00  0.00    +0.000 C 
ENDROOT
BRANCH   2   3
ATOM      3  O   UNL     1      57.877 216.091 333.872  0.00  0.00    +0.000 OA
BRANCH   3   4
ATOM      4  C   UNL     1      57.545 217.236 334.595  0.00  0.00    +0.000 C 
ATOM      5  C   UNL     1      58.569 218.180 335.007  0.00  0.00    +0.000 C 
ATOM      6  C   UNL     1      58.658 218.874 336.299  0.00  0.00    +0.000 C 
ATOM      7  N   UNL     1      58.268 217.802 337.326  0.00  0.00    +0.000 NA
ATOM      8  C   UNL     1      57.649 219.906 336.462  0.00  0.00    +0.000 C 
ATOM      9  C   UNL     1      56.762 217.793 337.024  0.00  0.00    +0.000 C 
ATOM     10  C   UNL     1      58.538 218.252 338.700  0.00  0.00    +0.000 C 
ATOM     11  C   UNL     1      56.384 219.198 336.948  0.00  0.00    +0.000 C 
ATOM     12  C   UNL     1      56.658 217.097 335.732  0.00  0.00    +0.000 C 
ENDBRANCH   3   4
ENDBRANCH   2   3
BRANCH   2  13
ATOM     13  C   UNL     1      56.577 216.594 331.985  0.00  0.00    +0.000 C 
BRANCH  13  14
ATOM     14  C   UNL     1      55.306 217.327 331.830  0.00  0.00    +0.000 A 
ATOM     15  C   UNL     1      54.219 216.727 331.185  0.00  0.00    +0.000 A 
ATOM     16  C   UNL     1      53.024 217.421 330.999  0.00  0.00    +0.000 A 
ATOM     17  C   UNL     1      52.905 218.731 331.450  0.00  0.00    +0.000 A 
ATOM     18  C   UNL     1      53.979 219.346 332.084  0.00  0.00    +0.000 A 
ATOM     19  C   UNL     1      55.171 218.647 332.267  0.00  0.00    +0.000 A 
ENDBRANCH  13  14
BRANCH  13  20
ATOM     20  C   UNL     1      57.648 216.848 331.071  0.00  0.00    +0.000 C 
BRANCH  20  21
ATOM     21  O   UNL     1      58.642 217.084 330.222  0.00  0.00    +0.000 OA
ATOM     22  H   UNL     1      59.452 217.326 330.704  0.00  0.00    +0.000 HD
ENDBRANCH  20  21
ENDBRANCH  13  20
ENDBRANCH   2  13
TORSDOF 6
ENDMDL
MODEL 7
REMARK VINA RESULT:      -4.5      6.969      9.550
REMARK  Name = Hyoscyamine.pdbqt.pdb
REMARK  6 active torsions:
REMARK  status: ('A' for Active; 'I' for Inactive)
REMARK    1  A    between atoms: C_2  and  O_3
REMARK    2  A    between atoms: C_2  and  C_13
REMARK    3  A    between atoms: O_3  and  C_4
REMARK    4  A    between atoms: C_13  and  C_14
REMARK    5  A    between atoms: C_13  and  C_20
REMARK    6  A    between atoms: C_20  and  O_21
REMARK                            x       y       z     vdW  Elec       q    Type
REMARK                         _______ _______ _______ _____ _____    ______ ____
ROOT
ATOM      1  O   UNL     1      46.100 235.575 323.670  0.00  0.00    +0.000 OA
ATOM      2  C   UNL     1      47.286 235.341 323.865  0.00  0.00    +0.000 C 
ENDROOT
BRANCH   2   3
ATOM      3  O   UNL     1      48.185 236.143 324.505  0.00  0.00    +0.000 OA
BRANCH   3   4
ATOM      4  C   UNL     1      47.749 237.463 324.622  0.00  0.00    +0.000 C 
ATOM      5  C   UNL     1      48.351 238.520 323.829  0.00  0.00    +0.000 C 
ATOM      6  C   UNL     1      48.685 239.878 324.280  0.00  0.00    +0.000 C 
ATOM      7  N   UNL     1      49.259 239.673 325.689  0.00  0.00    +0.000 NA
ATOM      8  C   UNL     1      47.515 240.712 324.492  0.00  0.00    +0.000 C 
ATOM      9  C   UNL     1      47.926 239.376 326.392  0.00  0.00    +0.000 C 
ATOM     10  C   UNL     1      49.875 240.906 326.202  0.00  0.00    +0.000 C 
ATOM     11  C   UNL     1      47.004 240.388 325.897  0.00  0.00    +0.000 C 
ATOM     12  C   UNL     1      47.582 238.015 325.952  0.00  0.00    +0.000 C 
ENDBRANCH   3   4
ENDBRANCH   2   3
BRANCH   2  13
ATOM     13  C   UNL     1      47.958 234.102 323.371  0.00  0.00    +0.000 C 
BRANCH  13  14
ATOM     14  C   UNL     1      47.678 233.484 322.062  0.00  0.00    +0.000 A 
ATOM     15  C   UNL     1      47.418 234.284 320.944  0.00  0.00    +0.000 A 
ATOM     16  C   UNL     1      47.117 233.714 319.708  0.00  0.00    +0.000 A 
ATOM     17  C   UNL     1      47.062 232.330 319.577  0.00  0.00    +0.000 A 
ATOM     18  C   UNL     1      47.308 231.520 320.680  0.00  0.00    +0.000 A 
ATOM     19  C   UNL     1      47.609 232.096 321.914  0.00  0.00    +0.000 A 
ENDBRANCH  13  14
BRANCH  13  20
ATOM     20  C   UNL     1      48.973 233.540 324.209  0.00  0.00    +0.000 C 
BRANCH  20  21
ATOM     21  O   UNL     1      49.916 233.018 324.986  0.00  0.00    +0.000 OA
ATOM     22  H   UNL     1      50.736 232.878 324.481  0.00  0.00    +0.000 HD
ENDBRANCH  20  21
ENDBRANCH  13  20
ENDBRANCH   2  13
TORSDOF 6
ENDMDL
MODEL 8
REMARK VINA RESULT:      -4.4      4.014      6.259
REMARK  Name = Hyoscyamine.pdbqt.pdb
REMARK  6 active torsions:
REMARK  status: ('A' for Active; 'I' for Inactive)
REMARK    1  A    between atoms: C_2  and  O_3
REMARK    2  A    between atoms: C_2  and  C_13
REMARK    3  A    between atoms: O_3  and  C_4
REMARK    4  A    between atoms: C_13  and  C_14
REMARK    5  A    between atoms: C_13  and  C_20
REMARK    6  A    between atoms: C_20  and  O_21
REMARK                            x       y       z     vdW  Elec       q    Type
REMARK                         _______ _______ _______ _____ _____    ______ ____
ROOT
ATOM      1  O   UNL     1      48.872 241.847 327.256  0.00  0.00    +0.000 OA
ATOM      2  C   UNL     1      49.642 241.249 326.514  0.00  0.00    +0.000 C 
ENDROOT
BRANCH   2   3
ATOM      3  O   UNL     1      50.082 239.965 326.653  0.00  0.00    +0.000 OA
BRANCH   3   4
ATOM      4  C   UNL     1      49.112 239.019 326.320  0.00  0.00    +0.000 C 
ATOM      5  C   UNL     1      49.260 238.183 325.142  0.00  0.00    +0.000 C 
ATOM      6  C   UNL     1      48.204 237.803 324.194  0.00  0.00    +0.000 C 
ATOM      7  N   UNL     1      47.380 239.086 324.019  0.00  0.00    +0.000 NA
ATOM      8  C   UNL     1      47.260 236.847 324.746  0.00  0.00    +0.000 C 
ATOM      9  C   UNL     1      46.674 239.042 325.383  0.00  0.00    +0.000 C 
ATOM     10  C   UNL     1      46.419 238.961 322.912  0.00  0.00    +0.000 C 
ATOM     11  C   UNL     1      46.235 237.662 325.536  0.00  0.00    +0.000 C 
ATOM     12  C   UNL     1      47.721 239.426 326.342  0.00  0.00    +0.000 C 
ENDBRANCH   3   4
ENDBRANCH   2   3
BRANCH   2  13
ATOM     13  C   UNL     1      50.270 241.884 325.317  0.00  0.00    +0.000 C 
BRANCH  13  14
ATOM     14  C   UNL     1      51.559 242.599 325.349  0.00  0.00    +0.000 A 
ATOM     15  C   UNL     1      52.124 243.091 324.167  0.00  0.00    +0.000 A 
ATOM     16  C   UNL     1      53.359 243.737 324.177  0.00  0.00    +0.000 A 
ATOM     17  C   UNL     1      54.051 243.892 325.373  0.00  0.00    +0.000 A 
ATOM     18  C   UNL     1      53.509 243.401 326.556  0.00  0.00    +0.000 A 
ATOM     19  C   UNL     1      52.273 242.755 326.539  0.00  0.00    +0.000 A 
ENDBRANCH  13  14
BRANCH  13  20
ATOM     20  C   UNL     1      49.593 241.716 324.067  0.00  0.00    +0.000 C 
BRANCH  20  21
ATOM     21  O   UNL     1      48.964 241.562 322.907  0.00  0.00    +0.000 OA
ATOM     22  H   UNL     1      48.003 241.670 323.022  0.00  0.00    +0.000 HD
ENDBRANCH  20  21
ENDBRANCH  13  20
ENDBRANCH   2  13
TORSDOF 6
ENDMDL
MODEL 9
REMARK VINA RESULT:      -4.4      3.161      4.905
REMARK  Name = Hyoscyamine.pdbqt.pdb
REMARK  6 active torsions:
REMARK  status: ('A' for Active; 'I' for Inactive)
REMARK    1  A    between atoms: C_2  and  O_3
REMARK    2  A    between atoms: C_2  and  C_13
REMARK    3  A    between atoms: O_3  and  C_4
REMARK    4  A    between atoms: C_13  and  C_14
REMARK    5  A    between atoms: C_13  and  C_20
REMARK    6  A    between atoms: C_20  and  O_21
REMARK                            x       y       z     vdW  Elec       q    Type
REMARK                         _______ _______ _______ _____ _____    ______ ____
ROOT
ATOM      1  O   UNL     1      50.955 244.586 323.120  0.00  0.00    +0.000 OA
ATOM      2  C   UNL     1      51.751 243.659 323.208  0.00  0.00    +0.000 C 
ENDROOT
BRANCH   2   3
ATOM      3  O   UNL     1      51.575 242.492 323.894  0.00  0.00    +0.000 OA
BRANCH   3   4
ATOM      4  C   UNL     1      51.538 242.674 325.276  0.00  0.00    +0.000 C 
ATOM      5  C   UNL     1      50.564 243.564 325.885  0.00  0.00    +0.000 C 
ATOM      6  C   UNL     1      50.797 244.493 326.998  0.00  0.00    +0.000 C 
ATOM      7  N   UNL     1      52.176 245.097 326.699  0.00  0.00    +0.000 NA
ATOM      8  C   UNL     1      50.972 243.822 328.274  0.00  0.00    +0.000 C 
ATOM      9  C   UNL     1      53.007 243.861 327.080  0.00  0.00    +0.000 C 
ATOM     10  C   UNL     1      52.469 246.235 327.583  0.00  0.00    +0.000 C 
ATOM     11  C   UNL     1      52.441 243.401 328.341  0.00  0.00    +0.000 C 
ATOM     12  C   UNL     1      52.786 242.922 325.970  0.00  0.00    +0.000 C 
ENDBRANCH   3   4
ENDBRANCH   2   3
BRANCH   2  13
ATOM     13  C   UNL     1      53.105 243.691 322.580  0.00  0.00    +0.000 C 
BRANCH  13  14
ATOM     14  C   UNL     1      54.031 244.834 322.687  0.00  0.00    +0.000 A 
ATOM     15  C   UNL     1      55.085 244.976 321.778  0.00  0.00    +0.000 A 
ATOM     16  C   UNL     1      55.990 246.031 321.889  0.00  0.00    +0.000 A 
ATOM     17  C   UNL     1      55.855 246.956 322.919  0.00  0.00    +0.000 A 
ATOM     18  C   UNL     1      54.819 246.824 323.837  0.00  0.00    +0.000 A 
ATOM     19  C   UNL     1      53.918 245.766 323.721  0.00  0.00    +0.000 A 
ENDBRANCH  13  14
BRANCH  13  20
ATOM     20  C   UNL     1      53.529 242.508 321.897  0.00  0.00    +0.000 C 
BRANCH  20  21
ATOM     21  O   UNL     1      53.923 241.409 321.263  0.00  0.00    +0.000 OA
ATOM     22  H   UNL     1      53.556 241.385 320.361  0.00  0.00    +0.000 HD
ENDBRANCH  20  21
ENDBRANCH  13  20
ENDBRANCH   2  13
TORSDOF 6
ENDMDL
