MODEL 1
REMARK VINA RESULT:      -6.1      0.000      0.000
REMARK  Name = 
REMARK  6 active torsions:
REMARK  status: ('A' for Active; 'I' for Inactive)
REMARK    1  A    between atoms: O_3  and  C_16
REMARK    2  A    between atoms: O_4  and  C_17
REMARK    3  A    between atoms: O_4  and  C_22
REMARK    4  A    between atoms: O_5  and  C_19
REMARK    5  A    between atoms: O_5  and  C_23
REMARK    6  A    between atoms: O_6  and  C_21
REMARK                            x       y       z     vdW  Elec       q    Type
REMARK                         _______ _______ _______ _____ _____    ______ ____
ROOT
ATOM      1  O   UNL     1      49.542 240.672 323.522  0.00  0.00    +0.000 OA
ATOM      2  O   UNL     1      49.430 241.964 327.251  0.00  0.00    +0.000 OA
ATOM      3  C   UNL     1      48.065 241.428 325.279  0.00  0.00    +0.000 C 
ATOM      4  C   UNL     1      49.222 241.817 324.353  0.00  0.00    +0.000 C 
ATOM      5  C   UNL     1      48.231 239.948 325.278  0.00  0.00    +0.000 A 
ATOM      6  C   UNL     1      48.166 242.141 326.612  0.00  0.00    +0.000 C 
ATOM      7  C   UNL     1      50.462 242.284 325.083  0.00  0.00    +0.000 A 
ATOM      8  C   UNL     1      49.060 239.595 324.224  0.00  0.00    +0.000 A 
ATOM      9  C   UNL     1      50.510 242.318 326.486  0.00  0.00    +0.000 A 
ATOM     10  C   UNL     1      47.657 238.980 326.085  0.00  0.00    +0.000 A 
ATOM     11  C   UNL     1      51.588 242.684 324.339  0.00  0.00    +0.000 A 
ATOM     12  C   UNL     1      49.336 238.271 323.945  0.00  0.00    +0.000 A 
ATOM     13  C   UNL     1      51.693 242.702 327.134  0.00  0.00    +0.000 A 
ATOM     14  C   UNL     1      47.940 237.632 325.821  0.00  0.00    +0.000 A 
ATOM     15  C   UNL     1      48.777 237.271 324.751  0.00  0.00    +0.000 A 
ATOM     16  C   UNL     1      52.744 243.118 324.982  0.00  0.00    +0.000 A 
ATOM     17  C   UNL     1      52.783 243.128 326.367  0.00  0.00    +0.000 A 
ENDROOT
BRANCH  12  18
ATOM     18  O   UNL     1      50.148 237.940 322.897  0.00  0.00    +0.000 OA
ATOM     19  H   UNL     1      50.523 238.785 322.589  0.00  0.00    +0.000 HD
ENDBRANCH  12  18
BRANCH  13  20
ATOM     20  O   UNL     1      51.887 242.768 328.494  0.00  0.00    +0.000 OA
ATOM     21  C   UNL     1      51.321 243.920 329.115  0.00  0.00    +0.000 C 
ENDBRANCH  13  20
BRANCH  15  22
ATOM     22  O   UNL     1      49.117 235.989 324.395  0.00  0.00    +0.000 OA
ATOM     23  C   UNL     1      48.074 235.170 323.878  0.00  0.00    +0.000 C 
ENDBRANCH  15  22
BRANCH  17  24
ATOM     24  O   UNL     1      53.930 243.558 326.980  0.00  0.00    +0.000 OA
ATOM     25  H   UNL     1      54.551 243.740 326.249  0.00  0.00    +0.000 HD
ENDBRANCH  17  24
TORSDOF 4
ENDMDL
MODEL 2
REMARK VINA RESULT:      -5.3     21.395     24.355
REMARK  Name = 
REMARK  6 active torsions:
REMARK  status: ('A' for Active; 'I' for Inactive)
REMARK    1  A    between atoms: O_3  and  C_16
REMARK    2  A    between atoms: O_4  and  C_17
REMARK    3  A    between atoms: O_4  and  C_22
REMARK    4  A    between atoms: O_5  and  C_19
REMARK    5  A    between atoms: O_5  and  C_23
REMARK    6  A    between atoms: O_6  and  C_21
REMARK                            x       y       z     vdW  Elec       q    Type
REMARK                         _______ _______ _______ _____ _____    ______ ____
ROOT
ATOM      1  O   UNL     1      54.167 239.864 347.112  0.00  0.00    +0.000 OA
ATOM      2  O   UNL     1      54.129 240.403 351.023  0.00  0.00    +0.000 OA
ATOM      3  C   UNL     1      55.547 239.842 349.096  0.00  0.00    +0.000 C 
ATOM      4  C   UNL     1      54.353 239.196 348.385  0.00  0.00    +0.000 C 
ATOM      5  C   UNL     1      55.552 241.169 348.419  0.00  0.00    +0.000 A 
ATOM      6  C   UNL     1      55.364 239.828 350.600  0.00  0.00    +0.000 C 
ATOM      7  C   UNL     1      53.067 239.241 349.181  0.00  0.00    +0.000 A 
ATOM      8  C   UNL     1      54.769 241.087 347.276  0.00  0.00    +0.000 A 
ATOM      9  C   UNL     1      53.015 239.853 350.445  0.00  0.00    +0.000 A 
ATOM     10  C   UNL     1      56.232 242.334 348.730  0.00  0.00    +0.000 A 
ATOM     11  C   UNL     1      51.903 238.664 348.641  0.00  0.00    +0.000 A 
ATOM     12  C   UNL     1      54.648 242.159 346.416  0.00  0.00    +0.000 A 
ATOM     13  C   UNL     1      51.796 239.929 351.133  0.00  0.00    +0.000 A 
ATOM     14  C   UNL     1      56.106 243.435 347.871  0.00  0.00    +0.000 A 
ATOM     15  C   UNL     1      55.317 243.354 346.712  0.00  0.00    +0.000 A 
ATOM     16  C   UNL     1      50.704 238.690 349.348  0.00  0.00    +0.000 A 
ATOM     17  C   UNL     1      50.664 239.314 350.585  0.00  0.00    +0.000 A 
ENDROOT
BRANCH  12  18
ATOM     18  O   UNL     1      53.879 242.059 345.290  0.00  0.00    +0.000 OA
ATOM     19  H   UNL     1      54.214 242.753 344.692  0.00  0.00    +0.000 HD
ENDBRANCH  12  18
BRANCH  13  20
ATOM     20  O   UNL     1      51.595 240.508 352.364  0.00  0.00    +0.000 OA
ATOM     21  C   UNL     1      52.010 239.706 353.468  0.00  0.00    +0.000 C 
ENDBRANCH  13  20
BRANCH  15  22
ATOM     22  O   UNL     1      55.127 244.361 345.798  0.00  0.00    +0.000 OA
ATOM     23  C   UNL     1      54.414 245.508 346.248  0.00  0.00    +0.000 C 
ENDBRANCH  15  22
BRANCH  17  24
ATOM     24  O   UNL     1      49.475 239.330 351.264  0.00  0.00    +0.000 OA
ATOM     25  H   UNL     1      48.840 239.742 350.647  0.00  0.00    +0.000 HD
ENDBRANCH  17  24
TORSDOF 4
ENDMDL
MODEL 3
REMARK VINA RESULT:      -5.0     28.930     31.391
REMARK  Name = 
REMARK  6 active torsions:
REMARK  status: ('A' for Active; 'I' for Inactive)
REMARK    1  A    between atoms: O_3  and  C_16
REMARK    2  A    between atoms: O_4  and  C_17
REMARK    3  A    between atoms: O_4  and  C_22
REMARK    4  A    between atoms: O_5  and  C_19
REMARK    5  A    between atoms: O_5  and  C_23
REMARK    6  A    between atoms: O_6  and  C_21
REMARK                            x       y       z     vdW  Elec       q    Type
REMARK                         _______ _______ _______ _____ _____    ______ ____
ROOT
ATOM      1  O   UNL     1      65.158 230.328 348.496  0.00  0.00    +0.000 OA
ATOM      2  O   UNL     1      64.088 228.425 351.784  0.00  0.00    +0.000 OA
ATOM      3  C   UNL     1      65.537 228.331 349.803  0.00  0.00    +0.000 C 
ATOM      4  C   UNL     1      64.511 229.130 348.994  0.00  0.00    +0.000 C 
ATOM      5  C   UNL     1      66.483 229.426 350.157  0.00  0.00    +0.000 A 
ATOM      6  C   UNL     1      64.877 227.585 350.944  0.00  0.00    +0.000 C 
ATOM      7  C   UNL     1      63.270 229.505 349.776  0.00  0.00    +0.000 A 
ATOM      8  C   UNL     1      66.223 230.518 349.342  0.00  0.00    +0.000 A 
ATOM      9  C   UNL     1      63.129 229.151 351.128  0.00  0.00    +0.000 A 
ATOM     10  C   UNL     1      67.528 229.452 351.065  0.00  0.00    +0.000 A 
ATOM     11  C   UNL     1      62.246 230.227 349.136  0.00  0.00    +0.000 A 
ATOM     12  C   UNL     1      66.997 231.659 349.408  0.00  0.00    +0.000 A 
ATOM     13  C   UNL     1      61.994 229.561 351.841  0.00  0.00    +0.000 A 
ATOM     14  C   UNL     1      68.313 230.611 351.152  0.00  0.00    +0.000 A 
ATOM     15  C   UNL     1      68.054 231.717 350.326  0.00  0.00    +0.000 A 
ATOM     16  C   UNL     1      61.094 230.587 349.829  0.00  0.00    +0.000 A 
ATOM     17  C   UNL     1      60.976 230.247 351.168  0.00  0.00    +0.000 A 
ENDROOT
BRANCH  12  18
ATOM     18  O   UNL     1      66.733 232.723 348.591  0.00  0.00    +0.000 OA
ATOM     19  H   UNL     1      65.901 232.494 348.138  0.00  0.00    +0.000 HD
ENDBRANCH  12  18
BRANCH  13  20
ATOM     20  O   UNL     1      61.731 229.300 353.165  0.00  0.00    +0.000 OA
ATOM     21  C   UNL     1      61.218 227.994 353.418  0.00  0.00    +0.000 C 
ENDBRANCH  13  20
BRANCH  15  22
ATOM     22  O   UNL     1      68.759 232.896 350.318  0.00  0.00    +0.000 OA
ATOM     23  C   UNL     1      70.059 232.861 349.742  0.00  0.00    +0.000 C 
ENDBRANCH  15  22
BRANCH  17  24
ATOM     24  O   UNL     1      59.835 230.611 351.831  0.00  0.00    +0.000 OA
ATOM     25  H   UNL     1      59.156 230.692 351.135  0.00  0.00    +0.000 HD
ENDBRANCH  17  24
TORSDOF 4
ENDMDL
MODEL 4
REMARK VINA RESULT:      -5.0     19.023     20.616
REMARK  Name = 
REMARK  6 active torsions:
REMARK  status: ('A' for Active; 'I' for Inactive)
REMARK    1  A    between atoms: O_3  and  C_16
REMARK    2  A    between atoms: O_4  and  C_17
REMARK    3  A    between atoms: O_4  and  C_22
REMARK    4  A    between atoms: O_5  and  C_19
REMARK    5  A    between atoms: O_5  and  C_23
REMARK    6  A    between atoms: O_6  and  C_21
REMARK                            x       y       z     vdW  Elec       q    Type
REMARK                         _______ _______ _______ _____ _____    ______ ____
ROOT
ATOM      1  O   UNL     1      59.825 225.009 325.655  0.00  0.00    +0.000 OA
ATOM      2  O   UNL     1      60.590 222.270 328.394  0.00  0.00    +0.000 OA
ATOM      3  C   UNL     1      58.939 223.917 327.622  0.00  0.00    +0.000 C 
ATOM      4  C   UNL     1      60.059 224.807 327.072  0.00  0.00    +0.000 C 
ATOM      5  C   UNL     1      58.513 223.245 326.362  0.00  0.00    +0.000 A 
ATOM      6  C   UNL     1      59.439 223.036 328.748  0.00  0.00    +0.000 C 
ATOM      7  C   UNL     1      61.448 224.247 327.288  0.00  0.00    +0.000 A 
ATOM      8  C   UNL     1      59.032 223.950 325.286  0.00  0.00    +0.000 A 
ATOM      9  C   UNL     1      61.643 223.007 327.919  0.00  0.00    +0.000 A 
ATOM     10  C   UNL     1      57.689 222.151 326.162  0.00  0.00    +0.000 A 
ATOM     11  C   UNL     1      62.563 224.981 326.841  0.00  0.00    +0.000 A 
ATOM     12  C   UNL     1      58.741 223.586 323.987  0.00  0.00    +0.000 A 
ATOM     13  C   UNL     1      62.938 222.489 328.053  0.00  0.00    +0.000 A 
ATOM     14  C   UNL     1      57.397 221.761 324.847  0.00  0.00    +0.000 A 
ATOM     15  C   UNL     1      57.918 222.475 323.755  0.00  0.00    +0.000 A 
ATOM     16  C   UNL     1      63.853 224.493 327.024  0.00  0.00    +0.000 A 
ATOM     17  C   UNL     1      64.028 223.259 327.631  0.00  0.00    +0.000 A 
ENDROOT
BRANCH  12  18
ATOM     18  O   UNL     1      59.253 224.296 322.937  0.00  0.00    +0.000 OA
ATOM     19  H   UNL     1      59.390 225.197 323.284  0.00  0.00    +0.000 HD
ENDBRANCH  12  18
BRANCH  13  20
ATOM     20  O   UNL     1      63.274 221.288 328.633  0.00  0.00    +0.000 OA
ATOM     21  C   UNL     1      63.293 221.307 330.059  0.00  0.00    +0.000 C 
ENDBRANCH  13  20
BRANCH  15  22
ATOM     22  O   UNL     1      57.695 222.191 322.430  0.00  0.00    +0.000 OA
ATOM     23  C   UNL     1      56.428 222.565 321.900  0.00  0.00    +0.000 C 
ENDBRANCH  15  22
BRANCH  17  24
ATOM     24  O   UNL     1      65.306 222.796 327.801  0.00  0.00    +0.000 OA
ATOM     25  H   UNL     1      65.400 222.671 328.764  0.00  0.00    +0.000 HD
ENDBRANCH  17  24
TORSDOF 4
ENDMDL
MODEL 5
REMARK VINA RESULT:      -4.9     28.573     30.670
REMARK  Name = 
REMARK  6 active torsions:
REMARK  status: ('A' for Active; 'I' for Inactive)
REMARK    1  A    between atoms: O_3  and  C_16
REMARK    2  A    between atoms: O_4  and  C_17
REMARK    3  A    between atoms: O_4  and  C_22
REMARK    4  A    between atoms: O_5  and  C_19
REMARK    5  A    between atoms: O_5  and  C_23
REMARK    6  A    between atoms: O_6  and  C_21
REMARK                            x       y       z     vdW  Elec       q    Type
REMARK                         _______ _______ _______ _____ _____    ______ ____
ROOT
ATOM      1  O   UNL     1      64.760 228.738 350.623  0.00  0.00    +0.000 OA
ATOM      2  O   UNL     1      65.882 231.801 348.400  0.00  0.00    +0.000 OA
ATOM      3  C   UNL     1      64.814 229.589 348.362  0.00  0.00    +0.000 C 
ATOM      4  C   UNL     1      65.659 229.142 349.559  0.00  0.00    +0.000 C 
ATOM      5  C   UNL     1      63.546 229.932 349.065  0.00  0.00    +0.000 A 
ATOM      6  C   UNL     1      65.502 230.693 347.586  0.00  0.00    +0.000 C 
ATOM      7  C   UNL     1      66.611 230.203 350.068  0.00  0.00    +0.000 A 
ATOM      8  C   UNL     1      63.581 229.380 350.337  0.00  0.00    +0.000 A 
ATOM      9  C   UNL     1      66.663 231.477 349.478  0.00  0.00    +0.000 A 
ATOM     10  C   UNL     1      62.426 230.611 348.617  0.00  0.00    +0.000 A 
ATOM     11  C   UNL     1      67.454 229.906 351.155  0.00  0.00    +0.000 A 
ATOM     12  C   UNL     1      62.502 229.486 351.191  0.00  0.00    +0.000 A 
ATOM     13  C   UNL     1      67.515 232.456 350.008  0.00  0.00    +0.000 A 
ATOM     14  C   UNL     1      61.328 230.738 349.480  0.00  0.00    +0.000 A 
ATOM     15  C   UNL     1      61.359 230.177 350.767  0.00  0.00    +0.000 A 
ATOM     16  C   UNL     1      68.340 230.861 351.647  0.00  0.00    +0.000 A 
ATOM     17  C   UNL     1      68.366 232.119 351.067  0.00  0.00    +0.000 A 
ENDROOT
BRANCH  12  18
ATOM     18  O   UNL     1      62.548 228.929 352.438  0.00  0.00    +0.000 OA
ATOM     19  H   UNL     1      63.404 228.464 352.476  0.00  0.00    +0.000 HD
ENDBRANCH  12  18
BRANCH  13  20
ATOM     20  O   UNL     1      67.658 233.743 349.544  0.00  0.00    +0.000 OA
ATOM     21  C   UNL     1      66.678 234.658 350.032  0.00  0.00    +0.000 C 
ENDBRANCH  13  20
BRANCH  15  22
ATOM     22  O   UNL     1      60.344 230.232 351.692  0.00  0.00    +0.000 OA
ATOM     23  C   UNL     1      59.355 229.212 351.618  0.00  0.00    +0.000 C 
ENDBRANCH  15  22
BRANCH  17  24
ATOM     24  O   UNL     1      69.244 233.044 351.565  0.00  0.00    +0.000 OA
ATOM     25  H   UNL     1      70.003 233.025 350.951  0.00  0.00    +0.000 HD
ENDBRANCH  17  24
TORSDOF 4
ENDMDL
MODEL 6
REMARK VINA RESULT:      -4.9      1.449      6.359
REMARK  Name = 
REMARK  6 active torsions:
REMARK  status: ('A' for Active; 'I' for Inactive)
REMARK    1  A    between atoms: O_3  and  C_16
REMARK    2  A    between atoms: O_4  and  C_17
REMARK    3  A    between atoms: O_4  and  C_22
REMARK    4  A    between atoms: O_5  and  C_19
REMARK    5  A    between atoms: O_5  and  C_23
REMARK    6  A    between atoms: O_6  and  C_21
REMARK                            x       y       z     vdW  Elec       q    Type
REMARK                         _______ _______ _______ _____ _____    ______ ____
ROOT
ATOM      1  O   UNL     1      49.381 240.824 326.865  0.00  0.00    +0.000 OA
ATOM      2  O   UNL     1      48.233 240.717 323.089  0.00  0.00    +0.000 OA
ATOM      3  C   UNL     1      47.866 241.808 325.259  0.00  0.00    +0.000 C 
ATOM      4  C   UNL     1      48.263 240.523 325.992  0.00  0.00    +0.000 C 
ATOM      5  C   UNL     1      49.148 242.559 325.360  0.00  0.00    +0.000 A 
ATOM      6  C   UNL     1      47.340 241.509 323.871  0.00  0.00    +0.000 C 
ATOM      7  C   UNL     1      48.627 239.379 325.070  0.00  0.00    +0.000 A 
ATOM      8  C   UNL     1      49.943 241.954 326.323  0.00  0.00    +0.000 A 
ATOM      9  C   UNL     1      48.610 239.537 323.674  0.00  0.00    +0.000 A 
ATOM     10  C   UNL     1      49.566 243.713 324.718  0.00  0.00    +0.000 A 
ATOM     11  C   UNL     1      48.993 238.138 325.624  0.00  0.00    +0.000 A 
ATOM     12  C   UNL     1      51.169 242.483 326.672  0.00  0.00    +0.000 A 
ATOM     13  C   UNL     1      49.006 238.476 322.848  0.00  0.00    +0.000 A 
ATOM     14  C   UNL     1      50.817 244.252 325.053  0.00  0.00    +0.000 A 
ATOM     15  C   UNL     1      51.622 243.643 326.030  0.00  0.00    +0.000 A 
ATOM     16  C   UNL     1      49.334 237.068 324.803  0.00  0.00    +0.000 A 
ATOM     17  C   UNL     1      49.331 237.244 323.428  0.00  0.00    +0.000 A 
ENDROOT
BRANCH  12  18
ATOM     18  O   UNL     1      51.936 241.879 327.628  0.00  0.00    +0.000 OA
ATOM     19  H   UNL     1      52.645 241.424 327.136  0.00  0.00    +0.000 HD
ENDBRANCH  12  18
BRANCH  13  20
ATOM     20  O   UNL     1      49.052 238.493 321.473  0.00  0.00    +0.000 OA
ATOM     21  C   UNL     1      50.246 239.053 320.931  0.00  0.00    +0.000 C 
ENDBRANCH  13  20
BRANCH  15  22
ATOM     22  O   UNL     1      52.856 244.084 326.443  0.00  0.00    +0.000 OA
ATOM     23  C   UNL     1      53.894 244.084 325.470  0.00  0.00    +0.000 C 
ENDBRANCH  15  22
BRANCH  17  24
ATOM     24  O   UNL     1      49.670 236.178 322.637  0.00  0.00    +0.000 OA
ATOM     25  H   UNL     1      49.634 236.523 321.725  0.00  0.00    +0.000 HD
ENDBRANCH  17  24
TORSDOF 4
ENDMDL
MODEL 7
REMARK VINA RESULT:      -4.8      2.431      7.023
REMARK  Name = 
REMARK  6 active torsions:
REMARK  status: ('A' for Active; 'I' for Inactive)
REMARK    1  A    between atoms: O_3  and  C_16
REMARK    2  A    between atoms: O_4  and  C_17
REMARK    3  A    between atoms: O_4  and  C_22
REMARK    4  A    between atoms: O_5  and  C_19
REMARK    5  A    between atoms: O_5  and  C_23
REMARK    6  A    between atoms: O_6  and  C_21
REMARK                            x       y       z     vdW  Elec       q    Type
REMARK                         _______ _______ _______ _____ _____    ______ ____
ROOT
ATOM      1  O   UNL     1      48.188 237.831 325.980  0.00  0.00    +0.000 OA
ATOM      2  O   UNL     1      46.384 238.634 322.562  0.00  0.00    +0.000 OA
ATOM      3  C   UNL     1      46.251 238.894 325.001  0.00  0.00    +0.000 C 
ATOM      4  C   UNL     1      46.995 237.569 325.199  0.00  0.00    +0.000 C 
ATOM      5  C   UNL     1      47.380 239.845 325.195  0.00  0.00    +0.000 A 
ATOM      6  C   UNL     1      45.532 238.926 323.668  0.00  0.00    +0.000 C 
ATOM      7  C   UNL     1      47.369 236.876 323.906  0.00  0.00    +0.000 A 
ATOM      8  C   UNL     1      48.435 239.168 325.789  0.00  0.00    +0.000 A 
ATOM      9  C   UNL     1      47.062 237.448 322.660  0.00  0.00    +0.000 A 
ATOM     10  C   UNL     1      47.465 241.203 324.937  0.00  0.00    +0.000 A 
ATOM     11  C   UNL     1      48.042 235.642 323.957  0.00  0.00    +0.000 A 
ATOM     12  C   UNL     1      49.595 239.825 326.145  0.00  0.00    +0.000 A 
ATOM     13  C   UNL     1      47.472 236.810 321.481  0.00  0.00    +0.000 A 
ATOM     14  C   UNL     1      48.644 241.880 325.280  0.00  0.00    +0.000 A 
ATOM     15  C   UNL     1      49.712 241.197 325.886  0.00  0.00    +0.000 A 
ATOM     16  C   UNL     1      48.401 234.981 322.786  0.00  0.00    +0.000 A 
ATOM     17  C   UNL     1      48.108 235.566 321.564  0.00  0.00    +0.000 A 
ENDROOT
BRANCH  12  18
ATOM     18  O   UNL     1      50.621 239.145 326.739  0.00  0.00    +0.000 OA
ATOM     19  H   UNL     1      50.774 239.605 327.585  0.00  0.00    +0.000 HD
ENDBRANCH  12  18
BRANCH  13  20
ATOM     20  O   UNL     1      47.254 237.259 320.199  0.00  0.00    +0.000 OA
ATOM     21  C   UNL     1      48.216 238.205 319.734  0.00  0.00    +0.000 C 
ENDBRANCH  13  20
BRANCH  15  22
ATOM     22  O   UNL     1      50.906 241.755 326.272  0.00  0.00    +0.000 OA
ATOM     23  C   UNL     1      50.839 242.995 326.967  0.00  0.00    +0.000 C 
ENDBRANCH  15  22
BRANCH  17  24
ATOM     24  O   UNL     1      48.470 234.900 320.423  0.00  0.00    +0.000 OA
ATOM     25  H   UNL     1      49.428 234.745 320.518  0.00  0.00    +0.000 HD
ENDBRANCH  17  24
TORSDOF 4
ENDMDL
MODEL 8
REMARK VINA RESULT:      -4.7     22.023     24.966
REMARK  Name = 
REMARK  6 active torsions:
REMARK  status: ('A' for Active; 'I' for Inactive)
REMARK    1  A    between atoms: O_3  and  C_16
REMARK    2  A    between atoms: O_4  and  C_17
REMARK    3  A    between atoms: O_4  and  C_22
REMARK    4  A    between atoms: O_5  and  C_19
REMARK    5  A    between atoms: O_5  and  C_23
REMARK    6  A    between atoms: O_6  and  C_21
REMARK                            x       y       z     vdW  Elec       q    Type
REMARK                         _______ _______ _______ _____ _____    ______ ____
ROOT
ATOM      1  O   UNL     1      73.398 237.785 334.195  0.00  0.00    +0.000 OA
ATOM      2  O   UNL     1      70.327 235.513 335.194  0.00  0.00    +0.000 OA
ATOM      3  C   UNL     1      72.546 235.523 334.139  0.00  0.00    +0.000 C 
ATOM      4  C   UNL     1      72.330 236.963 333.660  0.00  0.00    +0.000 C 
ATOM      5  C   UNL     1      73.376 235.785 335.348  0.00  0.00    +0.000 A 
ATOM      6  C   UNL     1      71.226 234.808 334.340  0.00  0.00    +0.000 C 
ATOM      7  C   UNL     1      70.989 237.545 334.052  0.00  0.00    +0.000 A 
ATOM      8  C   UNL     1      73.853 237.086 335.287  0.00  0.00    +0.000 A 
ATOM      9  C   UNL     1      70.067 236.802 334.809  0.00  0.00    +0.000 A 
ATOM     10  C   UNL     1      73.742 234.943 336.384  0.00  0.00    +0.000 A 
ATOM     11  C   UNL     1      70.666 238.856 333.656  0.00  0.00    +0.000 A 
ATOM     12  C   UNL     1      74.708 237.579 336.251  0.00  0.00    +0.000 A 
ATOM     13  C   UNL     1      68.857 237.389 335.205  0.00  0.00    +0.000 A 
ATOM     14  C   UNL     1      74.599 235.436 337.379  0.00  0.00    +0.000 A 
ATOM     15  C   UNL     1      75.087 236.753 337.317  0.00  0.00    +0.000 A 
ATOM     16  C   UNL     1      69.441 239.420 334.002  0.00  0.00    +0.000 A 
ATOM     17  C   UNL     1      68.550 238.682 334.765  0.00  0.00    +0.000 A 
ENDROOT
BRANCH  12  18
ATOM     18  O   UNL     1      75.176 238.861 336.171  0.00  0.00    +0.000 OA
ATOM     19  H   UNL     1      74.483 239.354 335.694  0.00  0.00    +0.000 HD
ENDBRANCH  12  18
BRANCH  13  20
ATOM     20  O   UNL     1      67.873 236.789 335.955  0.00  0.00    +0.000 OA
ATOM     21  C   UNL     1      67.011 235.927 335.215  0.00  0.00    +0.000 C 
ENDBRANCH  13  20
BRANCH  15  22
ATOM     22  O   UNL     1      75.933 237.339 338.226  0.00  0.00    +0.000 OA
ATOM     23  C   UNL     1      77.268 236.847 338.268  0.00  0.00    +0.000 C 
ENDBRANCH  15  22
BRANCH  17  24
ATOM     24  O   UNL     1      67.351 239.255 335.095  0.00  0.00    +0.000 OA
ATOM     25  H   UNL     1      67.485 240.212 334.957  0.00  0.00    +0.000 HD
ENDBRANCH  17  24
TORSDOF 4
ENDMDL
MODEL 9
REMARK VINA RESULT:      -4.7     16.525     19.615
REMARK  Name = 
REMARK  6 active torsions:
REMARK  status: ('A' for Active; 'I' for Inactive)
REMARK    1  A    between atoms: O_3  and  C_16
REMARK    2  A    between atoms: O_4  and  C_17
REMARK    3  A    between atoms: O_4  and  C_22
REMARK    4  A    between atoms: O_5  and  C_19
REMARK    5  A    between atoms: O_5  and  C_23
REMARK    6  A    between atoms: O_6  and  C_21
REMARK                            x       y       z     vdW  Elec       q    Type
REMARK                         _______ _______ _______ _____ _____    ______ ____
ROOT
ATOM      1  O   UNL     1      66.892 240.423 332.634  0.00  0.00    +0.000 OA
ATOM      2  O   UNL     1      67.543 243.644 334.821  0.00  0.00    +0.000 OA
ATOM      3  C   UNL     1      67.784 241.200 334.741  0.00  0.00    +0.000 C 
ATOM      4  C   UNL     1      66.528 241.089 333.870  0.00  0.00    +0.000 C 
ATOM      5  C   UNL     1      68.830 241.105 333.685  0.00  0.00    +0.000 A 
ATOM      6  C   UNL     1      67.757 242.458 335.585  0.00  0.00    +0.000 C 
ATOM      7  C   UNL     1      65.875 242.419 333.563  0.00  0.00    +0.000 A 
ATOM      8  C   UNL     1      68.246 240.621 332.524  0.00  0.00    +0.000 A 
ATOM      9  C   UNL     1      66.421 243.624 334.037  0.00  0.00    +0.000 A 
ATOM     10  C   UNL     1      70.190 241.355 333.744  0.00  0.00    +0.000 A 
ATOM     11  C   UNL     1      64.703 242.446 332.784  0.00  0.00    +0.000 A 
ATOM     12  C   UNL     1      69.001 240.370 331.396  0.00  0.00    +0.000 A 
ATOM     13  C   UNL     1      65.824 244.844 333.688  0.00  0.00    +0.000 A 
ATOM     14  C   UNL     1      70.967 241.118 332.600  0.00  0.00    +0.000 A 
ATOM     15  C   UNL     1      70.378 240.624 331.424  0.00  0.00    +0.000 A 
ATOM     16  C   UNL     1      64.080 243.654 332.483  0.00  0.00    +0.000 A 
ATOM     17  C   UNL     1      64.640 244.836 332.942  0.00  0.00    +0.000 A 
ENDROOT
BRANCH  12  18
ATOM     18  O   UNL     1      68.411 239.885 330.262  0.00  0.00    +0.000 OA
ATOM     19  H   UNL     1      69.019 240.124 329.538  0.00  0.00    +0.000 HD
ENDBRANCH  12  18
BRANCH  13  20
ATOM     20  O   UNL     1      66.256 246.093 334.066  0.00  0.00    +0.000 OA
ATOM     21  C   UNL     1      65.887 246.469 335.392  0.00  0.00    +0.000 C 
ENDBRANCH  13  20
BRANCH  15  22
ATOM     22  O   UNL     1      71.038 240.349 330.250  0.00  0.00    +0.000 OA
ATOM     23  C   UNL     1      71.888 239.208 330.247  0.00  0.00    +0.000 C 
ENDBRANCH  15  22
BRANCH  17  24
ATOM     24  O   UNL     1      64.011 246.013 332.635  0.00  0.00    +0.000 OA
ATOM     25  H   UNL     1      64.008 246.519 333.470  0.00  0.00    +0.000 HD
ENDBRANCH  17  24
TORSDOF 4
ENDMDL
