MODEL 1
REMARK VINA RESULT:      -5.9      0.000      0.000
REMARK  Name = 
REMARK  9 active torsions:
REMARK  status: ('A' for Active; 'I' for Inactive)
REMARK    1  A    between atoms: O_1  and  N_7
REMARK    2  A    between atoms: O_1  and  C_20
REMARK    3  A    between atoms: O_2  and  C_14
REMARK    4  A    between atoms: O_3  and  C_18
REMARK    5  A    between atoms: O_4  and  C_25
REMARK    6  A    between atoms: C_8  and  C_10
REMARK    7  A    between atoms: C_17  and  C_18
REMARK    8  A    between atoms: C_17  and  C_20
REMARK    9  A    between atoms: C_18  and  C_25
REMARK                            x       y       z     vdW  Elec       q    Type
REMARK                         _______ _______ _______ _____ _____    ______ ____
ROOT
ATOM      1  N   UNL     1      50.766 245.331 329.571  0.00  0.00    +0.000 NA
ATOM      2  N   UNL     1      49.031 242.811 327.776  0.00  0.00    +0.000 NA
ATOM      3  C   UNL     1      50.691 244.456 328.600  0.00  0.00    +0.000 C 
ATOM      4  C   UNL     1      49.322 243.803 328.557  0.00  0.00    +0.000 C 
ATOM      5  C   UNL     1      48.568 244.488 329.597  0.00  0.00    +0.000 A 
ATOM      6  C   UNL     1      49.493 245.364 330.165  0.00  0.00    +0.000 A 
ATOM      7  C   UNL     1      47.263 244.392 330.049  0.00  0.00    +0.000 A 
ATOM      8  C   UNL     1      49.122 246.179 331.220  0.00  0.00    +0.000 A 
ATOM      9  C   UNL     1      46.886 245.215 331.113  0.00  0.00    +0.000 A 
ATOM     10  C   UNL     1      47.809 246.101 331.695  0.00  0.00    +0.000 A 
ENDROOT
BRANCH   3  12
ATOM     11  N   UNL     1      53.645 243.252 326.873  0.00  0.00    +0.000 N 
ATOM     12  C   UNL     1      51.829 244.203 327.747  0.00  0.00    +0.000 A 
ATOM     13  C   UNL     1      52.261 244.974 326.616  0.00  0.00    +0.000 A 
ATOM     14  C   UNL     1      53.404 244.362 326.100  0.00  0.00    +0.000 A 
ATOM     15  C   UNL     1      52.695 243.129 327.854  0.00  0.00    +0.000 A 
ATOM     16  C   UNL     1      51.795 246.149 325.987  0.00  0.00    +0.000 A 
ATOM     17  C   UNL     1      54.101 244.858 324.993  0.00  0.00    +0.000 A 
ATOM     18  C   UNL     1      52.478 246.660 324.878  0.00  0.00    +0.000 A 
ATOM     19  C   UNL     1      53.615 246.023 324.390  0.00  0.00    +0.000 A 
ATOM     20  H   UNL     1      54.405 242.609 326.709  0.00  0.00    +0.000 HD
BRANCH  15  21
ATOM     21  O   UNL     1      52.682 242.094 328.687  0.00  0.00    +0.000 OA
ATOM     22  H   UNL     1      53.334 241.429 328.415  0.00  0.00    +0.000 HD
ENDBRANCH  15  21
ENDBRANCH   3  12
BRANCH   2  23
ATOM     23  O   UNL     1      47.722 242.358 327.960  0.00  0.00    +0.000 OA
BRANCH  23  24
ATOM     24  C   UNL     1      47.419 241.428 326.925  0.00  0.00    +0.000 C 
BRANCH  24  25
ATOM     25  C   UNL     1      48.225 241.774 325.681  0.00  0.00    +0.000 C 
BRANCH  25  26
ATOM     26  C   UNL     1      49.291 240.740 325.319  0.00  0.00    +0.000 C 
BRANCH  26  27
ATOM     27  O   UNL     1      50.575 241.374 325.432  0.00  0.00    +0.000 OA
ATOM     28  H   UNL     1      50.467 242.014 326.164  0.00  0.00    +0.000 HD
ENDBRANCH  26  27
BRANCH  26  29
ATOM     29  C   UNL     1      49.289 239.500 326.219  0.00  0.00    +0.000 C 
BRANCH  29  30
ATOM     30  O   UNL     1      50.623 239.296 326.699  0.00  0.00    +0.000 OA
ATOM     31  H   UNL     1      50.841 240.069 327.250  0.00  0.00    +0.000 HD
ENDBRANCH  29  30
ENDBRANCH  26  29
ENDBRANCH  25  26
ENDBRANCH  24  25
ENDBRANCH  23  24
ENDBRANCH   2  23
TORSDOF 9
ENDMDL
MODEL 2
REMARK VINA RESULT:      -5.8     30.846     33.053
REMARK  Name = 
REMARK  9 active torsions:
REMARK  status: ('A' for Active; 'I' for Inactive)
REMARK    1  A    between atoms: O_1  and  N_7
REMARK    2  A    between atoms: O_1  and  C_20
REMARK    3  A    between atoms: O_2  and  C_14
REMARK    4  A    between atoms: O_3  and  C_18
REMARK    5  A    between atoms: O_4  and  C_25
REMARK    6  A    between atoms: C_8  and  C_10
REMARK    7  A    between atoms: C_17  and  C_18
REMARK    8  A    between atoms: C_17  and  C_20
REMARK    9  A    between atoms: C_18  and  C_25
REMARK                            x       y       z     vdW  Elec       q    Type
REMARK                         _______ _______ _______ _____ _____    ______ ____
ROOT
ATOM      1  N   UNL     1      72.234 223.592 336.860  0.00  0.00    +0.000 NA
ATOM      2  N   UNL     1      74.072 224.407 339.783  0.00  0.00    +0.000 NA
ATOM      3  C   UNL     1      73.261 224.146 337.456  0.00  0.00    +0.000 C 
ATOM      4  C   UNL     1      73.244 223.864 338.948  0.00  0.00    +0.000 C 
ATOM      5  C   UNL     1      72.098 222.985 339.131  0.00  0.00    +0.000 A 
ATOM      6  C   UNL     1      71.540 222.884 337.856  0.00  0.00    +0.000 A 
ATOM      7  C   UNL     1      71.553 222.347 340.231  0.00  0.00    +0.000 A 
ATOM      8  C   UNL     1      70.401 222.126 337.654  0.00  0.00    +0.000 A 
ATOM      9  C   UNL     1      70.403 221.580 340.029  0.00  0.00    +0.000 A 
ATOM     10  C   UNL     1      69.830 221.471 338.750  0.00  0.00    +0.000 A 
ENDROOT
BRANCH   3  12
ATOM     11  N   UNL     1      75.246 226.648 335.737  0.00  0.00    +0.000 N 
ATOM     12  C   UNL     1      74.217 224.923 336.703  0.00  0.00    +0.000 A 
ATOM     13  C   UNL     1      75.406 224.452 336.052  0.00  0.00    +0.000 A 
ATOM     14  C   UNL     1      76.019 225.549 335.447  0.00  0.00    +0.000 A 
ATOM     15  C   UNL     1      74.171 226.293 336.510  0.00  0.00    +0.000 A 
ATOM     16  C   UNL     1      76.014 223.186 335.905  0.00  0.00    +0.000 A 
ATOM     17  C   UNL     1      77.204 225.450 334.709  0.00  0.00    +0.000 A 
ATOM     18  C   UNL     1      77.199 223.067 335.172  0.00  0.00    +0.000 A 
ATOM     19  C   UNL     1      77.784 224.184 334.582  0.00  0.00    +0.000 A 
ATOM     20  H   UNL     1      75.470 227.585 335.438  0.00  0.00    +0.000 HD
BRANCH  15  21
ATOM     21  O   UNL     1      73.314 227.198 336.972  0.00  0.00    +0.000 OA
ATOM     22  H   UNL     1      73.178 227.082 337.926  0.00  0.00    +0.000 HD
ENDBRANCH  15  21
ENDBRANCH   3  12
BRANCH   2  23
ATOM     23  O   UNL     1      73.820 224.024 341.102  0.00  0.00    +0.000 OA
BRANCH  23  24
ATOM     24  C   UNL     1      74.987 223.388 341.617  0.00  0.00    +0.000 C 
BRANCH  24  25
ATOM     25  C   UNL     1      75.505 224.175 342.812  0.00  0.00    +0.000 C 
BRANCH  25  26
ATOM     26  C   UNL     1      76.686 225.091 342.493  0.00  0.00    +0.000 C 
BRANCH  26  27
ATOM     27  O   UNL     1      76.469 225.652 341.189  0.00  0.00    +0.000 OA
ATOM     28  H   UNL     1      76.271 224.880 340.622  0.00  0.00    +0.000 HD
ENDBRANCH  26  27
BRANCH  26  29
ATOM     29  C   UNL     1      76.867 226.245 343.485  0.00  0.00    +0.000 C 
BRANCH  29  30
ATOM     30  O   UNL     1      76.888 227.470 342.746  0.00  0.00    +0.000 OA
ATOM     31  H   UNL     1      77.789 227.831 342.833  0.00  0.00    +0.000 HD
ENDBRANCH  29  30
ENDBRANCH  26  29
ENDBRANCH  25  26
ENDBRANCH  24  25
ENDBRANCH  23  24
ENDBRANCH   2  23
TORSDOF 9
ENDMDL
MODEL 3
REMARK VINA RESULT:      -5.5     15.966     18.640
REMARK  Name = 
REMARK  9 active torsions:
REMARK  status: ('A' for Active; 'I' for Inactive)
REMARK    1  A    between atoms: O_1  and  N_7
REMARK    2  A    between atoms: O_1  and  C_20
REMARK    3  A    between atoms: O_2  and  C_14
REMARK    4  A    between atoms: O_3  and  C_18
REMARK    5  A    between atoms: O_4  and  C_25
REMARK    6  A    between atoms: C_8  and  C_10
REMARK    7  A    between atoms: C_17  and  C_18
REMARK    8  A    between atoms: C_17  and  C_20
REMARK    9  A    between atoms: C_18  and  C_25
REMARK                            x       y       z     vdW  Elec       q    Type
REMARK                         _______ _______ _______ _____ _____    ______ ____
ROOT
ATOM      1  N   UNL     1      66.279 241.457 335.262  0.00  0.00    +0.000 NA
ATOM      2  N   UNL     1      67.439 240.902 331.956  0.00  0.00    +0.000 NA
ATOM      3  C   UNL     1      66.262 241.716 333.979  0.00  0.00    +0.000 C 
ATOM      4  C   UNL     1      67.176 240.773 333.218  0.00  0.00    +0.000 C 
ATOM      5  C   UNL     1      67.671 239.859 334.238  0.00  0.00    +0.000 A 
ATOM      6  C   UNL     1      67.113 240.338 335.423  0.00  0.00    +0.000 A 
ATOM      7  C   UNL     1      68.510 238.759 334.204  0.00  0.00    +0.000 A 
ATOM      8  C   UNL     1      67.389 239.710 336.625  0.00  0.00    +0.000 A 
ATOM      9  C   UNL     1      68.789 238.123 335.416  0.00  0.00    +0.000 A 
ATOM     10  C   UNL     1      68.234 238.595 336.618  0.00  0.00    +0.000 A 
ENDROOT
BRANCH   3  12
ATOM     11  N   UNL     1      63.851 243.908 332.385  0.00  0.00    +0.000 N 
ATOM     12  C   UNL     1      65.458 242.797 333.457  0.00  0.00    +0.000 A 
ATOM     13  C   UNL     1      65.649 244.205 333.660  0.00  0.00    +0.000 A 
ATOM     14  C   UNL     1      64.638 244.872 332.968  0.00  0.00    +0.000 A 
ATOM     15  C   UNL     1      64.317 242.655 332.687  0.00  0.00    +0.000 A 
ATOM     16  C   UNL     1      66.600 244.980 334.359  0.00  0.00    +0.000 A 
ATOM     17  C   UNL     1      64.526 246.267 332.940  0.00  0.00    +0.000 A 
ATOM     18  C   UNL     1      66.504 246.376 334.342  0.00  0.00    +0.000 A 
ATOM     19  C   UNL     1      65.481 247.008 333.641  0.00  0.00    +0.000 A 
ATOM     20  H   UNL     1      63.029 244.112 331.836  0.00  0.00    +0.000 HD
BRANCH  15  21
ATOM     21  O   UNL     1      63.680 241.559 332.288  0.00  0.00    +0.000 OA
ATOM     22  H   UNL     1      64.304 240.825 332.171  0.00  0.00    +0.000 HD
ENDBRANCH  15  21
ENDBRANCH   3  12
BRANCH   2  23
ATOM     23  O   UNL     1      68.344 239.938 331.504  0.00  0.00    +0.000 OA
BRANCH  23  24
ATOM     24  C   UNL     1      68.798 240.322 330.209  0.00  0.00    +0.000 C 
BRANCH  24  25
ATOM     25  C   UNL     1      70.065 241.154 330.343  0.00  0.00    +0.000 C 
BRANCH  25  26
ATOM     26  C   UNL     1      71.261 240.386 330.908  0.00  0.00    +0.000 C 
BRANCH  26  27
ATOM     27  O   UNL     1      71.039 240.200 332.314  0.00  0.00    +0.000 OA
ATOM     28  H   UNL     1      71.913 240.361 332.722  0.00  0.00    +0.000 HD
ENDBRANCH  26  27
BRANCH  26  29
ATOM     29  C   UNL     1      71.476 239.009 330.271  0.00  0.00    +0.000 C 
BRANCH  29  30
ATOM     30  O   UNL     1      71.300 238.016 331.286  0.00  0.00    +0.000 OA
ATOM     31  H   UNL     1      70.385 237.690 331.200  0.00  0.00    +0.000 HD
ENDBRANCH  29  30
ENDBRANCH  26  29
ENDBRANCH  25  26
ENDBRANCH  24  25
ENDBRANCH  23  24
ENDBRANCH   2  23
TORSDOF 9
ENDMDL
MODEL 4
REMARK VINA RESULT:      -5.5     29.908     31.791
REMARK  Name = 
REMARK  9 active torsions:
REMARK  status: ('A' for Active; 'I' for Inactive)
REMARK    1  A    between atoms: O_1  and  N_7
REMARK    2  A    between atoms: O_1  and  C_20
REMARK    3  A    between atoms: O_2  and  C_14
REMARK    4  A    between atoms: O_3  and  C_18
REMARK    5  A    between atoms: O_4  and  C_25
REMARK    6  A    between atoms: C_8  and  C_10
REMARK    7  A    between atoms: C_17  and  C_18
REMARK    8  A    between atoms: C_17  and  C_20
REMARK    9  A    between atoms: C_18  and  C_25
REMARK                            x       y       z     vdW  Elec       q    Type
REMARK                         _______ _______ _______ _____ _____    ______ ____
ROOT
ATOM      1  N   UNL     1      67.845 220.825 336.980  0.00  0.00    +0.000 NA
ATOM      2  N   UNL     1      70.991 220.774 335.342  0.00  0.00    +0.000 NA
ATOM      3  C   UNL     1      69.122 221.110 336.935  0.00  0.00    +0.000 C 
ATOM      4  C   UNL     1      69.722 220.720 335.596  0.00  0.00    +0.000 C 
ATOM      5  C   UNL     1      68.584 220.240 334.823  0.00  0.00    +0.000 A 
ATOM      6  C   UNL     1      67.513 220.315 335.714  0.00  0.00    +0.000 A 
ATOM      7  C   UNL     1      68.441 219.771 333.529  0.00  0.00    +0.000 A 
ATOM      8  C   UNL     1      66.250 219.912 335.318  0.00  0.00    +0.000 A 
ATOM      9  C   UNL     1      67.167 219.364 333.127  0.00  0.00    +0.000 A 
ATOM     10  C   UNL     1      66.079 219.433 334.015  0.00  0.00    +0.000 A 
ENDROOT
BRANCH   3  12
ATOM     11  N   UNL     1      70.838 223.166 339.381  0.00  0.00    +0.000 N 
ATOM     12  C   UNL     1      69.786 221.699 338.074  0.00  0.00    +0.000 A 
ATOM     13  C   UNL     1      70.036 221.091 339.350  0.00  0.00    +0.000 A 
ATOM     14  C   UNL     1      70.705 222.027 340.139  0.00  0.00    +0.000 A 
ATOM     15  C   UNL     1      70.271 222.994 338.145  0.00  0.00    +0.000 A 
ATOM     16  C   UNL     1      69.769 219.822 339.907  0.00  0.00    +0.000 A 
ATOM     17  C   UNL     1      71.116 221.764 341.451  0.00  0.00    +0.000 A 
ATOM     18  C   UNL     1      70.172 219.540 341.216  0.00  0.00    +0.000 A 
ATOM     19  C   UNL     1      70.837 220.498 341.976  0.00  0.00    +0.000 A 
ATOM     20  H   UNL     1      71.270 224.014 339.715  0.00  0.00    +0.000 HD
BRANCH  15  21
ATOM     21  O   UNL     1      70.219 223.981 337.258  0.00  0.00    +0.000 OA
ATOM     22  H   UNL     1      69.694 224.721 337.602  0.00  0.00    +0.000 HD
ENDBRANCH  15  21
ENDBRANCH   3  12
BRANCH   2  23
ATOM     23  O   UNL     1      71.293 220.316 334.057  0.00  0.00    +0.000 OA
BRANCH  23  24
ATOM     24  C   UNL     1      72.659 220.615 333.784  0.00  0.00    +0.000 C 
BRANCH  24  25
ATOM     25  C   UNL     1      72.760 222.005 333.173  0.00  0.00    +0.000 C 
BRANCH  25  26
ATOM     26  C   UNL     1      73.879 222.867 333.759  0.00  0.00    +0.000 C 
BRANCH  26  27
ATOM     27  O   UNL     1      73.655 224.222 333.343  0.00  0.00    +0.000 OA
ATOM     28  H   UNL     1      74.445 224.707 333.655  0.00  0.00    +0.000 HD
ENDBRANCH  26  27
BRANCH  26  29
ATOM     29  C   UNL     1      73.949 222.841 335.290  0.00  0.00    +0.000 C 
BRANCH  29  30
ATOM     30  O   UNL     1      72.721 223.369 335.801  0.00  0.00    +0.000 OA
ATOM     31  H   UNL     1      72.121 223.465 335.039  0.00  0.00    +0.000 HD
ENDBRANCH  29  30
ENDBRANCH  26  29
ENDBRANCH  25  26
ENDBRANCH  24  25
ENDBRANCH  23  24
ENDBRANCH   2  23
TORSDOF 9
ENDMDL
MODEL 5
REMARK VINA RESULT:      -5.4     30.930     33.347
REMARK  Name = 
REMARK  9 active torsions:
REMARK  status: ('A' for Active; 'I' for Inactive)
REMARK    1  A    between atoms: O_1  and  N_7
REMARK    2  A    between atoms: O_1  and  C_20
REMARK    3  A    between atoms: O_2  and  C_14
REMARK    4  A    between atoms: O_3  and  C_18
REMARK    5  A    between atoms: O_4  and  C_25
REMARK    6  A    between atoms: C_8  and  C_10
REMARK    7  A    between atoms: C_17  and  C_18
REMARK    8  A    between atoms: C_17  and  C_20
REMARK    9  A    between atoms: C_18  and  C_25
REMARK                            x       y       z     vdW  Elec       q    Type
REMARK                         _______ _______ _______ _____ _____    ______ ____
ROOT
ATOM      1  N   UNL     1      70.575 220.627 341.756  0.00  0.00    +0.000 NA
ATOM      2  N   UNL     1      72.948 222.472 339.873  0.00  0.00    +0.000 NA
ATOM      3  C   UNL     1      70.951 221.232 340.657  0.00  0.00    +0.000 C 
ATOM      4  C   UNL     1      72.381 221.728 340.769  0.00  0.00    +0.000 C 
ATOM      5  C   UNL     1      72.824 221.248 342.071  0.00  0.00    +0.000 A 
ATOM      6  C   UNL     1      71.696 220.623 342.603  0.00  0.00    +0.000 A 
ATOM      7  C   UNL     1      74.021 221.331 342.760  0.00  0.00    +0.000 A 
ATOM      8  C   UNL     1      71.746 220.055 343.864  0.00  0.00    +0.000 A 
ATOM      9  C   UNL     1      74.073 220.758 344.033  0.00  0.00    +0.000 A 
ATOM     10  C   UNL     1      72.944 220.126 344.582  0.00  0.00    +0.000 A 
ENDROOT
BRANCH   3  12
ATOM     11  N   UNL     1      68.898 222.258 337.849  0.00  0.00    +0.000 N 
ATOM     12  C   UNL     1      70.040 221.374 339.546  0.00  0.00    +0.000 A 
ATOM     13  C   UNL     1      69.197 220.363 338.974  0.00  0.00    +0.000 A 
ATOM     14  C   UNL     1      68.488 220.949 337.925  0.00  0.00    +0.000 A 
ATOM     15  C   UNL     1      69.847 222.525 338.802  0.00  0.00    +0.000 A 
ATOM     16  C   UNL     1      68.957 219.001 339.259  0.00  0.00    +0.000 A 
ATOM     17  C   UNL     1      67.558 220.249 337.148  0.00  0.00    +0.000 A 
ATOM     18  C   UNL     1      68.031 218.284 338.493  0.00  0.00    +0.000 A 
ATOM     19  C   UNL     1      67.342 218.902 337.453  0.00  0.00    +0.000 A 
ATOM     20  H   UNL     1      68.559 222.913 337.160  0.00  0.00    +0.000 HD
BRANCH  15  21
ATOM     21  O   UNL     1      70.443 223.710 338.882  0.00  0.00    +0.000 OA
ATOM     22  H   UNL     1      71.338 223.617 339.246  0.00  0.00    +0.000 HD
ENDBRANCH  15  21
ENDBRANCH   3  12
BRANCH   2  23
ATOM     23  O   UNL     1      74.248 222.834 340.231  0.00  0.00    +0.000 OA
BRANCH  23  24
ATOM     24  C   UNL     1      74.301 224.253 340.357  0.00  0.00    +0.000 C 
BRANCH  24  25
ATOM     25  C   UNL     1      75.202 224.823 339.271  0.00  0.00    +0.000 C 
BRANCH  25  26
ATOM     26  C   UNL     1      74.506 225.031 337.926  0.00  0.00    +0.000 C 
BRANCH  26  27
ATOM     27  O   UNL     1      73.131 224.644 338.078  0.00  0.00    +0.000 OA
ATOM     28  H   UNL     1      72.786 224.608 337.163  0.00  0.00    +0.000 HD
ENDBRANCH  26  27
BRANCH  26  29
ATOM     29  C   UNL     1      74.543 226.477 337.421  0.00  0.00    +0.000 C 
BRANCH  29  30
ATOM     30  O   UNL     1      73.958 227.315 338.423  0.00  0.00    +0.000 OA
ATOM     31  H   UNL     1      73.195 226.826 338.782  0.00  0.00    +0.000 HD
ENDBRANCH  29  30
ENDBRANCH  26  29
ENDBRANCH  25  26
ENDBRANCH  24  25
ENDBRANCH  23  24
ENDBRANCH   2  23
TORSDOF 9
ENDMDL
MODEL 6
REMARK VINA RESULT:      -5.2      3.249      7.438
REMARK  Name = 
REMARK  9 active torsions:
REMARK  status: ('A' for Active; 'I' for Inactive)
REMARK    1  A    between atoms: O_1  and  N_7
REMARK    2  A    between atoms: O_1  and  C_20
REMARK    3  A    between atoms: O_2  and  C_14
REMARK    4  A    between atoms: O_3  and  C_18
REMARK    5  A    between atoms: O_4  and  C_25
REMARK    6  A    between atoms: C_8  and  C_10
REMARK    7  A    between atoms: C_17  and  C_18
REMARK    8  A    between atoms: C_17  and  C_20
REMARK    9  A    between atoms: C_18  and  C_25
REMARK                            x       y       z     vdW  Elec       q    Type
REMARK                         _______ _______ _______ _____ _____    ______ ____
ROOT
ATOM      1  N   UNL     1      52.161 243.968 327.943  0.00  0.00    +0.000 NA
ATOM      2  N   UNL     1      51.411 247.433 327.827  0.00  0.00    +0.000 NA
ATOM      3  C   UNL     1      51.513 245.019 328.379  0.00  0.00    +0.000 C 
ATOM      4  C   UNL     1      51.819 246.240 327.530  0.00  0.00    +0.000 C 
ATOM      5  C   UNL     1      52.680 245.731 326.471  0.00  0.00    +0.000 A 
ATOM      6  C   UNL     1      52.853 244.384 326.793  0.00  0.00    +0.000 A 
ATOM      7  C   UNL     1      53.278 246.313 325.368  0.00  0.00    +0.000 A 
ATOM      8  C   UNL     1      53.646 243.576 325.997  0.00  0.00    +0.000 A 
ATOM      9  C   UNL     1      54.078 245.498 324.563  0.00  0.00    +0.000 A 
ATOM     10  C   UNL     1      54.262 244.140 324.875  0.00  0.00    +0.000 A 
ENDROOT
BRANCH   3  12
ATOM     11  N   UNL     1      49.037 244.281 330.924  0.00  0.00    +0.000 N 
ATOM     12  C   UNL     1      50.659 244.928 329.539  0.00  0.00    +0.000 A 
ATOM     13  C   UNL     1      50.756 245.683 330.757  0.00  0.00    +0.000 A 
ATOM     14  C   UNL     1      49.722 245.265 331.595  0.00  0.00    +0.000 A 
ATOM     15  C   UNL     1      49.600 244.050 329.695  0.00  0.00    +0.000 A 
ATOM     16  C   UNL     1      51.620 246.697 331.222  0.00  0.00    +0.000 A 
ATOM     17  C   UNL     1      49.509 245.803 332.869  0.00  0.00    +0.000 A 
ATOM     18  C   UNL     1      51.423 247.248 332.493  0.00  0.00    +0.000 A 
ATOM     19  C   UNL     1      50.381 246.806 333.303  0.00  0.00    +0.000 A 
ATOM     20  H   UNL     1      48.247 243.786 331.309  0.00  0.00    +0.000 HD
BRANCH  15  21
ATOM     21  O   UNL     1      49.149 243.096 328.889  0.00  0.00    +0.000 OA
ATOM     22  H   UNL     1      48.866 243.472 328.040  0.00  0.00    +0.000 HD
ENDBRANCH  15  21
ENDBRANCH   3  12
BRANCH   2  23
ATOM     23  O   UNL     1      51.864 248.389 326.916  0.00  0.00    +0.000 OA
BRANCH  23  24
ATOM     24  C   UNL     1      52.351 249.512 327.647  0.00  0.00    +0.000 C 
BRANCH  24  25
ATOM     25  C   UNL     1      53.870 249.550 327.562  0.00  0.00    +0.000 C 
BRANCH  25  26
ATOM     26  C   UNL     1      54.579 249.045 328.818  0.00  0.00    +0.000 C 
BRANCH  26  27
ATOM     27  O   UNL     1      54.192 247.678 329.022  0.00  0.00    +0.000 OA
ATOM     28  H   UNL     1      53.410 247.731 329.608  0.00  0.00    +0.000 HD
ENDBRANCH  26  27
BRANCH  26  29
ATOM     29  C   UNL     1      56.108 249.103 328.737  0.00  0.00    +0.000 C 
BRANCH  29  30
ATOM     30  O   UNL     1      56.639 248.590 329.963  0.00  0.00    +0.000 OA
ATOM     31  H   UNL     1      56.496 247.627 329.947  0.00  0.00    +0.000 HD
ENDBRANCH  29  30
ENDBRANCH  26  29
ENDBRANCH  25  26
ENDBRANCH  24  25
ENDBRANCH  23  24
ENDBRANCH   2  23
TORSDOF 9
ENDMDL
MODEL 7
REMARK VINA RESULT:      -5.2     29.299     31.522
REMARK  Name = 
REMARK  9 active torsions:
REMARK  status: ('A' for Active; 'I' for Inactive)
REMARK    1  A    between atoms: O_1  and  N_7
REMARK    2  A    between atoms: O_1  and  C_20
REMARK    3  A    between atoms: O_2  and  C_14
REMARK    4  A    between atoms: O_3  and  C_18
REMARK    5  A    between atoms: O_4  and  C_25
REMARK    6  A    between atoms: C_8  and  C_10
REMARK    7  A    between atoms: C_17  and  C_18
REMARK    8  A    between atoms: C_17  and  C_20
REMARK    9  A    between atoms: C_18  and  C_25
REMARK                            x       y       z     vdW  Elec       q    Type
REMARK                         _______ _______ _______ _____ _____    ______ ____
ROOT
ATOM      1  N   UNL     1      67.493 219.011 337.253  0.00  0.00    +0.000 NA
ATOM      2  N   UNL     1      69.368 221.903 336.414  0.00  0.00    +0.000 NA
ATOM      3  C   UNL     1      67.892 219.913 336.391  0.00  0.00    +0.000 C 
ATOM      4  C   UNL     1      68.915 220.847 337.011  0.00  0.00    +0.000 C 
ATOM      5  C   UNL     1      69.125 220.307 338.348  0.00  0.00    +0.000 A 
ATOM      6  C   UNL     1      68.237 219.234 338.424  0.00  0.00    +0.000 A 
ATOM      7  C   UNL     1      69.945 220.668 339.402  0.00  0.00    +0.000 A 
ATOM      8  C   UNL     1      68.151 218.485 339.584  0.00  0.00    +0.000 A 
ATOM      9  C   UNL     1      69.860 219.912 340.574  0.00  0.00    +0.000 A 
ATOM     10  C   UNL     1      68.969 218.829 340.665  0.00  0.00    +0.000 A 
ENDROOT
BRANCH   3  12
ATOM     11  N   UNL     1      65.909 220.061 333.358  0.00  0.00    +0.000 N 
ATOM     12  C   UNL     1      67.352 219.941 335.052  0.00  0.00    +0.000 A 
ATOM     13  C   UNL     1      68.076 219.854 333.816  0.00  0.00    +0.000 A 
ATOM     14  C   UNL     1      67.146 219.920 332.778  0.00  0.00    +0.000 A 
ATOM     15  C   UNL     1      66.016 220.098 334.724  0.00  0.00    +0.000 A 
ATOM     16  C   UNL     1      69.439 219.711 333.480  0.00  0.00    +0.000 A 
ATOM     17  C   UNL     1      67.507 219.852 331.427  0.00  0.00    +0.000 A 
ATOM     18  C   UNL     1      69.819 219.642 332.135  0.00  0.00    +0.000 A 
ATOM     19  C   UNL     1      68.864 219.712 331.124  0.00  0.00    +0.000 A 
ATOM     20  H   UNL     1      65.052 220.154 332.834  0.00  0.00    +0.000 HD
BRANCH  15  21
ATOM     21  O   UNL     1      64.957 220.295 335.502  0.00  0.00    +0.000 OA
ATOM     22  H   UNL     1      64.137 220.205 334.991  0.00  0.00    +0.000 HD
ENDBRANCH  15  21
ENDBRANCH   3  12
BRANCH   2  23
ATOM     23  O   UNL     1      70.261 222.621 337.213  0.00  0.00    +0.000 OA
BRANCH  23  24
ATOM     24  C   UNL     1      71.550 222.563 336.609  0.00  0.00    +0.000 C 
BRANCH  24  25
ATOM     25  C   UNL     1      72.513 223.447 337.388  0.00  0.00    +0.000 C 
BRANCH  25  26
ATOM     26  C   UNL     1      73.176 222.753 338.578  0.00  0.00    +0.000 C 
BRANCH  26  27
ATOM     27  O   UNL     1      74.593 222.961 338.476  0.00  0.00    +0.000 OA
ATOM     28  H   UNL     1      74.782 222.884 337.519  0.00  0.00    +0.000 HD
ENDBRANCH  26  27
BRANCH  26  29
ATOM     29  C   UNL     1      72.713 223.275 339.942  0.00  0.00    +0.000 C 
BRANCH  29  30
ATOM     30  O   UNL     1      71.343 223.676 339.824  0.00  0.00    +0.000 OA
ATOM     31  H   UNL     1      70.925 223.054 339.202  0.00  0.00    +0.000 HD
ENDBRANCH  29  30
ENDBRANCH  26  29
ENDBRANCH  25  26
ENDBRANCH  24  25
ENDBRANCH  23  24
ENDBRANCH   2  23
TORSDOF 9
ENDMDL
MODEL 8
REMARK VINA RESULT:      -5.2      2.790      5.877
REMARK  Name = 
REMARK  9 active torsions:
REMARK  status: ('A' for Active; 'I' for Inactive)
REMARK    1  A    between atoms: O_1  and  N_7
REMARK    2  A    between atoms: O_1  and  C_20
REMARK    3  A    between atoms: O_2  and  C_14
REMARK    4  A    between atoms: O_3  and  C_18
REMARK    5  A    between atoms: O_4  and  C_25
REMARK    6  A    between atoms: C_8  and  C_10
REMARK    7  A    between atoms: C_17  and  C_18
REMARK    8  A    between atoms: C_17  and  C_20
REMARK    9  A    between atoms: C_18  and  C_25
REMARK                            x       y       z     vdW  Elec       q    Type
REMARK                         _______ _______ _______ _____ _____    ______ ____
ROOT
ATOM      1  N   UNL     1      52.174 243.701 323.236  0.00  0.00    +0.000 NA
ATOM      2  N   UNL     1      53.421 244.449 326.472  0.00  0.00    +0.000 NA
ATOM      3  C   UNL     1      53.046 244.272 324.029  0.00  0.00    +0.000 C 
ATOM      4  C   UNL     1      52.785 243.912 325.480  0.00  0.00    +0.000 C 
ATOM      5  C   UNL     1      51.676 242.969 325.418  0.00  0.00    +0.000 A 
ATOM      6  C   UNL     1      51.357 242.909 324.061  0.00  0.00    +0.000 A 
ATOM      7  C   UNL     1      50.984 242.248 326.375  0.00  0.00    +0.000 A 
ATOM      8  C   UNL     1      50.316 242.108 323.627  0.00  0.00    +0.000 A 
ATOM      9  C   UNL     1      49.933 241.438 325.939  0.00  0.00    +0.000 A 
ATOM     10  C   UNL     1      49.600 241.369 324.575  0.00  0.00    +0.000 A 
ENDROOT
BRANCH   3  12
ATOM     11  N   UNL     1      55.722 245.912 322.210  0.00  0.00    +0.000 N 
ATOM     12  C   UNL     1      54.074 245.133 323.493  0.00  0.00    +0.000 A 
ATOM     13  C   UNL     1      54.447 246.440 323.955  0.00  0.00    +0.000 A 
ATOM     14  C   UNL     1      55.486 246.894 323.142  0.00  0.00    +0.000 A 
ATOM     15  C   UNL     1      54.867 244.856 322.392  0.00  0.00    +0.000 A 
ATOM     16  C   UNL     1      54.007 247.279 325.002  0.00  0.00    +0.000 A 
ATOM     17  C   UNL     1      56.105 248.137 323.318  0.00  0.00    +0.000 A 
ATOM     18  C   UNL     1      54.613 248.525 325.194  0.00  0.00    +0.000 A 
ATOM     19  C   UNL     1      55.648 248.946 324.363  0.00  0.00    +0.000 A 
ATOM     20  H   UNL     1      56.414 245.987 321.480  0.00  0.00    +0.000 HD
BRANCH  15  21
ATOM     21  O   UNL     1      54.861 243.813 321.570  0.00  0.00    +0.000 OA
ATOM     22  H   UNL     1      54.536 244.072 320.693  0.00  0.00    +0.000 HD
ENDBRANCH  15  21
ENDBRANCH   3  12
BRANCH   2  23
ATOM     23  O   UNL     1      52.964 243.985 327.707  0.00  0.00    +0.000 OA
BRANCH  23  24
ATOM     24  C   UNL     1      52.391 245.081 328.415  0.00  0.00    +0.000 C 
BRANCH  24  25
ATOM     25  C   UNL     1      50.874 244.996 328.338  0.00  0.00    +0.000 C 
BRANCH  25  26
ATOM     26  C   UNL     1      50.194 244.737 329.683  0.00  0.00    +0.000 C 
BRANCH  26  27
ATOM     27  O   UNL     1      50.440 243.370 330.044  0.00  0.00    +0.000 OA
ATOM     28  H   UNL     1      50.366 243.359 331.020  0.00  0.00    +0.000 HD
ENDBRANCH  26  27
BRANCH  26  29
ATOM     29  C   UNL     1      50.698 245.631 330.820  0.00  0.00    +0.000 C 
BRANCH  29  30
ATOM     30  O   UNL     1      51.272 244.791 331.827  0.00  0.00    +0.000 OA
ATOM     31  H   UNL     1      51.403 243.917 331.417  0.00  0.00    +0.000 HD
ENDBRANCH  29  30
ENDBRANCH  26  29
ENDBRANCH  25  26
ENDBRANCH  24  25
ENDBRANCH  23  24
ENDBRANCH   2  23
TORSDOF 9
ENDMDL
MODEL 9
REMARK VINA RESULT:      -5.2     30.452     32.130
REMARK  Name = 
REMARK  9 active torsions:
REMARK  status: ('A' for Active; 'I' for Inactive)
REMARK    1  A    between atoms: O_1  and  N_7
REMARK    2  A    between atoms: O_1  and  C_20
REMARK    3  A    between atoms: O_2  and  C_14
REMARK    4  A    between atoms: O_3  and  C_18
REMARK    5  A    between atoms: O_4  and  C_25
REMARK    6  A    between atoms: C_8  and  C_10
REMARK    7  A    between atoms: C_17  and  C_18
REMARK    8  A    between atoms: C_17  and  C_20
REMARK    9  A    between atoms: C_18  and  C_25
REMARK                            x       y       z     vdW  Elec       q    Type
REMARK                         _______ _______ _______ _____ _____    ______ ____
ROOT
ATOM      1  N   UNL     1      68.844 219.490 339.140  0.00  0.00    +0.000 NA
ATOM      2  N   UNL     1      70.586 222.325 337.911  0.00  0.00    +0.000 NA
ATOM      3  C   UNL     1      69.193 220.292 338.165  0.00  0.00    +0.000 C 
ATOM      4  C   UNL     1      70.186 221.335 338.644  0.00  0.00    +0.000 C 
ATOM      5  C   UNL     1      70.439 220.975 340.033  0.00  0.00    +0.000 A 
ATOM      6  C   UNL     1      69.596 219.886 340.259  0.00  0.00    +0.000 A 
ATOM      7  C   UNL     1      71.259 221.496 341.018  0.00  0.00    +0.000 A 
ATOM      8  C   UNL     1      69.558 219.285 341.505  0.00  0.00    +0.000 A 
ATOM      9  C   UNL     1      71.222 220.889 342.276  0.00  0.00    +0.000 A 
ATOM     10  C   UNL     1      70.377 219.793 342.518  0.00  0.00    +0.000 A 
ENDROOT
BRANCH   3  12
ATOM     11  N   UNL     1      67.158 219.944 335.183  0.00  0.00    +0.000 N 
ATOM     12  C   UNL     1      68.632 220.132 336.844  0.00  0.00    +0.000 A 
ATOM     13  C   UNL     1      69.342 219.986 335.605  0.00  0.00    +0.000 A 
ATOM     14  C   UNL     1      68.394 219.858 334.589  0.00  0.00    +0.000 A 
ATOM     15  C   UNL     1      67.282 220.131 336.536  0.00  0.00    +0.000 A 
ATOM     16  C   UNL     1      70.707 219.935 335.251  0.00  0.00    +0.000 A 
ATOM     17  C   UNL     1      68.739 219.685 333.244  0.00  0.00    +0.000 A 
ATOM     18  C   UNL     1      71.071 219.763 333.911  0.00  0.00    +0.000 A 
ATOM     19  C   UNL     1      70.098 219.640 332.923  0.00  0.00    +0.000 A 
ATOM     20  H   UNL     1      66.288 219.902 334.674  0.00  0.00    +0.000 HD
BRANCH  15  21
ATOM     21  O   UNL     1      66.222 220.308 337.316  0.00  0.00    +0.000 OA
ATOM     22  H   UNL     1      66.050 219.512 337.844  0.00  0.00    +0.000 HD
ENDBRANCH  15  21
ENDBRANCH   3  12
BRANCH   2  23
ATOM     23  O   UNL     1      71.461 223.171 338.597  0.00  0.00    +0.000 OA
BRANCH  23  24
ATOM     24  C   UNL     1      72.531 223.517 337.721  0.00  0.00    +0.000 C 
BRANCH  24  25
ATOM     25  C   UNL     1      72.664 222.453 336.641  0.00  0.00    +0.000 C 
BRANCH  25  26
ATOM     26  C   UNL     1      73.695 222.783 335.562  0.00  0.00    +0.000 C 
BRANCH  26  27
ATOM     27  O   UNL     1      73.003 222.880 334.307  0.00  0.00    +0.000 OA
ATOM     28  H   UNL     1      73.715 222.986 333.644  0.00  0.00    +0.000 HD
ENDBRANCH  26  27
BRANCH  26  29
ATOM     29  C   UNL     1      74.445 224.098 335.797  0.00  0.00    +0.000 C 
BRANCH  29  30
ATOM     30  O   UNL     1      74.041 225.029 334.787  0.00  0.00    +0.000 OA
ATOM     31  H   UNL     1      73.100 224.853 334.608  0.00  0.00    +0.000 HD
ENDBRANCH  29  30
ENDBRANCH  26  29
ENDBRANCH  25  26
ENDBRANCH  24  25
ENDBRANCH  23  24
ENDBRANCH   2  23
TORSDOF 9
ENDMDL
