REMARK  Name = IPA3.pdbqt.pdb
REMARK  5 active torsions:
REMARK  status: ('A' for Active; 'I' for Inactive)
REMARK    1  A    between atoms: S_1  and  S_2
REMARK    2  A    between atoms: S_1  and  C_15
REMARK    3  A    between atoms: S_2  and  C_3
REMARK    4  A    between atoms: C_10  and  O_13
REMARK    5  A    between atoms: C_22  and  O_25
REMARK                            x       y       z     vdW  Elec       q    Type
REMARK                         _______ _______ _______ _____ _____    ______ ____
ROOT
ATOM      1  S   UNL     1      -1.249  -2.487   0.575  0.00  0.00    +0.000 S 
ENDROOT
BRANCH   1   2
ATOM      2  C   UNL     1      -2.015  -0.941   0.066  0.00  0.00    +0.000 A 
ATOM      3  C   UNL     1      -1.738   0.271   0.744  0.00  0.00    +0.000 A 
ATOM      4  C   UNL     1      -2.344   1.465   0.287  0.00  0.00    +0.000 A 
ATOM      5  C   UNL     1      -0.875   0.363   1.850  0.00  0.00    +0.000 A 
ATOM      6  C   UNL     1      -3.213   1.446  -0.801  0.00  0.00    +0.000 A 
ATOM      7  C   UNL     1      -2.076   2.681   0.915  0.00  0.00    +0.000 A 
ATOM      8  C   UNL     1      -3.496   0.253  -1.454  0.00  0.00    +0.000 A 
ATOM      9  C   UNL     1      -2.900  -0.928  -1.024  0.00  0.00    +0.000 A 
ATOM     10  C   UNL     1      -1.210   2.740   2.003  0.00  0.00    +0.000 A 
ATOM     11  C   UNL     1      -0.609   1.580   2.473  0.00  0.00    +0.000 A 
BRANCH   9  12
ATOM     12  O   UNL     1      -3.219  -2.062  -1.723  0.00  0.00    +0.000 OA
ATOM     13  H   UNL     1      -2.708  -2.799  -1.342  0.00  0.00    +0.000 HD
ENDBRANCH   9  12
ENDBRANCH   1   2
BRANCH   1  14
ATOM     14  S   UNL     1       0.244  -2.694  -0.830  0.00  0.00    +0.000 S 
BRANCH  14  15
ATOM     15  C   UNL     1       1.503  -1.581  -0.190  0.00  0.00    +0.000 A 
ATOM     16  C   UNL     1       1.690  -0.292  -0.744  0.00  0.00    +0.000 A 
ATOM     17  C   UNL     1       2.675   0.557  -0.187  0.00  0.00    +0.000 A 
ATOM     18  C   UNL     1       0.937   0.208  -1.822  0.00  0.00    +0.000 A 
ATOM     19  C   UNL     1       3.460   0.125   0.878  0.00  0.00    +0.000 A 
ATOM     20  C   UNL     1       2.872   1.842  -0.692  0.00  0.00    +0.000 A 
ATOM     21  C   UNL     1       3.286  -1.147   1.411  0.00  0.00    +0.000 A 
ATOM     22  C   UNL     1       2.315  -1.989   0.881  0.00  0.00    +0.000 A 
ATOM     23  C   UNL     1       2.103   2.311  -1.754  0.00  0.00    +0.000 A 
ATOM     24  C   UNL     1       1.135   1.492  -2.322  0.00  0.00    +0.000 A 
BRANCH  22  25
ATOM     25  O   UNL     1       2.195  -3.223   1.464  0.00  0.00    +0.000 OA
ATOM     26  H   UNL     1       1.460  -3.688   1.023  0.00  0.00    +0.000 HD
ENDBRANCH  22  25
ENDBRANCH  14  15
ENDBRANCH   1  14
TORSDOF 5
