MODEL 1
REMARK VINA RESULT:      -4.8      0.000      0.000
REMARK  Name = IPA3.pdbqt.pdb
REMARK  5 active torsions:
REMARK  status: ('A' for Active; 'I' for Inactive)
REMARK    1  A    between atoms: S_1  and  S_2
REMARK    2  A    between atoms: S_1  and  C_15
REMARK    3  A    between atoms: S_2  and  C_3
REMARK    4  A    between atoms: C_10  and  O_13
REMARK    5  A    between atoms: C_22  and  O_25
REMARK                            x       y       z     vdW  Elec       q    Type
REMARK                         _______ _______ _______ _____ _____    ______ ____
ROOT
ATOM      1  S   UNL     1      56.048 215.694 337.330  0.00  0.00    +0.000 S 
ENDROOT
BRANCH   1   2
ATOM      2  C   UNL     1      56.643 217.381 337.144  0.00  0.00    +0.000 A 
ATOM      3  C   UNL     1      57.298 218.047 338.208  0.00  0.00    +0.000 A 
ATOM      4  C   UNL     1      57.773 219.364 338.002  0.00  0.00    +0.000 A 
ATOM      5  C   UNL     1      57.521 217.467 339.469  0.00  0.00    +0.000 A 
ATOM      6  C   UNL     1      57.583 220.002 336.779  0.00  0.00    +0.000 A 
ATOM      7  C   UNL     1      58.444 220.043 339.020  0.00  0.00    +0.000 A 
ATOM      8  C   UNL     1      56.925 219.352 335.742  0.00  0.00    +0.000 A 
ATOM      9  C   UNL     1      56.462 218.053 335.925  0.00  0.00    +0.000 A 
ATOM     10  C   UNL     1      58.656 219.437 340.254  0.00  0.00    +0.000 A 
ATOM     11  C   UNL     1      58.193 218.147 340.481  0.00  0.00    +0.000 A 
BRANCH   9  12
ATOM     12  O   UNL     1      55.832 217.474 334.855  0.00  0.00    +0.000 OA
ATOM     13  H   UNL     1      56.159 217.910 334.047  0.00  0.00    +0.000 HD
ENDBRANCH   9  12
ENDBRANCH   1   2
BRANCH   1  14
ATOM     14  S   UNL     1      57.418 214.644 336.205  0.00  0.00    +0.000 S 
BRANCH  14  15
ATOM     15  C   UNL     1      58.953 215.483 336.622  0.00  0.00    +0.000 A 
ATOM     16  C   UNL     1      59.601 215.250 337.859  0.00  0.00    +0.000 A 
ATOM     17  C   UNL     1      60.821 215.914 338.129  0.00  0.00    +0.000 A 
ATOM     18  C   UNL     1      59.106 214.376 338.844  0.00  0.00    +0.000 A 
ATOM     19  C   UNL     1      61.366 216.796 337.201  0.00  0.00    +0.000 A 
ATOM     20  C   UNL     1      61.499 215.691 339.327  0.00  0.00    +0.000 A 
ATOM     21  C   UNL     1      60.720 217.036 335.993  0.00  0.00    +0.000 A 
ATOM     22  C   UNL     1      59.526 216.383 335.709  0.00  0.00    +0.000 A 
ATOM     23  C   UNL     1      60.987 214.812 340.278  0.00  0.00    +0.000 A 
ATOM     24  C   UNL     1      59.787 214.155 340.038  0.00  0.00    +0.000 A 
BRANCH  22  25
ATOM     25  O   UNL     1      58.953 216.663 334.497  0.00  0.00    +0.000 OA
ATOM     26  H   UNL     1      58.669 217.595 334.512  0.00  0.00    +0.000 HD
ENDBRANCH  22  25
ENDBRANCH  14  15
ENDBRANCH   1  14
TORSDOF 5
ENDMDL
MODEL 2
REMARK VINA RESULT:      -4.7     13.287     15.274
REMARK  Name = IPA3.pdbqt.pdb
REMARK  5 active torsions:
REMARK  status: ('A' for Active; 'I' for Inactive)
REMARK    1  A    between atoms: S_1  and  S_2
REMARK    2  A    between atoms: S_1  and  C_15
REMARK    3  A    between atoms: S_2  and  C_3
REMARK    4  A    between atoms: C_10  and  O_13
REMARK    5  A    between atoms: C_22  and  O_25
REMARK                            x       y       z     vdW  Elec       q    Type
REMARK                         _______ _______ _______ _____ _____    ______ ____
ROOT
ATOM      1  S   UNL     1      72.849 221.461 341.746  0.00  0.00    +0.000 S 
ENDROOT
BRANCH   1   2
ATOM      2  C   UNL     1      71.721 220.726 340.553  0.00  0.00    +0.000 A 
ATOM      3  C   UNL     1      70.833 221.528 339.795  0.00  0.00    +0.000 A 
ATOM      4  C   UNL     1      69.986 220.904 338.850  0.00  0.00    +0.000 A 
ATOM      5  C   UNL     1      70.752 222.926 339.917  0.00  0.00    +0.000 A 
ATOM      6  C   UNL     1      70.011 219.522 338.680  0.00  0.00    +0.000 A 
ATOM      7  C   UNL     1      69.115 221.664 338.068  0.00  0.00    +0.000 A 
ATOM      8  C   UNL     1      70.871 218.736 339.436  0.00  0.00    +0.000 A 
ATOM      9  C   UNL     1      71.718 219.335 340.363  0.00  0.00    +0.000 A 
ATOM     10  C   UNL     1      69.065 223.048 338.208  0.00  0.00    +0.000 A 
ATOM     11  C   UNL     1      69.883 223.681 339.134  0.00  0.00    +0.000 A 
BRANCH   9  12
ATOM     12  O   UNL     1      72.545 218.497 341.064  0.00  0.00    +0.000 OA
ATOM     13  H   UNL     1      72.661 218.873 341.955  0.00  0.00    +0.000 HD
ENDBRANCH   9  12
ENDBRANCH   1   2
BRANCH   1  14
ATOM     14  S   UNL     1      74.615 221.493 340.684  0.00  0.00    +0.000 S 
BRANCH  14  15
ATOM     15  C   UNL     1      74.220 222.638 339.355  0.00  0.00    +0.000 A 
ATOM     16  C   UNL     1      73.824 222.171 338.079  0.00  0.00    +0.000 A 
ATOM     17  C   UNL     1      73.496 223.113 337.076  0.00  0.00    +0.000 A 
ATOM     18  C   UNL     1      73.722 220.808 337.748  0.00  0.00    +0.000 A 
ATOM     19  C   UNL     1      73.579 224.478 337.334  0.00  0.00    +0.000 A 
ATOM     20  C   UNL     1      73.080 222.689 335.814  0.00  0.00    +0.000 A 
ATOM     21  C   UNL     1      73.983 224.936 338.582  0.00  0.00    +0.000 A 
ATOM     22  C   UNL     1      74.298 224.022 339.582  0.00  0.00    +0.000 A 
ATOM     23  C   UNL     1      72.981 221.331 335.520  0.00  0.00    +0.000 A 
ATOM     24  C   UNL     1      73.305 220.388 336.488  0.00  0.00    +0.000 A 
BRANCH  22  25
ATOM     25  O   UNL     1      74.679 224.548 340.789  0.00  0.00    +0.000 OA
ATOM     26  H   UNL     1      73.920 224.474 341.396  0.00  0.00    +0.000 HD
ENDBRANCH  22  25
ENDBRANCH  14  15
ENDBRANCH   1  14
TORSDOF 5
ENDMDL
MODEL 3
REMARK VINA RESULT:      -4.6     25.578     28.407
REMARK  Name = IPA3.pdbqt.pdb
REMARK  5 active torsions:
REMARK  status: ('A' for Active; 'I' for Inactive)
REMARK    1  A    between atoms: S_1  and  S_2
REMARK    2  A    between atoms: S_1  and  C_15
REMARK    3  A    between atoms: S_2  and  C_3
REMARK    4  A    between atoms: C_10  and  O_13
REMARK    5  A    between atoms: C_22  and  O_25
REMARK                            x       y       z     vdW  Elec       q    Type
REMARK                         _______ _______ _______ _____ _____    ______ ____
ROOT
ATOM      1  S   UNL     1      55.845 239.795 350.350  0.00  0.00    +0.000 S 
ENDROOT
BRANCH   1   2
ATOM      2  C   UNL     1      54.515 239.882 349.142  0.00  0.00    +0.000 A 
ATOM      3  C   UNL     1      54.542 240.830 348.090  0.00  0.00    +0.000 A 
ATOM      4  C   UNL     1      53.485 240.838 347.149  0.00  0.00    +0.000 A 
ATOM      5  C   UNL     1      55.575 241.766 347.915  0.00  0.00    +0.000 A 
ATOM      6  C   UNL     1      52.427 239.941 347.265  0.00  0.00    +0.000 A 
ATOM      7  C   UNL     1      53.490 241.742 346.087  0.00  0.00    +0.000 A 
ATOM      8  C   UNL     1      52.394 239.023 348.307  0.00  0.00    +0.000 A 
ATOM      9  C   UNL     1      53.431 238.994 349.235  0.00  0.00    +0.000 A 
ATOM     10  C   UNL     1      54.533 242.651 345.936  0.00  0.00    +0.000 A 
ATOM     11  C   UNL     1      55.577 242.665 346.851  0.00  0.00    +0.000 A 
BRANCH   9  12
ATOM     12  O   UNL     1      53.335 238.056 350.228  0.00  0.00    +0.000 OA
ATOM     13  H   UNL     1      53.754 237.238 349.904  0.00  0.00    +0.000 HD
ENDBRANCH   9  12
ENDBRANCH   1   2
BRANCH   1  14
ATOM     14  S   UNL     1      55.052 240.871 351.919  0.00  0.00    +0.000 S 
BRANCH  14  15
ATOM     15  C   UNL     1      55.097 242.547 351.270  0.00  0.00    +0.000 A 
ATOM     16  C   UNL     1      53.945 243.143 350.703  0.00  0.00    +0.000 A 
ATOM     17  C   UNL     1      54.023 244.475 350.232  0.00  0.00    +0.000 A 
ATOM     18  C   UNL     1      52.706 242.487 350.590  0.00  0.00    +0.000 A 
ATOM     19  C   UNL     1      55.220 245.182 350.309  0.00  0.00    +0.000 A 
ATOM     20  C   UNL     1      52.903 245.102 349.688  0.00  0.00    +0.000 A 
ATOM     21  C   UNL     1      56.354 244.590 350.852  0.00  0.00    +0.000 A 
ATOM     22  C   UNL     1      56.290 243.286 351.328  0.00  0.00    +0.000 A 
ATOM     23  C   UNL     1      51.688 244.428 349.599  0.00  0.00    +0.000 A 
ATOM     24  C   UNL     1      51.589 243.117 350.048  0.00  0.00    +0.000 A 
BRANCH  22  25
ATOM     25  O   UNL     1      57.445 242.773 351.858  0.00  0.00    +0.000 OA
ATOM     26  H   UNL     1      57.366 241.801 351.853  0.00  0.00    +0.000 HD
ENDBRANCH  22  25
ENDBRANCH  14  15
ENDBRANCH   1  14
TORSDOF 5
ENDMDL
MODEL 4
REMARK VINA RESULT:      -4.5     25.590     27.631
REMARK  Name = IPA3.pdbqt.pdb
REMARK  5 active torsions:
REMARK  status: ('A' for Active; 'I' for Inactive)
REMARK    1  A    between atoms: S_1  and  S_2
REMARK    2  A    between atoms: S_1  and  C_15
REMARK    3  A    between atoms: S_2  and  C_3
REMARK    4  A    between atoms: C_10  and  O_13
REMARK    5  A    between atoms: C_22  and  O_25
REMARK                            x       y       z     vdW  Elec       q    Type
REMARK                         _______ _______ _______ _____ _____    ______ ____
ROOT
ATOM      1  S   UNL     1      51.376 241.491 350.799  0.00  0.00    +0.000 S 
ENDROOT
BRANCH   1   2
ATOM      2  C   UNL     1      52.231 240.890 349.334  0.00  0.00    +0.000 A 
ATOM      3  C   UNL     1      52.565 241.764 348.271  0.00  0.00    +0.000 A 
ATOM      4  C   UNL     1      53.262 241.248 347.154  0.00  0.00    +0.000 A 
ATOM      5  C   UNL     1      52.253 243.135 348.266  0.00  0.00    +0.000 A 
ATOM      6  C   UNL     1      53.599 239.898 347.092  0.00  0.00    +0.000 A 
ATOM      7  C   UNL     1      53.628 242.084 346.099  0.00  0.00    +0.000 A 
ATOM      8  C   UNL     1      53.256 239.039 348.128  0.00  0.00    +0.000 A 
ATOM      9  C   UNL     1      52.580 239.533 349.239  0.00  0.00    +0.000 A 
ATOM     10  C   UNL     1      53.312 243.439 346.127  0.00  0.00    +0.000 A 
ATOM     11  C   UNL     1      52.622 243.966 347.211  0.00  0.00    +0.000 A 
BRANCH   9  12
ATOM     12  O   UNL     1      52.284 238.629 350.225  0.00  0.00    +0.000 OA
ATOM     13  H   UNL     1      52.955 238.724 350.925  0.00  0.00    +0.000 HD
ENDBRANCH   9  12
ENDBRANCH   1   2
BRANCH   1  14
ATOM     14  S   UNL     1      52.894 242.465 351.796  0.00  0.00    +0.000 S 
BRANCH  14  15
ATOM     15  C   UNL     1      54.197 241.226 351.776  0.00  0.00    +0.000 A 
ATOM     16  C   UNL     1      55.306 241.343 350.904  0.00  0.00    +0.000 A 
ATOM     17  C   UNL     1      56.318 240.357 350.946  0.00  0.00    +0.000 A 
ATOM     18  C   UNL     1      55.470 242.404 349.994  0.00  0.00    +0.000 A 
ATOM     19  C   UNL     1      56.218 239.277 351.819  0.00  0.00    +0.000 A 
ATOM     20  C   UNL     1      57.436 240.452 350.118  0.00  0.00    +0.000 A 
ATOM     21  C   UNL     1      55.120 239.154 352.664  0.00  0.00    +0.000 A 
ATOM     22  C   UNL     1      54.122 240.122 352.641  0.00  0.00    +0.000 A 
ATOM     23  C   UNL     1      57.575 241.520 349.234  0.00  0.00    +0.000 A 
ATOM     24  C   UNL     1      56.589 242.496 349.170  0.00  0.00    +0.000 A 
BRANCH  22  25
ATOM     25  O   UNL     1      53.077 239.939 353.508  0.00  0.00    +0.000 OA
ATOM     26  H   UNL     1      52.666 239.080 353.298  0.00  0.00    +0.000 HD
ENDBRANCH  22  25
ENDBRANCH  14  15
ENDBRANCH   1  14
TORSDOF 5
ENDMDL
MODEL 5
REMARK VINA RESULT:      -4.5     24.261     26.659
REMARK  Name = IPA3.pdbqt.pdb
REMARK  5 active torsions:
REMARK  status: ('A' for Active; 'I' for Inactive)
REMARK    1  A    between atoms: S_1  and  S_2
REMARK    2  A    between atoms: S_1  and  C_15
REMARK    3  A    between atoms: S_2  and  C_3
REMARK    4  A    between atoms: C_10  and  O_13
REMARK    5  A    between atoms: C_22  and  O_25
REMARK                            x       y       z     vdW  Elec       q    Type
REMARK                         _______ _______ _______ _____ _____    ______ ____
ROOT
ATOM      1  S   UNL     1      48.268 236.061 320.293  0.00  0.00    +0.000 S 
ENDROOT
BRANCH   1   2
ATOM      2  C   UNL     1      48.462 235.046 321.765  0.00  0.00    +0.000 A 
ATOM      3  C   UNL     1      47.860 233.767 321.858  0.00  0.00    +0.000 A 
ATOM      4  C   UNL     1      48.066 232.996 323.026  0.00  0.00    +0.000 A 
ATOM      5  C   UNL     1      47.070 233.205 320.839  0.00  0.00    +0.000 A 
ATOM      6  C   UNL     1      48.834 233.494 324.075  0.00  0.00    +0.000 A 
ATOM      7  C   UNL     1      47.509 231.723 323.142  0.00  0.00    +0.000 A 
ATOM      8  C   UNL     1      49.410 234.755 323.989  0.00  0.00    +0.000 A 
ATOM      9  C   UNL     1      49.226 235.521 322.843  0.00  0.00    +0.000 A 
ATOM     10  C   UNL     1      46.739 231.191 322.112  0.00  0.00    +0.000 A 
ATOM     11  C   UNL     1      46.517 231.932 320.959  0.00  0.00    +0.000 A 
BRANCH   9  12
ATOM     12  O   UNL     1      49.832 236.749 322.827  0.00  0.00    +0.000 OA
ATOM     13  H   UNL     1      49.805 237.106 323.733  0.00  0.00    +0.000 HD
ENDBRANCH   9  12
ENDBRANCH   1   2
BRANCH   1  14
ATOM     14  S   UNL     1      46.356 236.789 320.539  0.00  0.00    +0.000 S 
BRANCH  14  15
ATOM     15  C   UNL     1      46.284 237.028 322.319  0.00  0.00    +0.000 A 
ATOM     16  C   UNL     1      45.550 236.145 323.147  0.00  0.00    +0.000 A 
ATOM     17  C   UNL     1      45.547 236.359 324.545  0.00  0.00    +0.000 A 
ATOM     18  C   UNL     1      44.824 235.043 322.658  0.00  0.00    +0.000 A 
ATOM     19  C   UNL     1      46.240 237.432 325.097  0.00  0.00    +0.000 A 
ATOM     20  C   UNL     1      44.854 235.496 325.394  0.00  0.00    +0.000 A 
ATOM     21  C   UNL     1      46.948 238.308 324.282  0.00  0.00    +0.000 A 
ATOM     22  C   UNL     1      46.968 238.105 322.907  0.00  0.00    +0.000 A 
ATOM     23  C   UNL     1      44.153 234.409 324.879  0.00  0.00    +0.000 A 
ATOM     24  C   UNL     1      44.135 234.183 323.508  0.00  0.00    +0.000 A 
BRANCH  22  25
ATOM     25  O   UNL     1      47.694 239.003 322.169  0.00  0.00    +0.000 OA
ATOM     26  H   UNL     1      47.332 239.891 322.346  0.00  0.00    +0.000 HD
ENDBRANCH  22  25
ENDBRANCH  14  15
ENDBRANCH   1  14
TORSDOF 5
ENDMDL
MODEL 6
REMARK VINA RESULT:      -4.5     13.657     15.546
REMARK  Name = IPA3.pdbqt.pdb
REMARK  5 active torsions:
REMARK  status: ('A' for Active; 'I' for Inactive)
REMARK    1  A    between atoms: S_1  and  S_2
REMARK    2  A    between atoms: S_1  and  C_15
REMARK    3  A    between atoms: S_2  and  C_3
REMARK    4  A    between atoms: C_10  and  O_13
REMARK    5  A    between atoms: C_22  and  O_25
REMARK                            x       y       z     vdW  Elec       q    Type
REMARK                         _______ _______ _______ _____ _____    ______ ____
ROOT
ATOM      1  S   UNL     1      73.950 220.903 336.682  0.00  0.00    +0.000 S 
ENDROOT
BRANCH   1   2
ATOM      2  C   UNL     1      74.028 222.567 337.363  0.00  0.00    +0.000 A 
ATOM      3  C   UNL     1      74.376 222.788 338.717  0.00  0.00    +0.000 A 
ATOM      4  C   UNL     1      74.451 224.117 339.197  0.00  0.00    +0.000 A 
ATOM      5  C   UNL     1      74.670 221.753 339.623  0.00  0.00    +0.000 A 
ATOM      6  C   UNL     1      74.169 225.190 338.355  0.00  0.00    +0.000 A 
ATOM      7  C   UNL     1      74.814 224.373 340.519  0.00  0.00    +0.000 A 
ATOM      8  C   UNL     1      73.811 224.969 337.031  0.00  0.00    +0.000 A 
ATOM      9  C   UNL     1      73.743 223.669 336.541  0.00  0.00    +0.000 A 
ATOM     10  C   UNL     1      75.107 223.327 341.388  0.00  0.00    +0.000 A 
ATOM     11  C   UNL     1      75.034 222.014 340.941  0.00  0.00    +0.000 A 
BRANCH   9  12
ATOM     12  O   UNL     1      73.394 223.532 335.224  0.00  0.00    +0.000 OA
ATOM     13  H   UNL     1      72.440 223.337 335.189  0.00  0.00    +0.000 HD
ENDBRANCH   9  12
ENDBRANCH   1   2
BRANCH   1  14
ATOM     14  S   UNL     1      71.916 220.606 336.541  0.00  0.00    +0.000 S 
BRANCH  14  15
ATOM     15  C   UNL     1      71.321 221.462 338.006  0.00  0.00    +0.000 A 
ATOM     16  C   UNL     1      71.461 220.893 339.294  0.00  0.00    +0.000 A 
ATOM     17  C   UNL     1      71.002 221.619 340.418  0.00  0.00    +0.000 A 
ATOM     18  C   UNL     1      72.049 219.637 339.529  0.00  0.00    +0.000 A 
ATOM     19  C   UNL     1      70.405 222.866 340.258  0.00  0.00    +0.000 A 
ATOM     20  C   UNL     1      71.144 221.100 341.705  0.00  0.00    +0.000 A 
ATOM     21  C   UNL     1      70.253 223.417 338.991  0.00  0.00    +0.000 A 
ATOM     22  C   UNL     1      70.709 222.720 337.878  0.00  0.00    +0.000 A 
ATOM     23  C   UNL     1      71.740 219.857 341.905  0.00  0.00    +0.000 A 
ATOM     24  C   UNL     1      72.191 219.123 340.815  0.00  0.00    +0.000 A 
BRANCH  22  25
ATOM     25  O   UNL     1      70.534 223.331 336.664  0.00  0.00    +0.000 OA
ATOM     26  H   UNL     1      70.505 224.293 336.818  0.00  0.00    +0.000 HD
ENDBRANCH  22  25
ENDBRANCH  14  15
ENDBRANCH   1  14
TORSDOF 5
ENDMDL
MODEL 7
REMARK VINA RESULT:      -4.4     21.446     23.585
REMARK  Name = IPA3.pdbqt.pdb
REMARK  5 active torsions:
REMARK  status: ('A' for Active; 'I' for Inactive)
REMARK    1  A    between atoms: S_1  and  S_2
REMARK    2  A    between atoms: S_1  and  C_15
REMARK    3  A    between atoms: S_2  and  C_3
REMARK    4  A    between atoms: C_10  and  O_13
REMARK    5  A    between atoms: C_22  and  O_25
REMARK                            x       y       z     vdW  Elec       q    Type
REMARK                         _______ _______ _______ _____ _____    ______ ____
ROOT
ATOM      1  S   UNL     1      43.841 235.340 347.277  0.00  0.00    +0.000 S 
ENDROOT
BRANCH   1   2
ATOM      2  C   UNL     1      43.518 234.068 346.047  0.00  0.00    +0.000 A 
ATOM      3  C   UNL     1      42.816 232.885 346.384  0.00  0.00    +0.000 A 
ATOM      4  C   UNL     1      42.562 231.928 345.374  0.00  0.00    +0.000 A 
ATOM      5  C   UNL     1      42.337 232.608 347.676  0.00  0.00    +0.000 A 
ATOM      6  C   UNL     1      43.012 232.137 344.072  0.00  0.00    +0.000 A 
ATOM      7  C   UNL     1      41.853 230.763 345.663  0.00  0.00    +0.000 A 
ATOM      8  C   UNL     1      43.715 233.290 343.748  0.00  0.00    +0.000 A 
ATOM      9  C   UNL     1      43.963 234.246 344.727  0.00  0.00    +0.000 A 
ATOM     10  C   UNL     1      41.385 230.521 346.951  0.00  0.00    +0.000 A 
ATOM     11  C   UNL     1      41.627 231.443 347.961  0.00  0.00    +0.000 A 
BRANCH   9  12
ATOM     12  O   UNL     1      44.653 235.361 344.331  0.00  0.00    +0.000 OA
ATOM     13  H   UNL     1      45.329 235.548 345.007  0.00  0.00    +0.000 HD
ENDBRANCH   9  12
ENDBRANCH   1   2
BRANCH   1  14
ATOM     14  S   UNL     1      45.833 235.019 347.694  0.00  0.00    +0.000 S 
BRANCH  14  15
ATOM     15  C   UNL     1      45.862 233.247 347.996  0.00  0.00    +0.000 A 
ATOM     16  C   UNL     1      45.364 232.702 349.204  0.00  0.00    +0.000 A 
ATOM     17  C   UNL     1      45.383 231.299 349.381  0.00  0.00    +0.000 A 
ATOM     18  C   UNL     1      44.833 233.481 350.248  0.00  0.00    +0.000 A 
ATOM     19  C   UNL     1      45.899 230.468 348.391  0.00  0.00    +0.000 A 
ATOM     20  C   UNL     1      44.880 230.725 350.549  0.00  0.00    +0.000 A 
ATOM     21  C   UNL     1      46.401 231.005 347.212  0.00  0.00    +0.000 A 
ATOM     22  C   UNL     1      46.380 232.382 347.018  0.00  0.00    +0.000 A 
ATOM     23  C   UNL     1      44.352 231.524 351.560  0.00  0.00    +0.000 A 
ATOM     24  C   UNL     1      44.331 232.905 351.411  0.00  0.00    +0.000 A 
BRANCH  22  25
ATOM     25  O   UNL     1      46.883 232.837 345.828  0.00  0.00    +0.000 OA
ATOM     26  H   UNL     1      46.221 233.437 345.437  0.00  0.00    +0.000 HD
ENDBRANCH  22  25
ENDBRANCH  14  15
ENDBRANCH   1  14
TORSDOF 5
ENDMDL
MODEL 8
REMARK VINA RESULT:      -4.4     15.248     17.513
REMARK  Name = IPA3.pdbqt.pdb
REMARK  5 active torsions:
REMARK  status: ('A' for Active; 'I' for Inactive)
REMARK    1  A    between atoms: S_1  and  S_2
REMARK    2  A    between atoms: S_1  and  C_15
REMARK    3  A    between atoms: S_2  and  C_3
REMARK    4  A    between atoms: C_10  and  O_13
REMARK    5  A    between atoms: C_22  and  O_25
REMARK                            x       y       z     vdW  Elec       q    Type
REMARK                         _______ _______ _______ _____ _____    ______ ____
ROOT
ATOM      1  S   UNL     1      47.327 224.690 345.302  0.00  0.00    +0.000 S 
ENDROOT
BRANCH   1   2
ATOM      2  C   UNL     1      47.120 225.273 343.613  0.00  0.00    +0.000 A 
ATOM      3  C   UNL     1      46.606 224.423 342.603  0.00  0.00    +0.000 A 
ATOM      4  C   UNL     1      46.437 224.938 341.296  0.00  0.00    +0.000 A 
ATOM      5  C   UNL     1      46.236 223.085 342.827  0.00  0.00    +0.000 A 
ATOM      6  C   UNL     1      46.787 226.253 341.003  0.00  0.00    +0.000 A 
ATOM      7  C   UNL     1      45.911 224.137 340.282  0.00  0.00    +0.000 A 
ATOM      8  C   UNL     1      47.306 227.080 341.991  0.00  0.00    +0.000 A 
ATOM      9  C   UNL     1      47.469 226.592 343.284  0.00  0.00    +0.000 A 
ATOM     10  C   UNL     1      45.546 222.819 340.539  0.00  0.00    +0.000 A 
ATOM     11  C   UNL     1      45.710 222.291 341.812  0.00  0.00    +0.000 A 
BRANCH   9  12
ATOM     12  O   UNL     1      47.977 227.468 344.206  0.00  0.00    +0.000 OA
ATOM     13  H   UNL     1      47.635 228.355 343.993  0.00  0.00    +0.000 HD
ENDBRANCH   9  12
ENDBRANCH   1   2
BRANCH   1  14
ATOM     14  S   UNL     1      45.662 225.484 346.222  0.00  0.00    +0.000 S 
BRANCH  14  15
ATOM     15  C   UNL     1      44.333 224.805 345.219  0.00  0.00    +0.000 A 
ATOM     16  C   UNL     1      43.716 225.575 344.205  0.00  0.00    +0.000 A 
ATOM     17  C   UNL     1      42.693 224.987 343.424  0.00  0.00    +0.000 A 
ATOM     18  C   UNL     1      44.070 226.905 343.913  0.00  0.00    +0.000 A 
ATOM     19  C   UNL     1      42.289 223.676 343.661  0.00  0.00    +0.000 A 
ATOM     20  C   UNL     1      42.078 225.708 342.401  0.00  0.00    +0.000 A 
ATOM     21  C   UNL     1      42.886 222.926 344.668  0.00  0.00    +0.000 A 
ATOM     22  C   UNL     1      43.899 223.487 345.437  0.00  0.00    +0.000 A 
ATOM     23  C   UNL     1      42.458 227.020 342.131  0.00  0.00    +0.000 A 
ATOM     24  C   UNL     1      43.455 227.621 342.890  0.00  0.00    +0.000 A 
BRANCH  22  25
ATOM     25  O   UNL     1      44.446 222.685 346.403  0.00  0.00    +0.000 OA
ATOM     26  H   UNL     1      45.396 222.895 346.458  0.00  0.00    +0.000 HD
ENDBRANCH  22  25
ENDBRANCH  14  15
ENDBRANCH   1  14
TORSDOF 5
ENDMDL
MODEL 9
REMARK VINA RESULT:      -4.4     26.085     28.689
REMARK  Name = IPA3.pdbqt.pdb
REMARK  5 active torsions:
REMARK  status: ('A' for Active; 'I' for Inactive)
REMARK    1  A    between atoms: S_1  and  S_2
REMARK    2  A    between atoms: S_1  and  C_15
REMARK    3  A    between atoms: S_2  and  C_3
REMARK    4  A    between atoms: C_10  and  O_13
REMARK    5  A    between atoms: C_22  and  O_25
REMARK                            x       y       z     vdW  Elec       q    Type
REMARK                         _______ _______ _______ _____ _____    ______ ____
ROOT
ATOM      1  S   UNL     1      54.549 243.001 351.806  0.00  0.00    +0.000 S 
ENDROOT
BRANCH   1   2
ATOM      2  C   UNL     1      54.995 241.576 350.802  0.00  0.00    +0.000 A 
ATOM      3  C   UNL     1      54.016 240.864 350.067  0.00  0.00    +0.000 A 
ATOM      4  C   UNL     1      54.422 239.768 349.270  0.00  0.00    +0.000 A 
ATOM      5  C   UNL     1      52.649 241.193 350.071  0.00  0.00    +0.000 A 
ATOM      6  C   UNL     1      55.760 239.385 349.222  0.00  0.00    +0.000 A 
ATOM      7  C   UNL     1      53.490 239.058 348.514  0.00  0.00    +0.000 A 
ATOM      8  C   UNL     1      56.716 240.075 349.957  0.00  0.00    +0.000 A 
ATOM      9  C   UNL     1      56.335 241.161 350.738  0.00  0.00    +0.000 A 
ATOM     10  C   UNL     1      52.144 239.414 348.533  0.00  0.00    +0.000 A 
ATOM     11  C   UNL     1      51.722 240.482 349.313  0.00  0.00    +0.000 A 
BRANCH   9  12
ATOM     12  O   UNL     1      57.333 241.798 351.426  0.00  0.00    +0.000 OA
ATOM     13  H   UNL     1      58.033 242.028 350.788  0.00  0.00    +0.000 HD
ENDBRANCH   9  12
ENDBRANCH   1   2
BRANCH   1  14
ATOM     14  S   UNL     1      55.071 244.563 350.568  0.00  0.00    +0.000 S 
BRANCH  14  15
ATOM     15  C   UNL     1      53.773 244.492 349.326  0.00  0.00    +0.000 A 
ATOM     16  C   UNL     1      53.956 243.782 348.115  0.00  0.00    +0.000 A 
ATOM     17  C   UNL     1      52.894 243.733 347.182  0.00  0.00    +0.000 A 
ATOM     18  C   UNL     1      55.142 243.102 347.784  0.00  0.00    +0.000 A 
ATOM     19  C   UNL     1      51.694 244.388 347.442  0.00  0.00    +0.000 A 
ATOM     20  C   UNL     1      53.030 243.024 345.989  0.00  0.00    +0.000 A 
ATOM     21  C   UNL     1      51.521 245.098 348.625  0.00  0.00    +0.000 A 
ATOM     22  C   UNL     1      52.551 245.147 349.556  0.00  0.00    +0.000 A 
ATOM     23  C   UNL     1      54.214 242.353 345.695  0.00  0.00    +0.000 A 
ATOM     24  C   UNL     1      55.274 242.394 346.593  0.00  0.00    +0.000 A 
BRANCH  22  25
ATOM     25  O   UNL     1      52.304 245.857 350.701  0.00  0.00    +0.000 OA
ATOM     26  H   UNL     1      53.104 246.376 350.906  0.00  0.00    +0.000 HD
ENDBRANCH  22  25
ENDBRANCH  14  15
ENDBRANCH   1  14
TORSDOF 5
ENDMDL
