MODEL 1
REMARK VINA RESULT:      -6.8      0.000      0.000
REMARK  Name = 
REMARK  8 active torsions:
REMARK  status: ('A' for Active; 'I' for Inactive)
REMARK    1  A    between atoms: O_1  and  C_21
REMARK    2  A    between atoms: O_1  and  C_38
REMARK    3  A    between atoms: O_4  and  C_26
REMARK    4  A    between atoms: N_7  and  C_11
REMARK    5  A    between atoms: C_26  and  C_33
REMARK    6  A    between atoms: C_29  and  C_37
REMARK    7  A    between atoms: C_33  and  C_42
REMARK    8  A    between atoms: C_37  and  C_43
REMARK                            x       y       z     vdW  Elec       q    Type
REMARK                         _______ _______ _______ _____ _____    ______ ____
ROOT
ATOM      1  O   UNL     1      59.168 236.803 315.714  0.00  0.00    +0.000 OA
ATOM      2  O   UNL     1      55.089 235.851 316.172  0.00  0.00    +0.000 OA
ATOM      3  O   UNL     1      60.557 238.565 315.838  0.00  0.00    +0.000 OA
ATOM      4  N   UNL     1      54.780 237.542 317.694  0.00  0.00    +0.000 N 
ATOM      5  N   UNL     1      54.279 240.144 320.111  0.00  0.00    +0.000 NA
ATOM      6  C   UNL     1      55.288 238.550 318.487  0.00  0.00    +0.000 A 
ATOM      7  C   UNL     1      53.016 238.481 318.868  0.00  0.00    +0.000 A 
ATOM      8  C   UNL     1      53.330 237.413 317.861  0.00  0.00    +0.000 C 
ATOM      9  C   UNL     1      57.490 238.073 317.633  0.00  0.00    +0.000 A 
ATOM     10  C   UNL     1      58.972 238.350 317.653  0.00  0.00    +0.000 C 
ATOM     11  C   UNL     1      54.183 239.145 319.230  0.00  0.00    +0.000 A 
ATOM     12  C   UNL     1      57.001 237.086 316.857  0.00  0.00    +0.000 A 
ATOM     13  C   UNL     1      51.813 238.862 319.446  0.00  0.00    +0.000 A 
ATOM     14  C   UNL     1      56.593 238.840 318.490  0.00  0.00    +0.000 A 
ATOM     15  C   UNL     1      55.539 236.760 316.863  0.00  0.00    +0.000 A 
ATOM     16  C   UNL     1      51.862 239.914 320.405  0.00  0.00    +0.000 A 
ATOM     17  C   UNL     1      57.859 236.253 315.971  0.00  0.00    +0.000 C 
ATOM     18  C   UNL     1      53.129 240.519 320.692  0.00  0.00    +0.000 A 
ATOM     19  C   UNL     1      59.615 237.928 316.313  0.00  0.00    +0.000 C 
ATOM     20  C   UNL     1      50.841 241.419 322.027  0.00  0.00    +0.000 A 
ATOM     21  C   UNL     1      50.725 240.394 321.090  0.00  0.00    +0.000 A 
ATOM     22  C   UNL     1      53.194 241.553 321.617  0.00  0.00    +0.000 A 
ATOM     23  C   UNL     1      52.062 242.019 322.286  0.00  0.00    +0.000 A 
ENDROOT
BRANCH  10  24
ATOM     24  O   UNL     1      59.175 239.760 317.827  0.00  0.00    +0.000 OA
ATOM     25  H   UNL     1      59.728 239.859 318.628  0.00  0.00    +0.000 HD
ENDBRANCH  10  24
BRANCH  10  26
ATOM     26  C   UNL     1      59.647 237.599 318.821  0.00  0.00    +0.000 C 
ATOM     27  C   UNL     1      60.430 238.492 319.780  0.00  0.00    +0.000 C 
ENDBRANCH  10  26
BRANCH  13  28
ATOM     28  C   UNL     1      50.541 238.141 319.072  0.00  0.00    +0.000 C 
ATOM     29  C   UNL     1      49.862 238.766 317.862  0.00  0.00    +0.000 C 
ENDBRANCH  13  28
BRANCH  20  30
ATOM     30  O   UNL     1      49.692 241.900 322.655  0.00  0.00    +0.000 OA
BRANCH  30  38
ATOM     31  O   UNL     1      50.211 242.001 324.910  0.00  0.00    +0.000 OA
ATOM     32  N   UNL     1      48.651 240.484 324.156  0.00  0.00    +0.000 N 
ATOM     33  C   UNL     1      47.575 237.780 324.459  0.00  0.00    +0.000 C 
ATOM     34  C   UNL     1      47.925 238.399 323.082  0.00  0.00    +0.000 C 
ATOM     35  C   UNL     1      48.452 238.465 325.538  0.00  0.00    +0.000 C 
ATOM     36  C   UNL     1      47.844 239.923 323.086  0.00  0.00    +0.000 C 
ATOM     37  C   UNL     1      48.357 239.987 325.486  0.00  0.00    +0.000 C 
ATOM     38  C   UNL     1      49.572 241.507 323.985  0.00  0.00    +0.000 C 
BRANCH  33  39
ATOM     39  N   UNL     1      47.745 236.293 324.467  0.00  0.00    +0.000 NA
ATOM     40  C   UNL     1      46.784 235.619 323.567  0.00  0.00    +0.000 C 
ATOM     41  C   UNL     1      49.124 235.886 324.124  0.00  0.00    +0.000 C 
ATOM     42  C   UNL     1      46.921 234.095 323.584  0.00  0.00    +0.000 C 
ATOM     43  C   UNL     1      49.321 234.368 324.154  0.00  0.00    +0.000 C 
ATOM     44  C   UNL     1      48.336 233.660 323.240  0.00  0.00    +0.000 C 
ENDBRANCH  33  39
ENDBRANCH  30  38
ENDBRANCH  20  30
TORSDOF 6
ENDMDL
MODEL 2
REMARK VINA RESULT:      -6.5     28.158     31.044
REMARK  Name = 
REMARK  8 active torsions:
REMARK  status: ('A' for Active; 'I' for Inactive)
REMARK    1  A    between atoms: O_1  and  C_21
REMARK    2  A    between atoms: O_1  and  C_38
REMARK    3  A    between atoms: O_4  and  C_26
REMARK    4  A    between atoms: N_7  and  C_11
REMARK    5  A    between atoms: C_26  and  C_33
REMARK    6  A    between atoms: C_29  and  C_37
REMARK    7  A    between atoms: C_33  and  C_42
REMARK    8  A    between atoms: C_37  and  C_43
REMARK                            x       y       z     vdW  Elec       q    Type
REMARK                         _______ _______ _______ _____ _____    ______ ____
ROOT
ATOM      1  O   UNL     1      77.076 226.720 338.456  0.00  0.00    +0.000 OA
ATOM      2  O   UNL     1      74.056 225.323 335.873  0.00  0.00    +0.000 OA
ATOM      3  O   UNL     1      77.459 227.059 340.644  0.00  0.00    +0.000 OA
ATOM      4  N   UNL     1      73.199 223.936 337.489  0.00  0.00    +0.000 N 
ATOM      5  N   UNL     1      71.871 221.722 339.979  0.00  0.00    +0.000 NA
ATOM      6  C   UNL     1      73.273 223.366 338.743  0.00  0.00    +0.000 A 
ATOM      7  C   UNL     1      71.389 222.508 337.731  0.00  0.00    +0.000 A 
ATOM      8  C   UNL     1      72.026 223.455 336.754  0.00  0.00    +0.000 C 
ATOM      9  C   UNL     1      75.289 224.618 339.161  0.00  0.00    +0.000 A 
ATOM     10  C   UNL     1      76.446 224.938 340.074  0.00  0.00    +0.000 C 
ATOM     11  C   UNL     1      72.137 222.465 338.901  0.00  0.00    +0.000 A 
ATOM     12  C   UNL     1      75.224 225.177 337.937  0.00  0.00    +0.000 A 
ATOM     13  C   UNL     1      70.247 221.727 337.627  0.00  0.00    +0.000 A 
ATOM     14  C   UNL     1      74.268 223.667 339.584  0.00  0.00    +0.000 A 
ATOM     15  C   UNL     1      74.111 224.832 336.995  0.00  0.00    +0.000 A 
ATOM     16  C   UNL     1      69.925 220.904 338.744  0.00  0.00    +0.000 A 
ATOM     17  C   UNL     1      76.239 226.143 337.433  0.00  0.00    +0.000 C 
ATOM     18  C   UNL     1      70.777 220.949 339.895  0.00  0.00    +0.000 A 
ATOM     19  C   UNL     1      77.014 226.338 339.750  0.00  0.00    +0.000 C 
ATOM     20  C   UNL     1      68.554 219.251 339.896  0.00  0.00    +0.000 A 
ATOM     21  C   UNL     1      68.807 220.041 338.776  0.00  0.00    +0.000 A 
ATOM     22  C   UNL     1      70.473 220.159 340.996  0.00  0.00    +0.000 A 
ATOM     23  C   UNL     1      69.364 219.313 341.017  0.00  0.00    +0.000 A 
ENDROOT
BRANCH  10  24
ATOM     24  O   UNL     1      75.975 224.943 341.429  0.00  0.00    +0.000 OA
ATOM     25  H   UNL     1      75.614 225.838 341.588  0.00  0.00    +0.000 HD
ENDBRANCH  10  24
BRANCH  10  26
ATOM     26  C   UNL     1      77.556 223.874 339.933  0.00  0.00    +0.000 C 
ATOM     27  C   UNL     1      77.710 222.957 341.143  0.00  0.00    +0.000 C 
ENDBRANCH  10  26
BRANCH  13  28
ATOM     28  C   UNL     1      69.432 221.755 336.356  0.00  0.00    +0.000 C 
ATOM     29  C   UNL     1      69.794 220.613 335.418  0.00  0.00    +0.000 C 
ENDBRANCH  13  28
BRANCH  20  30
ATOM     30  O   UNL     1      67.417 218.441 339.913  0.00  0.00    +0.000 OA
BRANCH  30  38
ATOM     31  O   UNL     1      68.203 216.289 339.571  0.00  0.00    +0.000 OA
ATOM     32  N   UNL     1      66.887 217.301 337.975  0.00  0.00    +0.000 N 
ATOM     33  C   UNL     1      66.416 217.653 335.109  0.00  0.00    +0.000 C 
ATOM     34  C   UNL     1      66.449 218.836 336.109  0.00  0.00    +0.000 C 
ATOM     35  C   UNL     1      67.276 216.501 335.687  0.00  0.00    +0.000 C 
ATOM     36  C   UNL     1      66.071 218.416 337.527  0.00  0.00    +0.000 C 
ATOM     37  C   UNL     1      66.877 216.134 337.113  0.00  0.00    +0.000 C 
ATOM     38  C   UNL     1      67.556 217.261 339.189  0.00  0.00    +0.000 C 
BRANCH  33  39
ATOM     39  N   UNL     1      66.875 218.059 333.743  0.00  0.00    +0.000 NA
ATOM     40  C   UNL     1      66.668 219.502 333.493  0.00  0.00    +0.000 C 
ATOM     41  C   UNL     1      68.290 217.706 333.501  0.00  0.00    +0.000 C 
ATOM     42  C   UNL     1      67.103 219.931 332.090  0.00  0.00    +0.000 C 
ATOM     43  C   UNL     1      68.767 218.091 332.099  0.00  0.00    +0.000 C 
ATOM     44  C   UNL     1      68.554 219.569 331.823  0.00  0.00    +0.000 C 
ENDBRANCH  33  39
ENDBRANCH  30  38
ENDBRANCH  20  30
TORSDOF 6
ENDMDL
MODEL 3
REMARK VINA RESULT:      -6.4     20.729     24.492
REMARK  Name = 
REMARK  8 active torsions:
REMARK  status: ('A' for Active; 'I' for Inactive)
REMARK    1  A    between atoms: O_1  and  C_21
REMARK    2  A    between atoms: O_1  and  C_38
REMARK    3  A    between atoms: O_4  and  C_26
REMARK    4  A    between atoms: N_7  and  C_11
REMARK    5  A    between atoms: C_26  and  C_33
REMARK    6  A    between atoms: C_29  and  C_37
REMARK    7  A    between atoms: C_33  and  C_42
REMARK    8  A    between atoms: C_37  and  C_43
REMARK                            x       y       z     vdW  Elec       q    Type
REMARK                         _______ _______ _______ _____ _____    ______ ____
ROOT
ATOM      1  O   UNL     1      65.791 237.037 345.975  0.00  0.00    +0.000 OA
ATOM      2  O   UNL     1      65.137 240.862 344.335  0.00  0.00    +0.000 OA
ATOM      3  O   UNL     1      65.880 234.880 345.351  0.00  0.00    +0.000 OA
ATOM      4  N   UNL     1      65.959 240.218 342.291  0.00  0.00    +0.000 N 
ATOM      5  N   UNL     1      67.285 239.253 339.101  0.00  0.00    +0.000 NA
ATOM      6  C   UNL     1      66.571 239.280 341.485  0.00  0.00    +0.000 A 
ATOM      7  C   UNL     1      66.197 241.140 340.177  0.00  0.00    +0.000 A 
ATOM      8  C   UNL     1      65.674 241.450 341.550  0.00  0.00    +0.000 C 
ATOM      9  C   UNL     1      66.643 237.763 343.356  0.00  0.00    +0.000 A 
ATOM     10  C   UNL     1      67.068 236.433 343.926  0.00  0.00    +0.000 C 
ATOM     11  C   UNL     1      66.725 239.855 340.153  0.00  0.00    +0.000 A 
ATOM     12  C   UNL     1      66.046 238.675 344.149  0.00  0.00    +0.000 A 
ATOM     13  C   UNL     1      66.226 241.907 339.021  0.00  0.00    +0.000 A 
ATOM     14  C   UNL     1      66.920 238.080 341.959  0.00  0.00    +0.000 A 
ATOM     15  C   UNL     1      65.664 240.021 343.614  0.00  0.00    +0.000 A 
ATOM     16  C   UNL     1      66.828 241.317 337.872  0.00  0.00    +0.000 A 
ATOM     17  C   UNL     1      65.746 238.426 345.585  0.00  0.00    +0.000 C 
ATOM     18  C   UNL     1      67.337 239.982 337.975  0.00  0.00    +0.000 A 
ATOM     19  C   UNL     1      66.176 236.056 345.131  0.00  0.00    +0.000 C 
ATOM     20  C   UNL     1      67.560 241.355 335.548  0.00  0.00    +0.000 A 
ATOM     21  C   UNL     1      66.950 241.982 336.632  0.00  0.00    +0.000 A 
ATOM     22  C   UNL     1      67.917 239.389 336.862  0.00  0.00    +0.000 A 
ATOM     23  C   UNL     1      68.030 240.056 335.642  0.00  0.00    +0.000 A 
ENDROOT
BRANCH  10  24
ATOM     24  O   UNL     1      66.911 235.427 342.915  0.00  0.00    +0.000 OA
ATOM     25  H   UNL     1      67.586 235.618 342.233  0.00  0.00    +0.000 HD
ENDBRANCH  10  24
BRANCH  10  26
ATOM     26  C   UNL     1      68.548 236.480 344.361  0.00  0.00    +0.000 C 
ATOM     27  C   UNL     1      69.451 235.481 343.642  0.00  0.00    +0.000 C 
ENDBRANCH  10  26
BRANCH  13  28
ATOM     28  C   UNL     1      65.668 243.309 339.036  0.00  0.00    +0.000 C 
ATOM     29  C   UNL     1      66.706 244.335 339.464  0.00  0.00    +0.000 C 
ENDBRANCH  13  28
BRANCH  20  30
ATOM     30  O   UNL     1      67.626 242.023 334.324  0.00  0.00    +0.000 OA
BRANCH  30  38
ATOM     31  O   UNL     1      66.058 240.873 333.066  0.00  0.00    +0.000 OA
ATOM     32  N   UNL     1      65.814 243.135 333.420  0.00  0.00    +0.000 N 
ATOM     33  C   UNL     1      64.983 245.683 332.245  0.00  0.00    +0.000 C 
ATOM     34  C   UNL     1      66.310 245.508 333.025  0.00  0.00    +0.000 C 
ATOM     35  C   UNL     1      64.582 244.309 331.651  0.00  0.00    +0.000 C 
ATOM     36  C   UNL     1      66.246 244.373 334.044  0.00  0.00    +0.000 C 
ATOM     37  C   UNL     1      64.556 243.204 332.702  0.00  0.00    +0.000 C 
ATOM     38  C   UNL     1      66.465 241.919 333.563  0.00  0.00    +0.000 C 
BRANCH  33  39
ATOM     39  N   UNL     1      65.088 246.738 331.188  0.00  0.00    +0.000 NA
ATOM     40  C   UNL     1      64.840 246.194 329.835  0.00  0.00    +0.000 C 
ATOM     41  C   UNL     1      64.184 247.878 331.444  0.00  0.00    +0.000 C 
ATOM     42  C   UNL     1      64.972 247.251 328.736  0.00  0.00    +0.000 C 
ATOM     43  C   UNL     1      64.299 248.977 330.385  0.00  0.00    +0.000 C 
ATOM     44  C   UNL     1      64.054 248.434 328.989  0.00  0.00    +0.000 C 
ENDBRANCH  33  39
ENDBRANCH  30  38
ENDBRANCH  20  30
TORSDOF 6
ENDMDL
MODEL 4
REMARK VINA RESULT:      -6.4     12.283     16.674
REMARK  Name = 
REMARK  8 active torsions:
REMARK  status: ('A' for Active; 'I' for Inactive)
REMARK    1  A    between atoms: O_1  and  C_21
REMARK    2  A    between atoms: O_1  and  C_38
REMARK    3  A    between atoms: O_4  and  C_26
REMARK    4  A    between atoms: N_7  and  C_11
REMARK    5  A    between atoms: C_26  and  C_33
REMARK    6  A    between atoms: C_29  and  C_37
REMARK    7  A    between atoms: C_33  and  C_42
REMARK    8  A    between atoms: C_37  and  C_43
REMARK                            x       y       z     vdW  Elec       q    Type
REMARK                         _______ _______ _______ _____ _____    ______ ____
ROOT
ATOM      1  O   UNL     1      49.500 224.464 317.808  0.00  0.00    +0.000 OA
ATOM      2  O   UNL     1      53.150 226.544 317.482  0.00  0.00    +0.000 OA
ATOM      3  O   UNL     1      48.702 222.463 318.445  0.00  0.00    +0.000 OA
ATOM      4  N   UNL     1      54.076 225.358 319.214  0.00  0.00    +0.000 N 
ATOM      5  N   UNL     1      55.534 223.555 321.951  0.00  0.00    +0.000 NA
ATOM      6  C   UNL     1      53.960 224.441 320.239  0.00  0.00    +0.000 A 
ATOM      7  C   UNL     1      56.138 225.193 320.261  0.00  0.00    +0.000 A 
ATOM      8  C   UNL     1      55.436 225.901 319.139  0.00  0.00    +0.000 C 
ATOM      9  C   UNL     1      51.645 224.123 319.651  0.00  0.00    +0.000 A 
ATOM     10  C   UNL     1      50.316 223.471 319.939  0.00  0.00    +0.000 C 
ATOM     11  C   UNL     1      55.254 224.334 320.904  0.00  0.00    +0.000 A 
ATOM     12  C   UNL     1      51.752 225.018 318.648  0.00  0.00    +0.000 A 
ATOM     13  C   UNL     1      57.448 225.278 320.712  0.00  0.00    +0.000 A 
ATOM     14  C   UNL     1      52.802 223.822 320.486  0.00  0.00    +0.000 A 
ATOM     15  C   UNL     1      53.050 225.715 318.380  0.00  0.00    +0.000 A 
ATOM     16  C   UNL     1      57.795 224.477 321.839  0.00  0.00    +0.000 A 
ATOM     17  C   UNL     1      50.610 225.385 317.767  0.00  0.00    +0.000 C 
ATOM     18  C   UNL     1      56.791 223.631 322.412  0.00  0.00    +0.000 A 
ATOM     19  C   UNL     1      49.457 223.414 318.655  0.00  0.00    +0.000 C 
ATOM     20  C   UNL     1      59.355 223.677 323.531  0.00  0.00    +0.000 A 
ATOM     21  C   UNL     1      59.082 224.475 322.422  0.00  0.00    +0.000 A 
ATOM     22  C   UNL     1      57.116 222.837 323.504  0.00  0.00    +0.000 A 
ATOM     23  C   UNL     1      58.391 222.842 324.070  0.00  0.00    +0.000 A 
ENDROOT
BRANCH  10  24
ATOM     24  O   UNL     1      50.549 222.128 320.387  0.00  0.00    +0.000 OA
ATOM     25  H   UNL     1      49.708 221.822 320.782  0.00  0.00    +0.000 HD
ENDBRANCH  10  24
BRANCH  10  26
ATOM     26  C   UNL     1      49.562 224.244 321.043  0.00  0.00    +0.000 C 
ATOM     27  C   UNL     1      48.830 223.359 322.047  0.00  0.00    +0.000 C 
ENDBRANCH  10  26
BRANCH  13  28
ATOM     28  C   UNL     1      58.415 226.216 320.033  0.00  0.00    +0.000 C 
ATOM     29  C   UNL     1      58.278 227.646 320.536  0.00  0.00    +0.000 C 
ENDBRANCH  13  28
BRANCH  20  30
ATOM     30  O   UNL     1      60.648 223.664 324.057  0.00  0.00    +0.000 OA
BRANCH  30  38
ATOM     31  O   UNL     1      60.527 224.905 326.009  0.00  0.00    +0.000 OA
ATOM     32  N   UNL     1      61.745 225.691 324.220  0.00  0.00    +0.000 N 
ATOM     33  C   UNL     1      62.523 228.059 322.687  0.00  0.00    +0.000 C 
ATOM     34  C   UNL     1      62.027 226.750 322.022  0.00  0.00    +0.000 C 
ATOM     35  C   UNL     1      61.927 228.137 324.115  0.00  0.00    +0.000 C 
ATOM     36  C   UNL     1      62.289 225.518 322.884  0.00  0.00    +0.000 C 
ATOM     37  C   UNL     1      62.194 226.875 324.928  0.00  0.00    +0.000 C 
ATOM     38  C   UNL     1      60.939 224.763 324.861  0.00  0.00    +0.000 C 
BRANCH  33  39
ATOM     39  N   UNL     1      62.179 229.268 321.873  0.00  0.00    +0.000 NA
ATOM     40  C   UNL     1      62.441 229.061 320.433  0.00  0.00    +0.000 C 
ATOM     41  C   UNL     1      60.778 229.695 322.073  0.00  0.00    +0.000 C 
ATOM     42  C   UNL     1      62.125 230.297 319.588  0.00  0.00    +0.000 C 
ATOM     43  C   UNL     1      60.418 230.947 321.268  0.00  0.00    +0.000 C 
ATOM     44  C   UNL     1      60.690 230.754 319.786  0.00  0.00    +0.000 C 
ENDBRANCH  33  39
ENDBRANCH  30  38
ENDBRANCH  20  30
TORSDOF 6
ENDMDL
MODEL 5
REMARK VINA RESULT:      -6.0     30.253     34.200
REMARK  Name = 
REMARK  8 active torsions:
REMARK  status: ('A' for Active; 'I' for Inactive)
REMARK    1  A    between atoms: O_1  and  C_21
REMARK    2  A    between atoms: O_1  and  C_38
REMARK    3  A    between atoms: O_4  and  C_26
REMARK    4  A    between atoms: N_7  and  C_11
REMARK    5  A    between atoms: C_26  and  C_33
REMARK    6  A    between atoms: C_29  and  C_37
REMARK    7  A    between atoms: C_33  and  C_42
REMARK    8  A    between atoms: C_37  and  C_43
REMARK                            x       y       z     vdW  Elec       q    Type
REMARK                         _______ _______ _______ _____ _____    ______ ____
ROOT
ATOM      1  O   UNL     1      63.846 213.848 351.077  0.00  0.00    +0.000 OA
ATOM      2  O   UNL     1      65.050 213.111 347.108  0.00  0.00    +0.000 OA
ATOM      3  O   UNL     1      62.522 215.231 352.254  0.00  0.00    +0.000 OA
ATOM      4  N   UNL     1      63.065 213.902 346.271  0.00  0.00    +0.000 N 
ATOM      5  N   UNL     1      59.954 215.087 344.937  0.00  0.00    +0.000 NA
ATOM      6  C   UNL     1      61.784 214.375 346.466  0.00  0.00    +0.000 A 
ATOM      7  C   UNL     1      62.131 214.310 344.189  0.00  0.00    +0.000 A 
ATOM      8  C   UNL     1      63.391 213.822 344.844  0.00  0.00    +0.000 C 
ATOM      9  C   UNL     1      62.110 214.188 348.846  0.00  0.00    +0.000 A 
ATOM     10  C   UNL     1      61.548 214.308 350.241  0.00  0.00    +0.000 C 
ATOM     11  C   UNL     1      61.189 214.632 345.159  0.00  0.00    +0.000 A 
ATOM     12  C   UNL     1      63.362 213.725 348.663  0.00  0.00    +0.000 A 
ATOM     13  C   UNL     1      61.803 214.464 342.849  0.00  0.00    +0.000 A 
ATOM     14  C   UNL     1      61.281 214.528 347.695  0.00  0.00    +0.000 A 
ATOM     15  C   UNL     1      63.918 213.549 347.283  0.00  0.00    +0.000 A 
ATOM     16  C   UNL     1      60.490 214.933 342.556  0.00  0.00    +0.000 A 
ATOM     17  C   UNL     1      64.257 213.345 349.789  0.00  0.00    +0.000 C 
ATOM     18  C   UNL     1      59.611 215.231 343.648  0.00  0.00    +0.000 A 
ATOM     19  C   UNL     1      62.690 214.520 351.262  0.00  0.00    +0.000 C 
ATOM     20  C   UNL     1      58.707 215.569 341.022  0.00  0.00    +0.000 A 
ATOM     21  C   UNL     1      60.007 215.119 341.242  0.00  0.00    +0.000 A 
ATOM     22  C   UNL     1      58.331 215.698 343.380  0.00  0.00    +0.000 A 
ATOM     23  C   UNL     1      57.866 215.880 342.077  0.00  0.00    +0.000 A 
ENDROOT
BRANCH  10  24
ATOM     24  O   UNL     1      60.680 215.449 350.291  0.00  0.00    +0.000 OA
ATOM     25  H   UNL     1      61.080 216.122 349.705  0.00  0.00    +0.000 HD
ENDBRANCH  10  24
BRANCH  10  26
ATOM     26  C   UNL     1      60.740 213.046 350.609  0.00  0.00    +0.000 C 
ATOM     27  C   UNL     1      59.253 213.293 350.846  0.00  0.00    +0.000 C 
ENDBRANCH  10  26
BRANCH  13  28
ATOM     28  C   UNL     1      62.812 214.106 341.785  0.00  0.00    +0.000 C 
ATOM     29  C   UNL     1      63.798 215.235 341.524  0.00  0.00    +0.000 C 
ENDBRANCH  13  28
BRANCH  20  30
ATOM     30  O   UNL     1      58.275 215.784 339.712  0.00  0.00    +0.000 OA
BRANCH  30  38
ATOM     31  O   UNL     1      58.725 218.048 339.897  0.00  0.00    +0.000 OA
ATOM     32  N   UNL     1      58.787 217.027 337.833  0.00  0.00    +0.000 N 
ATOM     33  C   UNL     1      58.189 217.313 334.983  0.00  0.00    +0.000 C 
ATOM     34  C   UNL     1      57.794 216.061 335.806  0.00  0.00    +0.000 C 
ATOM     35  C   UNL     1      58.288 218.520 335.950  0.00  0.00    +0.000 C 
ATOM     36  C   UNL     1      58.708 215.835 337.007  0.00  0.00    +0.000 C 
ATOM     37  C   UNL     1      59.192 218.238 337.145  0.00  0.00    +0.000 C 
ATOM     38  C   UNL     1      58.608 217.038 339.209  0.00  0.00    +0.000 C 
BRANCH  33  39
ATOM     39  N   UNL     1      57.231 217.574 333.863  0.00  0.00    +0.000 NA
ATOM     40  C   UNL     1      56.733 216.322 333.254  0.00  0.00    +0.000 C 
ATOM     41  C   UNL     1      56.092 218.415 334.286  0.00  0.00    +0.000 C 
ATOM     42  C   UNL     1      55.776 216.568 332.086  0.00  0.00    +0.000 C 
ATOM     43  C   UNL     1      55.117 218.714 333.144  0.00  0.00    +0.000 C 
ATOM     44  C   UNL     1      54.602 217.437 332.503  0.00  0.00    +0.000 C 
ENDBRANCH  33  39
ENDBRANCH  30  38
ENDBRANCH  20  30
TORSDOF 6
ENDMDL
MODEL 6
REMARK VINA RESULT:      -6.0     33.896     36.423
REMARK  Name = 
REMARK  8 active torsions:
REMARK  status: ('A' for Active; 'I' for Inactive)
REMARK    1  A    between atoms: O_1  and  C_21
REMARK    2  A    between atoms: O_1  and  C_38
REMARK    3  A    between atoms: O_4  and  C_26
REMARK    4  A    between atoms: N_7  and  C_11
REMARK    5  A    between atoms: C_26  and  C_33
REMARK    6  A    between atoms: C_29  and  C_37
REMARK    7  A    between atoms: C_33  and  C_42
REMARK    8  A    between atoms: C_37  and  C_43
REMARK                            x       y       z     vdW  Elec       q    Type
REMARK                         _______ _______ _______ _____ _____    ______ ____
ROOT
ATOM      1  O   UNL     1      59.097 231.706 354.465  0.00  0.00    +0.000 OA
ATOM      2  O   UNL     1      55.014 230.926 353.779  0.00  0.00    +0.000 OA
ATOM      3  O   UNL     1      60.919 230.730 355.344  0.00  0.00    +0.000 OA
ATOM      4  N   UNL     1      55.388 228.668 353.609  0.00  0.00    +0.000 N 
ATOM      5  N   UNL     1      55.951 225.140 353.289  0.00  0.00    +0.000 NA
ATOM      6  C   UNL     1      56.255 227.596 353.556  0.00  0.00    +0.000 A 
ATOM      7  C   UNL     1      54.125 226.742 353.352  0.00  0.00    +0.000 A 
ATOM      8  C   UNL     1      53.994 228.231 353.488  0.00  0.00    +0.000 C 
ATOM      9  C   UNL     1      58.106 229.118 353.810  0.00  0.00    +0.000 A 
ATOM     10  C   UNL     1      59.596 229.342 353.869  0.00  0.00    +0.000 C 
ATOM     11  C   UNL     1      55.466 226.380 353.392  0.00  0.00    +0.000 A 
ATOM     12  C   UNL     1      57.265 230.170 353.862  0.00  0.00    +0.000 A 
ATOM     13  C   UNL     1      53.162 225.755 353.196  0.00  0.00    +0.000 A 
ATOM     14  C   UNL     1      57.578 227.768 353.648  0.00  0.00    +0.000 A 
ATOM     15  C   UNL     1      55.784 229.972 353.751  0.00  0.00    +0.000 A 
ATOM     16  C   UNL     1      53.627 224.414 353.066  0.00  0.00    +0.000 A 
ATOM     17  C   UNL     1      57.734 231.574 354.010  0.00  0.00    +0.000 C 
ATOM     18  C   UNL     1      55.037 224.171 353.125  0.00  0.00    +0.000 A 
ATOM     19  C   UNL     1      59.912 230.644 354.640  0.00  0.00    +0.000 C 
ATOM     20  C   UNL     1      53.286 222.022 352.748  0.00  0.00    +0.000 A 
ATOM     21  C   UNL     1      52.767 223.309 352.881  0.00  0.00    +0.000 A 
ATOM     22  C   UNL     1      55.507 222.869 353.009  0.00  0.00    +0.000 A 
ATOM     23  C   UNL     1      54.648 221.785 352.829  0.00  0.00    +0.000 A 
ENDROOT
BRANCH  10  24
ATOM     24  O   UNL     1      60.199 228.245 354.569  0.00  0.00    +0.000 OA
ATOM     25  H   UNL     1      60.977 228.613 355.035  0.00  0.00    +0.000 HD
ENDBRANCH  10  24
BRANCH  10  26
ATOM     26  C   UNL     1      60.189 229.416 352.446  0.00  0.00    +0.000 C 
ATOM     27  C   UNL     1      61.354 230.390 352.296  0.00  0.00    +0.000 C 
ENDBRANCH  10  26
BRANCH  13  28
ATOM     28  C   UNL     1      51.702 226.134 353.138  0.00  0.00    +0.000 C 
ATOM     29  C   UNL     1      51.268 226.530 351.734  0.00  0.00    +0.000 C 
ENDBRANCH  13  28
BRANCH  20  30
ATOM     30  O   UNL     1      52.408 220.946 352.610  0.00  0.00    +0.000 OA
BRANCH  30  38
ATOM     31  O   UNL     1      52.600 219.706 354.557  0.00  0.00    +0.000 OA
ATOM     32  N   UNL     1      53.368 218.845 352.564  0.00  0.00    +0.000 N 
ATOM     33  C   UNL     1      55.457 217.257 351.270  0.00  0.00    +0.000 C 
ATOM     34  C   UNL     1      54.970 218.619 350.716  0.00  0.00    +0.000 C 
ATOM     35  C   UNL     1      55.204 217.233 352.799  0.00  0.00    +0.000 C 
ATOM     36  C   UNL     1      53.534 218.939 351.124  0.00  0.00    +0.000 C 
ATOM     37  C   UNL     1      53.764 217.582 353.157  0.00  0.00    +0.000 C 
ATOM     38  C   UNL     1      52.774 219.824 353.347  0.00  0.00    +0.000 C 
BRANCH  33  39
ATOM     39  N   UNL     1      56.894 216.997 350.939  0.00  0.00    +0.000 NA
ATOM     40  C   UNL     1      57.811 217.720 351.846  0.00  0.00    +0.000 C 
ATOM     41  C   UNL     1      57.217 215.555 350.943  0.00  0.00    +0.000 C 
ATOM     42  C   UNL     1      59.286 217.492 351.505  0.00  0.00    +0.000 C 
ATOM     43  C   UNL     1      58.677 215.272 350.581  0.00  0.00    +0.000 C 
ATOM     44  C   UNL     1      59.633 216.013 351.498  0.00  0.00    +0.000 C 
ENDBRANCH  33  39
ENDBRANCH  30  38
ENDBRANCH  20  30
TORSDOF 6
ENDMDL
MODEL 7
REMARK VINA RESULT:      -5.9     25.560     29.694
REMARK  Name = 
REMARK  8 active torsions:
REMARK  status: ('A' for Active; 'I' for Inactive)
REMARK    1  A    between atoms: O_1  and  C_21
REMARK    2  A    between atoms: O_1  and  C_38
REMARK    3  A    between atoms: O_4  and  C_26
REMARK    4  A    between atoms: N_7  and  C_11
REMARK    5  A    between atoms: C_26  and  C_33
REMARK    6  A    between atoms: C_29  and  C_37
REMARK    7  A    between atoms: C_33  and  C_42
REMARK    8  A    between atoms: C_37  and  C_43
REMARK                            x       y       z     vdW  Elec       q    Type
REMARK                         _______ _______ _______ _____ _____    ______ ____
ROOT
ATOM      1  O   UNL     1      51.280 216.802 329.848  0.00  0.00    +0.000 OA
ATOM      2  O   UNL     1      54.175 219.361 331.529  0.00  0.00    +0.000 OA
ATOM      3  O   UNL     1      50.827 214.612 329.628  0.00  0.00    +0.000 OA
ATOM      4  N   UNL     1      54.687 217.840 333.170  0.00  0.00    +0.000 N 
ATOM      5  N   UNL     1      55.473 215.503 335.775  0.00  0.00    +0.000 NA
ATOM      6  C   UNL     1      54.443 216.647 333.819  0.00  0.00    +0.000 A 
ATOM      7  C   UNL     1      56.215 217.646 334.902  0.00  0.00    +0.000 A 
ATOM      8  C   UNL     1      55.806 218.560 333.784  0.00  0.00    +0.000 C 
ATOM      9  C   UNL     1      52.643 216.210 332.277  0.00  0.00    +0.000 A 
ATOM     10  C   UNL     1      51.503 215.326 331.839  0.00  0.00    +0.000 C 
ATOM     11  C   UNL     1      55.401 216.519 334.912  0.00  0.00    +0.000 A 
ATOM     12  C   UNL     1      52.875 217.374 331.639  0.00  0.00    +0.000 A 
ATOM     13  C   UNL     1      57.214 217.767 335.857  0.00  0.00    +0.000 A 
ATOM     14  C   UNL     1      53.464 215.829 333.421  0.00  0.00    +0.000 A 
ATOM     15  C   UNL     1      53.969 218.291 332.093  0.00  0.00    +0.000 A 
ATOM     16  C   UNL     1      57.325 216.716 336.812  0.00  0.00    +0.000 A 
ATOM     17  C   UNL     1      52.069 217.834 330.476  0.00  0.00    +0.000 C 
ATOM     18  C   UNL     1      56.424 215.606 336.715  0.00  0.00    +0.000 A 
ATOM     19  C   UNL     1      51.199 215.547 330.340  0.00  0.00    +0.000 C 
ATOM     20  C   UNL     1      58.328 215.658 338.765  0.00  0.00    +0.000 A 
ATOM     21  C   UNL     1      58.279 216.711 337.854  0.00  0.00    +0.000 A 
ATOM     22  C   UNL     1      56.525 214.568 337.633  0.00  0.00    +0.000 A 
ATOM     23  C   UNL     1      57.473 214.574 338.656  0.00  0.00    +0.000 A 
ENDROOT
BRANCH  10  24
ATOM     24  O   UNL     1      51.885 213.956 332.025  0.00  0.00    +0.000 OA
ATOM     25  H   UNL     1      52.615 213.788 331.396  0.00  0.00    +0.000 HD
ENDBRANCH  10  24
BRANCH  10  26
ATOM     26  C   UNL     1      50.241 215.613 332.680  0.00  0.00    +0.000 C 
ATOM     27  C   UNL     1      49.951 214.574 333.760  0.00  0.00    +0.000 C 
ENDBRANCH  10  26
BRANCH  13  28
ATOM     28  C   UNL     1      58.097 218.992 335.866  0.00  0.00    +0.000 C 
ATOM     29  C   UNL     1      57.462 220.152 336.617  0.00  0.00    +0.000 C 
ENDBRANCH  13  28
BRANCH  20  30
ATOM     30  O   UNL     1      59.310 215.662 339.757  0.00  0.00    +0.000 OA
BRANCH  30  38
ATOM     31  O   UNL     1      57.928 216.661 341.324  0.00  0.00    +0.000 OA
ATOM     32  N   UNL     1      59.427 215.039 341.979  0.00  0.00    +0.000 N 
ATOM     33  C   UNL     1      61.281 214.173 344.070  0.00  0.00    +0.000 C 
ATOM     34  C   UNL     1      61.652 214.183 342.566  0.00  0.00    +0.000 C 
ATOM     35  C   UNL     1      60.179 215.236 344.307  0.00  0.00    +0.000 C 
ATOM     36  C   UNL     1      60.433 214.041 341.659  0.00  0.00    +0.000 C 
ATOM     37  C   UNL     1      58.993 215.068 343.362  0.00  0.00    +0.000 C 
ATOM     38  C   UNL     1      58.811 215.855 341.041  0.00  0.00    +0.000 C 
BRANCH  33  39
ATOM     39  N   UNL     1      62.474 214.403 344.945  0.00  0.00    +0.000 NA
ATOM     40  C   UNL     1      63.536 215.158 344.247  0.00  0.00    +0.000 C 
ATOM     41  C   UNL     1      62.118 215.086 346.206  0.00  0.00    +0.000 C 
ATOM     42  C   UNL     1      64.778 215.378 345.115  0.00  0.00    +0.000 C 
ATOM     43  C   UNL     1      63.324 215.305 347.124  0.00  0.00    +0.000 C 
ATOM     44  C   UNL     1      64.428 216.073 346.419  0.00  0.00    +0.000 C 
ENDBRANCH  33  39
ENDBRANCH  30  38
ENDBRANCH  20  30
TORSDOF 6
ENDMDL
MODEL 8
REMARK VINA RESULT:      -5.9     22.083     25.482
REMARK  Name = 
REMARK  8 active torsions:
REMARK  status: ('A' for Active; 'I' for Inactive)
REMARK    1  A    between atoms: O_1  and  C_21
REMARK    2  A    between atoms: O_1  and  C_38
REMARK    3  A    between atoms: O_4  and  C_26
REMARK    4  A    between atoms: N_7  and  C_11
REMARK    5  A    between atoms: C_26  and  C_33
REMARK    6  A    between atoms: C_29  and  C_37
REMARK    7  A    between atoms: C_33  and  C_42
REMARK    8  A    between atoms: C_37  and  C_43
REMARK                            x       y       z     vdW  Elec       q    Type
REMARK                         _______ _______ _______ _____ _____    ______ ____
ROOT
ATOM      1  O   UNL     1      56.494 217.219 323.179  0.00  0.00    +0.000 OA
ATOM      2  O   UNL     1      53.646 218.576 325.971  0.00  0.00    +0.000 OA
ATOM      3  O   UNL     1      58.718 216.993 322.948  0.00  0.00    +0.000 OA
ATOM      4  N   UNL     1      55.007 218.047 327.742  0.00  0.00    +0.000 N 
ATOM      5  N   UNL     1      57.092 217.183 330.529  0.00  0.00    +0.000 NA
ATOM      6  C   UNL     1      56.161 217.478 328.240  0.00  0.00    +0.000 A 
ATOM      7  C   UNL     1      54.979 218.281 330.048  0.00  0.00    +0.000 A 
ATOM      8  C   UNL     1      54.176 218.593 328.818  0.00  0.00    +0.000 C 
ATOM      9  C   UNL     1      56.820 216.916 325.991  0.00  0.00    +0.000 A 
ATOM     10  C   UNL     1      57.802 216.250 325.061  0.00  0.00    +0.000 C 
ATOM     11  C   UNL     1      56.149 217.621 329.692  0.00  0.00    +0.000 A 
ATOM     12  C   UNL     1      55.694 217.469 325.498  0.00  0.00    +0.000 A 
ATOM     13  C   UNL     1      54.726 218.536 331.388  0.00  0.00    +0.000 A 
ATOM     14  C   UNL     1      57.065 216.919 327.429  0.00  0.00    +0.000 A 
ATOM     15  C   UNL     1      54.681 218.088 326.411  0.00  0.00    +0.000 A 
ATOM     16  C   UNL     1      55.695 218.077 332.326  0.00  0.00    +0.000 A 
ATOM     17  C   UNL     1      55.372 217.488 324.045  0.00  0.00    +0.000 C 
ATOM     18  C   UNL     1      56.862 217.409 331.832  0.00  0.00    +0.000 A 
ATOM     19  C   UNL     1      57.712 216.875 323.650  0.00  0.00    +0.000 C 
ATOM     20  C   UNL     1      56.542 217.761 334.589  0.00  0.00    +0.000 A 
ATOM     21  C   UNL     1      55.564 218.245 333.722  0.00  0.00    +0.000 A 
ATOM     22  C   UNL     1      57.821 216.963 332.732  0.00  0.00    +0.000 A 
ATOM     23  C   UNL     1      57.681 217.137 334.109  0.00  0.00    +0.000 A 
ENDROOT
BRANCH  10  24
ATOM     24  O   UNL     1      59.129 216.461 325.564  0.00  0.00    +0.000 OA
ATOM     25  H   UNL     1      59.095 217.288 326.086  0.00  0.00    +0.000 HD
ENDBRANCH  10  24
BRANCH  10  26
ATOM     26  C   UNL     1      57.531 214.733 324.983  0.00  0.00    +0.000 C 
ATOM     27  C   UNL     1      58.785 213.863 325.016  0.00  0.00    +0.000 C 
ENDBRANCH  10  26
BRANCH  13  28
ATOM     28  C   UNL     1      53.452 219.240 331.790  0.00  0.00    +0.000 C 
ATOM     29  C   UNL     1      52.301 218.269 332.000  0.00  0.00    +0.000 C 
ENDBRANCH  13  28
BRANCH  20  30
ATOM     30  O   UNL     1      56.405 217.982 335.960  0.00  0.00    +0.000 OA
BRANCH  30  38
ATOM     31  O   UNL     1      57.831 219.787 336.233  0.00  0.00    +0.000 OA
ATOM     32  N   UNL     1      58.139 217.877 337.484  0.00  0.00    +0.000 N 
ATOM     33  C   UNL     1      60.106 216.063 338.668  0.00  0.00    +0.000 C 
ATOM     34  C   UNL     1      58.882 215.567 337.857  0.00  0.00    +0.000 C 
ATOM     35  C   UNL     1      60.458 217.495 338.191  0.00  0.00    +0.000 C 
ATOM     36  C   UNL     1      57.715 216.550 337.894  0.00  0.00    +0.000 C 
ATOM     37  C   UNL     1      59.256 218.433 338.223  0.00  0.00    +0.000 C 
ATOM     38  C   UNL     1      57.485 218.647 336.533  0.00  0.00    +0.000 C 
BRANCH  33  39
ATOM     39  N   UNL     1      61.273 215.133 338.549  0.00  0.00    +0.000 NA
ATOM     40  C   UNL     1      62.034 215.354 337.300  0.00  0.00    +0.000 C 
ATOM     41  C   UNL     1      62.180 215.223 339.712  0.00  0.00    +0.000 C 
ATOM     42  C   UNL     1      63.214 214.393 337.145  0.00  0.00    +0.000 C 
ATOM     43  C   UNL     1      63.366 214.259 339.617  0.00  0.00    +0.000 C 
ATOM     44  C   UNL     1      64.153 214.468 338.336  0.00  0.00    +0.000 C 
ENDBRANCH  33  39
ENDBRANCH  30  38
ENDBRANCH  20  30
TORSDOF 6
ENDMDL
MODEL 9
REMARK VINA RESULT:      -5.8      6.008     10.198
REMARK  Name = 
REMARK  8 active torsions:
REMARK  status: ('A' for Active; 'I' for Inactive)
REMARK    1  A    between atoms: O_1  and  C_21
REMARK    2  A    between atoms: O_1  and  C_38
REMARK    3  A    between atoms: O_4  and  C_26
REMARK    4  A    between atoms: N_7  and  C_11
REMARK    5  A    between atoms: C_26  and  C_33
REMARK    6  A    between atoms: C_29  and  C_37
REMARK    7  A    between atoms: C_33  and  C_42
REMARK    8  A    between atoms: C_37  and  C_43
REMARK                            x       y       z     vdW  Elec       q    Type
REMARK                         _______ _______ _______ _____ _____    ______ ____
ROOT
ATOM      1  O   UNL     1      46.596 231.529 320.754  0.00  0.00    +0.000 OA
ATOM      2  O   UNL     1      47.767 235.283 319.240  0.00  0.00    +0.000 OA
ATOM      3  O   UNL     1      46.746 230.298 322.627  0.00  0.00    +0.000 OA
ATOM      4  N   UNL     1      47.722 236.232 321.329  0.00  0.00    +0.000 N 
ATOM      5  N   UNL     1      47.613 237.755 324.575  0.00  0.00    +0.000 NA
ATOM      6  C   UNL     1      47.440 236.154 322.677  0.00  0.00    +0.000 A 
ATOM      7  C   UNL     1      48.241 238.278 322.287  0.00  0.00    +0.000 A 
ATOM      8  C   UNL     1      48.245 237.554 320.971  0.00  0.00    +0.000 C 
ATOM      9  C   UNL     1      46.720 233.875 322.363  0.00  0.00    +0.000 A 
ATOM     10  C   UNL     1      46.128 232.615 322.943  0.00  0.00    +0.000 C 
ATOM     11  C   UNL     1      47.762 237.440 323.286  0.00  0.00    +0.000 A 
ATOM     12  C   UNL     1      46.994 233.945 321.046  0.00  0.00    +0.000 A 
ATOM     13  C   UNL     1      48.618 239.574 322.612  0.00  0.00    +0.000 A 
ATOM     14  C   UNL     1      46.952 235.033 323.219  0.00  0.00    +0.000 A 
ATOM     15  C   UNL     1      47.533 235.205 320.441  0.00  0.00    +0.000 A 
ATOM     16  C   UNL     1      48.464 239.967 323.973  0.00  0.00    +0.000 A 
ATOM     17  C   UNL     1      46.769 232.809 320.111  0.00  0.00    +0.000 C 
ATOM     18  C   UNL     1      47.958 239.008 324.909  0.00  0.00    +0.000 A 
ATOM     19  C   UNL     1      46.540 231.390 322.096  0.00  0.00    +0.000 C 
ATOM     20  C   UNL     1      48.599 241.585 325.791  0.00  0.00    +0.000 A 
ATOM     21  C   UNL     1      48.784 241.258 324.449  0.00  0.00    +0.000 A 
ATOM     22  C   UNL     1      47.811 239.372 326.241  0.00  0.00    +0.000 A 
ATOM     23  C   UNL     1      48.133 240.650 326.700  0.00  0.00    +0.000 A 
ENDROOT
BRANCH  10  24
ATOM     24  O   UNL     1      46.637 232.437 324.273  0.00  0.00    +0.000 OA
ATOM     25  H   UNL     1      47.422 233.016 324.344  0.00  0.00    +0.000 HD
ENDBRANCH  10  24
BRANCH  10  26
ATOM     26  C   UNL     1      44.589 232.720 323.005  0.00  0.00    +0.000 C 
ATOM     27  C   UNL     1      43.856 231.401 322.783  0.00  0.00    +0.000 C 
ENDBRANCH  10  26
BRANCH  13  28
ATOM     28  C   UNL     1      49.127 240.500 321.535  0.00  0.00    +0.000 C 
ATOM     29  C   UNL     1      50.604 240.283 321.243  0.00  0.00    +0.000 C 
ENDBRANCH  13  28
BRANCH  20  30
ATOM     30  O   UNL     1      48.965 242.855 326.238  0.00  0.00    +0.000 OA
BRANCH  30  38
ATOM     31  O   UNL     1      50.095 242.902 328.259  0.00  0.00    +0.000 OA
ATOM     32  N   UNL     1      51.275 242.830 326.283  0.00  0.00    +0.000 N 
ATOM     33  C   UNL     1      53.652 243.771 324.859  0.00  0.00    +0.000 C 
ATOM     34  C   UNL     1      52.234 243.791 324.236  0.00  0.00    +0.000 C 
ATOM     35  C   UNL     1      53.508 243.842 326.401  0.00  0.00    +0.000 C 
ATOM     36  C   UNL     1      51.315 242.729 324.834  0.00  0.00    +0.000 C 
ATOM     37  C   UNL     1      52.563 242.778 326.948  0.00  0.00    +0.000 C 
ATOM     38  C   UNL     1      50.108 242.863 327.032  0.00  0.00    +0.000 C 
BRANCH  33  39
ATOM     39  N   UNL     1      54.514 244.875 324.329  0.00  0.00    +0.000 NA
ATOM     40  C   UNL     1      54.803 244.710 322.889  0.00  0.00    +0.000 C 
ATOM     41  C   UNL     1      53.928 246.209 324.574  0.00  0.00    +0.000 C 
ATOM     42  C   UNL     1      55.709 245.812 322.334  0.00  0.00    +0.000 C 
ATOM     43  C   UNL     1      54.810 247.349 324.062  0.00  0.00    +0.000 C 
ATOM     44  C   UNL     1      55.124 247.191 322.584  0.00  0.00    +0.000 C 
ENDBRANCH  33  39
ENDBRANCH  30  38
ENDBRANCH  20  30
TORSDOF 6
ENDMDL
