REMARK  Name = 
REMARK  8 active torsions:
REMARK  status: ('A' for Active; 'I' for Inactive)
REMARK    1  A    between atoms: O_1  and  C_21
REMARK    2  A    between atoms: O_1  and  C_38
REMARK    3  A    between atoms: O_4  and  C_26
REMARK    4  A    between atoms: N_7  and  C_11
REMARK    5  A    between atoms: C_26  and  C_33
REMARK    6  A    between atoms: C_29  and  C_37
REMARK    7  A    between atoms: C_33  and  C_42
REMARK    8  A    between atoms: C_37  and  C_43
REMARK                            x       y       z     vdW  Elec       q    Type
REMARK                         _______ _______ _______ _____ _____    ______ ____
ROOT
ATOM      1  O   UNL     1      -9.200  -1.064   0.070  0.00  0.00    +0.000 OA
ATOM      2  O   UNL     1      -5.747  -3.461  -0.216  0.00  0.00    +0.000 OA
ATOM      3  O   UNL     1      -9.906   0.844   1.024  0.00  0.00    +0.000 OA
ATOM      4  N   UNL     1      -4.365  -1.648   0.050  0.00  0.00    +0.000 N 
ATOM      5  N   UNL     1      -2.181   1.174   0.414  0.00  0.00    +0.000 NA
ATOM      6  C   UNL     1      -4.182  -0.285   0.165  0.00  0.00    +0.000 A 
ATOM      7  C   UNL     1      -2.091  -1.249   0.256  0.00  0.00    +0.000 A 
ATOM      8  C   UNL     1      -3.086  -2.362   0.098  0.00  0.00    +0.000 C 
ATOM      9  C   UNL     1      -6.567   0.019   0.004  0.00  0.00    +0.000 A 
ATOM     10  C   UNL     1      -7.749   0.953  -0.066  0.00  0.00    +0.000 C 
ATOM     11  C   UNL     1      -2.752  -0.027   0.293  0.00  0.00    +0.000 A 
ATOM     12  C   UNL     1      -6.753  -1.311  -0.109  0.00  0.00    +0.000 A 
ATOM     13  C   UNL     1      -0.707  -1.274   0.356  0.00  0.00    +0.000 A 
ATOM     14  C   UNL     1      -5.219   0.558   0.146  0.00  0.00    +0.000 A 
ATOM     15  C   UNL     1      -5.587  -2.251  -0.095  0.00  0.00    +0.000 A 
ATOM     16  C   UNL     1      -0.046  -0.017   0.472  0.00  0.00    +0.000 A 
ATOM     17  C   UNL     1      -8.097  -1.929  -0.272  0.00  0.00    +0.000 C 
ATOM     18  C   UNL     1      -0.842   1.174   0.499  0.00  0.00    +0.000 A 
ATOM     19  C   UNL     1      -9.031   0.232   0.409  0.00  0.00    +0.000 C 
ATOM     20  C   UNL     1       1.944   1.377   0.660  0.00  0.00    +0.000 A 
ATOM     21  C   UNL     1       1.357   0.117   0.561  0.00  0.00    +0.000 A 
ATOM     22  C   UNL     1      -0.214   2.407   0.621  0.00  0.00    +0.000 A 
ATOM     23  C   UNL     1       1.173   2.526   0.710  0.00  0.00    +0.000 A 
ENDROOT
BRANCH  10  24
ATOM     24  O   UNL     1      -7.508   2.067   0.805  0.00  0.00    +0.000 OA
ATOM     25  H   UNL     1      -8.385   2.354   1.130  0.00  0.00    +0.000 HD
ENDBRANCH  10  24
BRANCH  10  26
ATOM     26  C   UNL     1      -7.941   1.475  -1.506  0.00  0.00    +0.000 C 
ATOM     27  C   UNL     1      -9.040   2.523  -1.658  0.00  0.00    +0.000 C 
ENDBRANCH  10  26
BRANCH  13  28
ATOM     28  C   UNL     1       0.025  -2.593   0.304  0.00  0.00    +0.000 C 
ATOM     29  C   UNL     1       0.496  -2.933  -1.102  0.00  0.00    +0.000 C 
ENDBRANCH  13  28
BRANCH  20  30
ATOM     30  O   UNL     1       3.330   1.473   0.790  0.00  0.00    +0.000 OA
BRANCH  30  38
ATOM     31  O   UNL     1       3.451   1.593  -1.520  0.00  0.00    +0.000 OA
ATOM     32  N   UNL     1       5.383   1.559  -0.267  0.00  0.00    +0.000 N 
ATOM     33  C   UNL     1       8.137   0.583  -0.109  0.00  0.00    +0.000 C 
ATOM     34  C   UNL     1       7.139   0.485   1.072  0.00  0.00    +0.000 C 
ATOM     35  C   UNL     1       7.327   0.614  -1.430  0.00  0.00    +0.000 C 
ATOM     36  C   UNL     1       6.059   1.562   1.019  0.00  0.00    +0.000 C 
ATOM     37  C   UNL     1       6.245   1.689  -1.426  0.00  0.00    +0.000 C 
ATOM     38  C   UNL     1       4.005   1.548  -0.425  0.00  0.00    +0.000 C 
BRANCH  33  39
ATOM     39  N   UNL     1       9.136  -0.532  -0.095  0.00  0.00    +0.000 NA
ATOM     40  C   UNL     1      10.084  -0.442  -1.226  0.00  0.00    +0.000 C 
ATOM     41  C   UNL     1       9.880  -0.600   1.180  0.00  0.00    +0.000 C 
ATOM     42  C   UNL     1      11.095  -1.591  -1.247  0.00  0.00    +0.000 C 
ATOM     43  C   UNL     1      10.887  -1.752   1.220  0.00  0.00    +0.000 C 
ATOM     44  C   UNL     1      11.864  -1.679   0.060  0.00  0.00    +0.000 C 
ENDBRANCH  33  39
ENDBRANCH  30  38
ENDBRANCH  20  30
TORSDOF 6
