MODEL 1
REMARK VINA RESULT:      -6.4      0.000      0.000
REMARK  Name = 
REMARK  8 active torsions:
REMARK  status: ('A' for Active; 'I' for Inactive)
REMARK    1  A    between atoms: O_1  and  C_21
REMARK    2  A    between atoms: O_1  and  C_38
REMARK    3  A    between atoms: O_4  and  C_26
REMARK    4  A    between atoms: N_7  and  C_11
REMARK    5  A    between atoms: C_26  and  C_33
REMARK    6  A    between atoms: C_29  and  C_37
REMARK    7  A    between atoms: C_33  and  C_42
REMARK    8  A    between atoms: C_37  and  C_43
REMARK                            x       y       z     vdW  Elec       q    Type
REMARK                         _______ _______ _______ _____ _____    ______ ____
ROOT
ATOM      1  O   UNL     1      64.935 213.876 340.765  0.00  0.00    +0.000 OA
ATOM      2  O   UNL     1      64.930 216.223 337.266  0.00  0.00    +0.000 OA
ATOM      3  O   UNL     1      66.334 213.188 342.383  0.00  0.00    +0.000 OA
ATOM      4  N   UNL     1      66.629 217.550 338.054  0.00  0.00    +0.000 N 
ATOM      5  N   UNL     1      69.250 219.670 339.280  0.00  0.00    +0.000 NA
ATOM      6  C   UNL     1      67.487 217.926 339.067  0.00  0.00    +0.000 A 
ATOM      7  C   UNL     1      67.932 219.301 337.272  0.00  0.00    +0.000 A 
ATOM      8  C   UNL     1      66.832 218.368 336.855  0.00  0.00    +0.000 C 
ATOM      9  C   UNL     1      66.531 216.216 340.471  0.00  0.00    +0.000 A 
ATOM     10  C   UNL     1      66.464 215.535 341.815  0.00  0.00    +0.000 C 
ATOM     11  C   UNL     1      68.309 219.029 338.582  0.00  0.00    +0.000 A 
ATOM     12  C   UNL     1      65.690 215.844 339.486  0.00  0.00    +0.000 A 
ATOM     13  C   UNL     1      68.569 220.322 336.582  0.00  0.00    +0.000 A 
ATOM     14  C   UNL     1      67.472 217.309 340.253  0.00  0.00    +0.000 A 
ATOM     15  C   UNL     1      65.705 216.544 338.161  0.00  0.00    +0.000 A 
ATOM     16  C   UNL     1      69.572 221.049 337.286  0.00  0.00    +0.000 A 
ATOM     17  C   UNL     1      64.694 214.750 339.642  0.00  0.00    +0.000 C 
ATOM     18  C   UNL     1      69.870 220.670 338.635  0.00  0.00    +0.000 A 
ATOM     19  C   UNL     1      65.921 214.096 341.660  0.00  0.00    +0.000 C 
ATOM     20  C   UNL     1      71.251 222.805 337.468  0.00  0.00    +0.000 A 
ATOM     21  C   UNL     1      70.290 222.126 336.722  0.00  0.00    +0.000 A 
ATOM     22  C   UNL     1      70.852 221.362 339.333  0.00  0.00    +0.000 A 
ATOM     23  C   UNL     1      71.555 222.424 338.764  0.00  0.00    +0.000 A 
ENDROOT
BRANCH  10  24
ATOM     24  O   UNL     1      67.788 215.463 342.361  0.00  0.00    +0.000 OA
ATOM     25  H   UNL     1      67.684 215.191 343.295  0.00  0.00    +0.000 HD
ENDBRANCH  10  24
BRANCH  10  26
ATOM     26  C   UNL     1      65.566 216.336 342.782  0.00  0.00    +0.000 C 
ATOM     27  C   UNL     1      65.892 216.137 344.260  0.00  0.00    +0.000 C 
ENDBRANCH  10  26
BRANCH  13  28
ATOM     28  C   UNL     1      68.161 220.636 335.163  0.00  0.00    +0.000 C 
ATOM     29  C   UNL     1      68.960 219.837 334.145  0.00  0.00    +0.000 C 
ENDBRANCH  13  28
BRANCH  20  30
ATOM     30  O   UNL     1      71.974 223.837 336.868  0.00  0.00    +0.000 OA
BRANCH  30  38
ATOM     31  O   UNL     1      73.549 222.361 336.029  0.00  0.00    +0.000 OA
ATOM     32  N   UNL     1      74.177 224.493 336.631  0.00  0.00    +0.000 N 
ATOM     33  C   UNL     1      76.270 226.138 337.844  0.00  0.00    +0.000 C 
ATOM     34  C   UNL     1      74.774 226.263 338.225  0.00  0.00    +0.000 C 
ATOM     35  C   UNL     1      76.522 224.701 337.323  0.00  0.00    +0.000 C 
ATOM     36  C   UNL     1      73.843 225.828 337.097  0.00  0.00    +0.000 C 
ATOM     37  C   UNL     1      75.553 224.303 336.214  0.00  0.00    +0.000 C 
ATOM     38  C   UNL     1      73.255 223.469 336.470  0.00  0.00    +0.000 C 
BRANCH  33  39
ATOM     39  N   UNL     1      77.173 226.481 338.988  0.00  0.00    +0.000 NA
ATOM     40  C   UNL     1      76.960 227.863 339.468  0.00  0.00    +0.000 C 
ATOM     41  C   UNL     1      77.035 225.532 340.113  0.00  0.00    +0.000 C 
ATOM     42  C   UNL     1      77.895 228.243 340.619  0.00  0.00    +0.000 C 
ATOM     43  C   UNL     1      77.971 225.853 341.280  0.00  0.00    +0.000 C 
ATOM     44  C   UNL     1      77.770 227.273 341.781  0.00  0.00    +0.000 C 
ENDBRANCH  33  39
ENDBRANCH  30  38
ENDBRANCH  20  30
TORSDOF 6
ENDMDL
MODEL 2
REMARK VINA RESULT:      -6.4     30.666     31.983
REMARK  Name = 
REMARK  8 active torsions:
REMARK  status: ('A' for Active; 'I' for Inactive)
REMARK    1  A    between atoms: O_1  and  C_21
REMARK    2  A    between atoms: O_1  and  C_38
REMARK    3  A    between atoms: O_4  and  C_26
REMARK    4  A    between atoms: N_7  and  C_11
REMARK    5  A    between atoms: C_26  and  C_33
REMARK    6  A    between atoms: C_29  and  C_37
REMARK    7  A    between atoms: C_33  and  C_42
REMARK    8  A    between atoms: C_37  and  C_43
REMARK                            x       y       z     vdW  Elec       q    Type
REMARK                         _______ _______ _______ _____ _____    ______ ____
ROOT
ATOM      1  O   UNL     1      45.050 230.298 322.581  0.00  0.00    +0.000 OA
ATOM      2  O   UNL     1      46.676 233.513 320.397  0.00  0.00    +0.000 OA
ATOM      3  O   UNL     1      45.000 229.478 324.672  0.00  0.00    +0.000 OA
ATOM      4  N   UNL     1      46.667 234.879 322.241  0.00  0.00    +0.000 N 
ATOM      5  N   UNL     1      46.618 237.051 325.095  0.00  0.00    +0.000 NA
ATOM      6  C   UNL     1      46.333 235.113 323.560  0.00  0.00    +0.000 A 
ATOM      7  C   UNL     1      47.376 237.017 322.787  0.00  0.00    +0.000 A 
ATOM      8  C   UNL     1      47.343 236.037 321.650  0.00  0.00    +0.000 C 
ATOM      9  C   UNL     1      45.378 232.904 323.680  0.00  0.00    +0.000 A 
ATOM     10  C   UNL     1      44.632 231.860 324.472  0.00  0.00    +0.000 C 
ATOM     11  C   UNL     1      46.775 236.459 323.909  0.00  0.00    +0.000 A 
ATOM     12  C   UNL     1      45.702 232.668 322.393  0.00  0.00    +0.000 A 
ATOM     13  C   UNL     1      47.882 238.308 322.861  0.00  0.00    +0.000 A 
ATOM     14  C   UNL     1      45.707 234.187 324.292  0.00  0.00    +0.000 A 
ATOM     15  C   UNL     1      46.396 233.713 321.574  0.00  0.00    +0.000 A 
ATOM     16  C   UNL     1      47.727 238.991 324.101  0.00  0.00    +0.000 A 
ATOM     17  C   UNL     1      45.383 231.390 321.700  0.00  0.00    +0.000 C 
ATOM     18  C   UNL     1      47.088 238.305 325.185  0.00  0.00    +0.000 A 
ATOM     19  C   UNL     1      44.934 230.449 323.917  0.00  0.00    +0.000 C 
ATOM     20  C   UNL     1      47.979 240.931 325.554  0.00  0.00    +0.000 A 
ATOM     21  C   UNL     1      48.171 240.314 324.320  0.00  0.00    +0.000 A 
ATOM     22  C   UNL     1      46.938 238.953 326.404  0.00  0.00    +0.000 A 
ATOM     23  C   UNL     1      47.383 240.260 326.608  0.00  0.00    +0.000 A 
ENDROOT
BRANCH  10  24
ATOM     24  O   UNL     1      45.073 231.914 325.836  0.00  0.00    +0.000 OA
ATOM     25  H   UNL     1      45.253 230.989 326.101  0.00  0.00    +0.000 HD
ENDBRANCH  10  24
BRANCH  10  26
ATOM     26  C   UNL     1      43.113 232.130 324.426  0.00  0.00    +0.000 C 
ATOM     27  C   UNL     1      42.501 232.534 325.765  0.00  0.00    +0.000 C 
ENDBRANCH  10  26
BRANCH  13  28
ATOM     28  C   UNL     1      48.526 238.931 321.646  0.00  0.00    +0.000 C 
ATOM     29  C   UNL     1      50.032 238.721 321.624  0.00  0.00    +0.000 C 
ENDBRANCH  13  28
BRANCH  20  30
ATOM     30  O   UNL     1      48.468 242.223 325.751  0.00  0.00    +0.000 OA
BRANCH  30  38
ATOM     31  O   UNL     1      49.455 242.291 327.846  0.00  0.00    +0.000 OA
ATOM     32  N   UNL     1      50.766 242.356 325.953  0.00  0.00    +0.000 N 
ATOM     33  C   UNL     1      53.160 243.497 324.717  0.00  0.00    +0.000 C 
ATOM     34  C   UNL     1      51.788 243.437 324.000  0.00  0.00    +0.000 C 
ATOM     35  C   UNL     1      52.909 243.515 326.247  0.00  0.00    +0.000 C 
ATOM     36  C   UNL     1      50.909 242.298 324.509  0.00  0.00    +0.000 C 
ATOM     37  C   UNL     1      52.007 242.373 326.704  0.00  0.00    +0.000 C 
ATOM     38  C   UNL     1      49.552 242.288 326.621  0.00  0.00    +0.000 C 
BRANCH  33  39
ATOM     39  N   UNL     1      53.976 244.671 324.274  0.00  0.00    +0.000 NA
ATOM     40  C   UNL     1      54.642 244.426 322.977  0.00  0.00    +0.000 C 
ATOM     41  C   UNL     1      53.176 245.912 324.201  0.00  0.00    +0.000 C 
ATOM     42  C   UNL     1      55.506 245.603 322.520  0.00  0.00    +0.000 C 
ATOM     43  C   UNL     1      54.003 247.127 323.774  0.00  0.00    +0.000 C 
ATOM     44  C   UNL     1      54.700 246.889 322.447  0.00  0.00    +0.000 C 
ENDBRANCH  33  39
ENDBRANCH  30  38
ENDBRANCH  20  30
TORSDOF 6
ENDMDL
MODEL 3
REMARK VINA RESULT:      -6.4     32.242     34.956
REMARK  Name = 
REMARK  8 active torsions:
REMARK  status: ('A' for Active; 'I' for Inactive)
REMARK    1  A    between atoms: O_1  and  C_21
REMARK    2  A    between atoms: O_1  and  C_38
REMARK    3  A    between atoms: O_4  and  C_26
REMARK    4  A    between atoms: N_7  and  C_11
REMARK    5  A    between atoms: C_26  and  C_33
REMARK    6  A    between atoms: C_29  and  C_37
REMARK    7  A    between atoms: C_33  and  C_42
REMARK    8  A    between atoms: C_37  and  C_43
REMARK                            x       y       z     vdW  Elec       q    Type
REMARK                         _______ _______ _______ _____ _____    ______ ____
ROOT
ATOM      1  O   UNL     1      58.347 248.437 320.168  0.00  0.00    +0.000 OA
ATOM      2  O   UNL     1      56.005 249.886 323.357  0.00  0.00    +0.000 OA
ATOM      3  O   UNL     1      59.357 246.551 319.483  0.00  0.00    +0.000 OA
ATOM      4  N   UNL     1      55.107 247.810 323.750  0.00  0.00    +0.000 N 
ATOM      5  N   UNL     1      53.649 244.589 324.354  0.00  0.00    +0.000 NA
ATOM      6  C   UNL     1      54.949 246.485 323.399  0.00  0.00    +0.000 A 
ATOM      7  C   UNL     1      53.682 246.830 325.293  0.00  0.00    +0.000 A 
ATOM      8  C   UNL     1      54.337 248.137 324.953  0.00  0.00    +0.000 C 
ATOM      9  C   UNL     1      56.421 246.836 321.524  0.00  0.00    +0.000 A 
ATOM     10  C   UNL     1      57.090 246.293 320.287  0.00  0.00    +0.000 C 
ATOM     11  C   UNL     1      54.051 245.862 324.366  0.00  0.00    +0.000 A 
ATOM     12  C   UNL     1      56.579 248.132 321.861  0.00  0.00    +0.000 A 
ATOM     13  C   UNL     1      52.819 246.486 326.324  0.00  0.00    +0.000 A 
ATOM     14  C   UNL     1      55.565 245.972 322.330  0.00  0.00    +0.000 A 
ATOM     15  C   UNL     1      55.881 248.703 323.056  0.00  0.00    +0.000 A 
ATOM     16  C   UNL     1      52.348 245.141 326.349  0.00  0.00    +0.000 A 
ATOM     17  C   UNL     1      57.424 249.074 321.077  0.00  0.00    +0.000 C 
ATOM     18  C   UNL     1      52.804 244.238 325.335  0.00  0.00    +0.000 A 
ATOM     19  C   UNL     1      58.368 247.102 319.969  0.00  0.00    +0.000 C 
ATOM     20  C   UNL     1      51.016 243.327 327.285  0.00  0.00    +0.000 A 
ATOM     21  C   UNL     1      51.451 244.651 327.323  0.00  0.00    +0.000 A 
ATOM     22  C   UNL     1      52.361 242.921 325.350  0.00  0.00    +0.000 A 
ATOM     23  C   UNL     1      51.476 242.449 326.319  0.00  0.00    +0.000 A 
ENDROOT
BRANCH  10  24
ATOM     24  O   UNL     1      57.467 244.930 320.528  0.00  0.00    +0.000 OA
ATOM     25  H   UNL     1      56.784 244.559 321.122  0.00  0.00    +0.000 HD
ENDBRANCH  10  24
BRANCH  10  26
ATOM     26  C   UNL     1      56.123 246.340 319.084  0.00  0.00    +0.000 C 
ATOM     27  C   UNL     1      56.515 245.433 317.921  0.00  0.00    +0.000 C 
ENDBRANCH  10  26
BRANCH  13  28
ATOM     28  C   UNL     1      52.399 247.529 327.330  0.00  0.00    +0.000 C 
ATOM     29  C   UNL     1      53.347 247.595 328.519  0.00  0.00    +0.000 C 
ENDBRANCH  13  28
BRANCH  20  30
ATOM     30  O   UNL     1      50.164 242.862 328.287  0.00  0.00    +0.000 OA
BRANCH  30  38
ATOM     31  O   UNL     1      48.189 243.934 327.727  0.00  0.00    +0.000 OA
ATOM     32  N   UNL     1      49.120 244.253 329.809  0.00  0.00    +0.000 N 
ATOM     33  C   UNL     1      49.633 246.180 331.951  0.00  0.00    +0.000 C 
ATOM     34  C   UNL     1      50.721 245.226 331.396  0.00  0.00    +0.000 C 
ATOM     35  C   UNL     1      48.579 246.414 330.840  0.00  0.00    +0.000 C 
ATOM     36  C   UNL     1      50.135 243.948 330.803  0.00  0.00    +0.000 C 
ATOM     37  C   UNL     1      48.041 245.110 330.261  0.00  0.00    +0.000 C 
ATOM     38  C   UNL     1      49.081 243.700 328.538  0.00  0.00    +0.000 C 
BRANCH  33  39
ATOM     39  N   UNL     1      50.214 247.467 332.448  0.00  0.00    +0.000 NA
ATOM     40  C   UNL     1      50.808 247.325 333.794  0.00  0.00    +0.000 C 
ATOM     41  C   UNL     1      51.214 248.026 331.514  0.00  0.00    +0.000 C 
ATOM     42  C   UNL     1      51.380 248.639 334.333  0.00  0.00    +0.000 C 
ATOM     43  C   UNL     1      51.798 249.357 331.995  0.00  0.00    +0.000 C 
ATOM     44  C   UNL     1      52.405 249.231 333.381  0.00  0.00    +0.000 C 
ENDBRANCH  33  39
ENDBRANCH  30  38
ENDBRANCH  20  30
TORSDOF 6
ENDMDL
MODEL 4
REMARK VINA RESULT:      -6.1      5.729     10.771
REMARK  Name = 
REMARK  8 active torsions:
REMARK  status: ('A' for Active; 'I' for Inactive)
REMARK    1  A    between atoms: O_1  and  C_21
REMARK    2  A    between atoms: O_1  and  C_38
REMARK    3  A    between atoms: O_4  and  C_26
REMARK    4  A    between atoms: N_7  and  C_11
REMARK    5  A    between atoms: C_26  and  C_33
REMARK    6  A    between atoms: C_29  and  C_37
REMARK    7  A    between atoms: C_33  and  C_42
REMARK    8  A    between atoms: C_37  and  C_43
REMARK                            x       y       z     vdW  Elec       q    Type
REMARK                         _______ _______ _______ _____ _____    ______ ____
ROOT
ATOM      1  O   UNL     1      62.337 213.373 352.929  0.00  0.00    +0.000 OA
ATOM      2  O   UNL     1      60.097 213.407 349.361  0.00  0.00    +0.000 OA
ATOM      3  O   UNL     1      64.447 213.076 353.643  0.00  0.00    +0.000 OA
ATOM      4  N   UNL     1      61.908 214.100 348.132  0.00  0.00    +0.000 N 
ATOM      5  N   UNL     1      64.709 215.230 346.197  0.00  0.00    +0.000 NA
ATOM      6  C   UNL     1      63.216 214.534 348.063  0.00  0.00    +0.000 A 
ATOM      7  C   UNL     1      62.411 214.495 345.905  0.00  0.00    +0.000 A 
ATOM      8  C   UNL     1      61.298 214.037 346.802  0.00  0.00    +0.000 C 
ATOM      9  C   UNL     1      63.378 214.337 350.459  0.00  0.00    +0.000 A 
ATOM     10  C   UNL     1      64.185 214.520 351.720  0.00  0.00    +0.000 C 
ATOM     11  C   UNL     1      63.538 214.787 346.663  0.00  0.00    +0.000 A 
ATOM     12  C   UNL     1      62.101 213.913 350.534  0.00  0.00    +0.000 A 
ATOM     13  C   UNL     1      62.460 214.660 344.527  0.00  0.00    +0.000 A 
ATOM     14  C   UNL     1      63.963 214.665 349.164  0.00  0.00    +0.000 A 
ATOM     15  C   UNL     1      61.266 213.775 349.299  0.00  0.00    +0.000 A 
ATOM     16  C   UNL     1      63.682 215.145 343.979  0.00  0.00    +0.000 A 
ATOM     17  C   UNL     1      61.435 213.575 351.822  0.00  0.00    +0.000 C 
ATOM     18  C   UNL     1      64.774 215.409 344.869  0.00  0.00    +0.000 A 
ATOM     19  C   UNL     1      63.669 213.577 352.829  0.00  0.00    +0.000 C 
ATOM     20  C   UNL     1      65.091 215.870 342.127  0.00  0.00    +0.000 A 
ATOM     21  C   UNL     1      63.874 215.382 342.600  0.00  0.00    +0.000 A 
ATOM     22  C   UNL     1      65.975 215.874 344.349  0.00  0.00    +0.000 A 
ATOM     23  C   UNL     1      66.153 216.102 342.984  0.00  0.00    +0.000 A 
ENDROOT
BRANCH  10  24
ATOM     24  O   UNL     1      65.553 214.186 351.443  0.00  0.00    +0.000 OA
ATOM     25  H   UNL     1      65.609 214.046 350.476  0.00  0.00    +0.000 HD
ENDBRANCH  10  24
BRANCH  10  26
ATOM     26  C   UNL     1      64.114 215.986 352.199  0.00  0.00    +0.000 C 
ATOM     27  C   UNL     1      65.141 216.352 353.268  0.00  0.00    +0.000 C 
ENDBRANCH  10  26
BRANCH  13  28
ATOM     28  C   UNL     1      61.239 214.359 343.692  0.00  0.00    +0.000 C 
ATOM     29  C   UNL     1      60.156 215.415 343.858  0.00  0.00    +0.000 C 
ENDBRANCH  13  28
BRANCH  20  30
ATOM     30  O   UNL     1      65.263 216.053 340.754  0.00  0.00    +0.000 OA
BRANCH  30  38
ATOM     31  O   UNL     1      66.916 214.454 340.477  0.00  0.00    +0.000 OA
ATOM     32  N   UNL     1      67.166 216.543 339.539  0.00  0.00    +0.000 N 
ATOM     33  C   UNL     1      69.049 218.692 338.909  0.00  0.00    +0.000 C 
ATOM     34  C   UNL     1      67.675 218.945 339.579  0.00  0.00    +0.000 C 
ATOM     35  C   UNL     1      69.499 217.249 339.249  0.00  0.00    +0.000 C 
ATOM     36  C   UNL     1      66.649 217.867 339.240  0.00  0.00    +0.000 C 
ATOM     37  C   UNL     1      68.433 216.211 338.915  0.00  0.00    +0.000 C 
ATOM     38  C   UNL     1      66.482 215.585 340.274  0.00  0.00    +0.000 C 
BRANCH  33  39
ATOM     39  N   UNL     1      70.071 219.706 339.322  0.00  0.00    +0.000 NA
ATOM     40  C   UNL     1      70.009 220.927 338.490  0.00  0.00    +0.000 C 
ATOM     41  C   UNL     1      69.956 220.065 340.750  0.00  0.00    +0.000 C 
ATOM     42  C   UNL     1      71.067 221.963 338.876  0.00  0.00    +0.000 C 
ATOM     43  C   UNL     1      71.012 221.081 341.194  0.00  0.00    +0.000 C 
ATOM     44  C   UNL     1      70.967 222.339 340.345  0.00  0.00    +0.000 C 
ENDBRANCH  33  39
ENDBRANCH  30  38
ENDBRANCH  20  30
TORSDOF 6
ENDMDL
MODEL 5
REMARK VINA RESULT:      -5.9     11.372     15.716
REMARK  Name = 
REMARK  8 active torsions:
REMARK  status: ('A' for Active; 'I' for Inactive)
REMARK    1  A    between atoms: O_1  and  C_21
REMARK    2  A    between atoms: O_1  and  C_38
REMARK    3  A    between atoms: O_4  and  C_26
REMARK    4  A    between atoms: N_7  and  C_11
REMARK    5  A    between atoms: C_26  and  C_33
REMARK    6  A    between atoms: C_29  and  C_37
REMARK    7  A    between atoms: C_33  and  C_42
REMARK    8  A    between atoms: C_37  and  C_43
REMARK                            x       y       z     vdW  Elec       q    Type
REMARK                         _______ _______ _______ _____ _____    ______ ____
ROOT
ATOM      1  O   UNL     1      68.702 215.851 351.879  0.00  0.00    +0.000 OA
ATOM      2  O   UNL     1      68.539 216.022 347.673  0.00  0.00    +0.000 OA
ATOM      3  O   UNL     1      67.381 216.141 353.674  0.00  0.00    +0.000 OA
ATOM      4  N   UNL     1      66.315 215.456 347.652  0.00  0.00    +0.000 N 
ATOM      5  N   UNL     1      62.852 214.523 347.589  0.00  0.00    +0.000 NA
ATOM      6  C   UNL     1      65.172 215.054 348.315  0.00  0.00    +0.000 A 
ATOM      7  C   UNL     1      64.624 215.229 346.083  0.00  0.00    +0.000 A 
ATOM      8  C   UNL     1      66.073 215.600 346.214  0.00  0.00    +0.000 C 
ATOM      9  C   UNL     1      66.399 215.086 350.388  0.00  0.00    +0.000 A 
ATOM     10  C   UNL     1      66.432 214.831 351.875  0.00  0.00    +0.000 C 
ATOM     11  C   UNL     1      64.104 214.908 347.332  0.00  0.00    +0.000 A 
ATOM     12  C   UNL     1      67.519 215.477 349.748  0.00  0.00    +0.000 A 
ATOM     13  C   UNL     1      63.799 215.163 344.969  0.00  0.00    +0.000 A 
ATOM     14  C   UNL     1      65.169 214.862 349.637  0.00  0.00    +0.000 A 
ATOM     15  C   UNL     1      67.519 215.684 348.265  0.00  0.00    +0.000 A 
ATOM     16  C   UNL     1      62.455 214.743 345.186  0.00  0.00    +0.000 A 
ATOM     17  C   UNL     1      68.812 215.709 350.447  0.00  0.00    +0.000 C 
ATOM     18  C   UNL     1      62.040 214.440 346.523  0.00  0.00    +0.000 A 
ATOM     19  C   UNL     1      67.537 215.683 352.540  0.00  0.00    +0.000 C 
ATOM     20  C   UNL     1      60.210 214.180 344.423  0.00  0.00    +0.000 A 
ATOM     21  C   UNL     1      61.507 214.608 344.148  0.00  0.00    +0.000 A 
ATOM     22  C   UNL     1      60.731 214.038 346.753  0.00  0.00    +0.000 A 
ATOM     23  C   UNL     1      59.803 213.910 345.719  0.00  0.00    +0.000 A 
ENDROOT
BRANCH  10  24
ATOM     24  O   UNL     1      65.168 215.212 352.435  0.00  0.00    +0.000 OA
ATOM     25  H   UNL     1      64.936 216.070 352.027  0.00  0.00    +0.000 HD
ENDBRANCH  10  24
BRANCH  10  26
ATOM     26  C   UNL     1      66.677 213.334 352.161  0.00  0.00    +0.000 C 
ATOM     27  C   UNL     1      65.521 212.627 352.863  0.00  0.00    +0.000 C 
ENDBRANCH  10  26
BRANCH  13  28
ATOM     28  C   UNL     1      64.353 215.497 343.605  0.00  0.00    +0.000 C 
ATOM     29  C   UNL     1      64.987 214.288 342.932  0.00  0.00    +0.000 C 
ENDBRANCH  13  28
BRANCH  20  30
ATOM     30  O   UNL     1      59.285 214.098 343.382  0.00  0.00    +0.000 OA
BRANCH  30  38
ATOM     31  O   UNL     1      58.119 216.042 343.858  0.00  0.00    +0.000 OA
ATOM     32  N   UNL     1      58.832 215.626 341.708  0.00  0.00    +0.000 N 
ATOM     33  C   UNL     1      58.178 215.854 338.865  0.00  0.00    +0.000 C 
ATOM     34  C   UNL     1      58.718 214.550 339.504  0.00  0.00    +0.000 C 
ATOM     35  C   UNL     1      57.456 216.672 339.966  0.00  0.00    +0.000 C 
ATOM     36  C   UNL     1      59.559 214.811 340.750  0.00  0.00    +0.000 C 
ATOM     37  C   UNL     1      58.327 216.886 341.200  0.00  0.00    +0.000 C 
ATOM     38  C   UNL     1      58.698 215.317 343.054  0.00  0.00    +0.000 C 
BRANCH  33  39
ATOM     39  N   UNL     1      57.281 215.579 337.698  0.00  0.00    +0.000 NA
ATOM     40  C   UNL     1      56.257 214.561 338.013  0.00  0.00    +0.000 C 
ATOM     41  C   UNL     1      56.631 216.806 337.191  0.00  0.00    +0.000 C 
ATOM     42  C   UNL     1      55.349 214.243 336.822  0.00  0.00    +0.000 C 
ATOM     43  C   UNL     1      55.732 216.545 335.981  0.00  0.00    +0.000 C 
ATOM     44  C   UNL     1      54.678 215.495 336.285  0.00  0.00    +0.000 C 
ENDBRANCH  33  39
ENDBRANCH  30  38
ENDBRANCH  20  30
TORSDOF 6
ENDMDL
MODEL 6
REMARK VINA RESULT:      -5.9     11.738     15.440
REMARK  Name = 
REMARK  8 active torsions:
REMARK  status: ('A' for Active; 'I' for Inactive)
REMARK    1  A    between atoms: O_1  and  C_21
REMARK    2  A    between atoms: O_1  and  C_38
REMARK    3  A    between atoms: O_4  and  C_26
REMARK    4  A    between atoms: N_7  and  C_11
REMARK    5  A    between atoms: C_26  and  C_33
REMARK    6  A    between atoms: C_29  and  C_37
REMARK    7  A    between atoms: C_33  and  C_42
REMARK    8  A    between atoms: C_37  and  C_43
REMARK                            x       y       z     vdW  Elec       q    Type
REMARK                         _______ _______ _______ _____ _____    ______ ____
ROOT
ATOM      1  O   UNL     1      65.553 213.938 348.078  0.00  0.00    +0.000 OA
ATOM      2  O   UNL     1      65.802 213.728 343.877  0.00  0.00    +0.000 OA
ATOM      3  O   UNL     1      64.381 214.973 349.691  0.00  0.00    +0.000 OA
ATOM      4  N   UNL     1      63.573 214.223 343.637  0.00  0.00    +0.000 N 
ATOM      5  N   UNL     1      60.083 214.945 343.235  0.00  0.00    +0.000 NA
ATOM      6  C   UNL     1      62.328 214.448 344.188  0.00  0.00    +0.000 A 
ATOM      7  C   UNL     1      62.088 214.619 341.902  0.00  0.00    +0.000 A 
ATOM      8  C   UNL     1      63.532 214.311 342.175  0.00  0.00    +0.000 C 
ATOM      9  C   UNL     1      63.274 214.139 346.382  0.00  0.00    +0.000 A 
ATOM     10  C   UNL     1      63.076 214.052 347.874  0.00  0.00    +0.000 C 
ATOM     11  C   UNL     1      61.388 214.697 343.100  0.00  0.00    +0.000 A 
ATOM     12  C   UNL     1      64.493 213.917 345.851  0.00  0.00    +0.000 A 
ATOM     13  C   UNL     1      61.411 214.816 340.707  0.00  0.00    +0.000 A 
ATOM     14  C   UNL     1      62.138 214.416 345.510  0.00  0.00    +0.000 A 
ATOM     15  C   UNL     1      64.699 213.947 344.368  0.00  0.00    +0.000 A 
ATOM     16  C   UNL     1      60.011 215.070 340.794  0.00  0.00    +0.000 A 
ATOM     17  C   UNL     1      65.693 213.614 346.678  0.00  0.00    +0.000 C 
ATOM     18  C   UNL     1      59.405 215.125 342.091  0.00  0.00    +0.000 A 
ATOM     19  C   UNL     1      64.394 214.380 348.611  0.00  0.00    +0.000 C 
ATOM     20  C   UNL     1      57.821 215.500 339.815  0.00  0.00    +0.000 A 
ATOM     21  C   UNL     1      59.187 215.269 339.664  0.00  0.00    +0.000 A 
ATOM     22  C   UNL     1      58.044 215.380 342.193  0.00  0.00    +0.000 A 
ATOM     23  C   UNL     1      57.241 215.577 341.070  0.00  0.00    +0.000 A 
ENDROOT
BRANCH  10  24
ATOM     24  O   UNL     1      62.088 215.016 348.265  0.00  0.00    +0.000 OA
ATOM     25  H   UNL     1      62.468 215.504 349.022  0.00  0.00    +0.000 HD
ENDBRANCH  10  24
BRANCH  10  26
ATOM     26  C   UNL     1      62.587 212.643 348.273  0.00  0.00    +0.000 C 
ATOM     27  C   UNL     1      61.181 212.606 348.867  0.00  0.00    +0.000 C 
ENDBRANCH  10  26
BRANCH  13  28
ATOM     28  C   UNL     1      62.156 214.722 339.398  0.00  0.00    +0.000 C 
ATOM     29  C   UNL     1      62.206 213.297 338.867  0.00  0.00    +0.000 C 
ENDBRANCH  13  28
BRANCH  20  30
ATOM     30  O   UNL     1      57.042 215.736 338.682  0.00  0.00    +0.000 OA
BRANCH  30  38
ATOM     31  O   UNL     1      57.076 218.036 338.954  0.00  0.00    +0.000 OA
ATOM     32  N   UNL     1      57.176 217.126 336.841  0.00  0.00    +0.000 N 
ATOM     33  C   UNL     1      56.327 217.405 334.054  0.00  0.00    +0.000 C 
ATOM     34  C   UNL     1      56.233 216.069 334.835  0.00  0.00    +0.000 C 
ATOM     35  C   UNL     1      56.271 218.570 335.074  0.00  0.00    +0.000 C 
ATOM     36  C   UNL     1      57.259 215.973 335.960  0.00  0.00    +0.000 C 
ATOM     37  C   UNL     1      57.297 218.418 336.192  0.00  0.00    +0.000 C 
ATOM     38  C   UNL     1      57.098 217.049 338.224  0.00  0.00    +0.000 C 
BRANCH  33  39
ATOM     39  N   UNL     1      55.258 217.524 333.013  0.00  0.00    +0.000 NA
ATOM     40  C   UNL     1      54.118 216.621 333.282  0.00  0.00    +0.000 C 
ATOM     41  C   UNL     1      54.775 218.913 332.865  0.00  0.00    +0.000 C 
ATOM     42  C   UNL     1      53.028 216.706 332.211  0.00  0.00    +0.000 C 
ATOM     43  C   UNL     1      53.700 219.056 331.785  0.00  0.00    +0.000 C 
ATOM     44  C   UNL     1      52.525 218.129 332.042  0.00  0.00    +0.000 C 
ENDBRANCH  33  39
ENDBRANCH  30  38
ENDBRANCH  20  30
TORSDOF 6
ENDMDL
MODEL 7
REMARK VINA RESULT:      -5.5     21.331     26.161
REMARK  Name = 
REMARK  8 active torsions:
REMARK  status: ('A' for Active; 'I' for Inactive)
REMARK    1  A    between atoms: O_1  and  C_21
REMARK    2  A    between atoms: O_1  and  C_38
REMARK    3  A    between atoms: O_4  and  C_26
REMARK    4  A    between atoms: N_7  and  C_11
REMARK    5  A    between atoms: C_26  and  C_33
REMARK    6  A    between atoms: C_29  and  C_37
REMARK    7  A    between atoms: C_33  and  C_42
REMARK    8  A    between atoms: C_37  and  C_43
REMARK                            x       y       z     vdW  Elec       q    Type
REMARK                         _______ _______ _______ _____ _____    ______ ____
ROOT
ATOM      1  O   UNL     1      47.889 233.627 357.352  0.00  0.00    +0.000 OA
ATOM      2  O   UNL     1      51.947 233.496 356.228  0.00  0.00    +0.000 OA
ATOM      3  O   UNL     1      45.931 232.632 356.879  0.00  0.00    +0.000 OA
ATOM      4  N   UNL     1      51.811 231.270 355.686  0.00  0.00    +0.000 N 
ATOM      5  N   UNL     1      51.641 227.779 354.878  0.00  0.00    +0.000 NA
ATOM      6  C   UNL     1      51.105 230.085 355.647  0.00  0.00    +0.000 A 
ATOM      7  C   UNL     1      53.188 229.649 354.765  0.00  0.00    +0.000 A 
ATOM      8  C   UNL     1      53.162 231.101 355.142  0.00  0.00    +0.000 C 
ATOM      9  C   UNL     1      49.216 231.213 356.630  0.00  0.00    +0.000 A 
ATOM     10  C   UNL     1      47.815 231.145 357.183  0.00  0.00    +0.000 C 
ATOM     11  C   UNL     1      51.967 229.060 355.069  0.00  0.00    +0.000 A 
ATOM     12  C   UNL     1      49.900 232.373 356.672  0.00  0.00    +0.000 A 
ATOM     13  C   UNL     1      54.193 228.873 354.202  0.00  0.00    +0.000 A 
ATOM     14  C   UNL     1      49.847 230.012 356.094  0.00  0.00    +0.000 A 
ATOM     15  C   UNL     1      51.312 232.448 356.176  0.00  0.00    +0.000 A 
ATOM     16  C   UNL     1      53.902 227.495 353.991  0.00  0.00    +0.000 A 
ATOM     17  C   UNL     1      49.326 233.632 357.219  0.00  0.00    +0.000 C 
ATOM     18  C   UNL     1      52.602 227.008 354.347  0.00  0.00    +0.000 A 
ATOM     19  C   UNL     1      47.138 232.533 357.102  0.00  0.00    +0.000 C 
ATOM     20  C   UNL     1      54.487 225.240 353.277  0.00  0.00    +0.000 A 
ATOM     21  C   UNL     1      54.830 226.580 353.447  0.00  0.00    +0.000 A 
ATOM     22  C   UNL     1      52.298 225.669 354.139  0.00  0.00    +0.000 A 
ATOM     23  C   UNL     1      53.224 224.775 353.600  0.00  0.00    +0.000 A 
ENDROOT
BRANCH  10  24
ATOM     24  O   UNL     1      47.051 230.223 356.392  0.00  0.00    +0.000 OA
ATOM     25  H   UNL     1      46.769 230.716 355.596  0.00  0.00    +0.000 HD
ENDBRANCH  10  24
BRANCH  10  26
ATOM     26  C   UNL     1      47.834 230.654 358.646  0.00  0.00    +0.000 C 
ATOM     27  C   UNL     1      47.264 229.253 358.851  0.00  0.00    +0.000 C 
ENDBRANCH  10  26
BRANCH  13  28
ATOM     28  C   UNL     1      55.529 229.497 353.879  0.00  0.00    +0.000 C 
ATOM     29  C   UNL     1      56.481 229.463 355.065  0.00  0.00    +0.000 C 
ENDBRANCH  13  28
BRANCH  20  30
ATOM     30  O   UNL     1      55.412 224.370 352.697  0.00  0.00    +0.000 OA
BRANCH  30  38
ATOM     31  O   UNL     1      57.183 224.400 354.190  0.00  0.00    +0.000 OA
ATOM     32  N   UNL     1      56.046 222.437 353.793  0.00  0.00    +0.000 N 
ATOM     33  C   UNL     1      56.280 219.538 353.474  0.00  0.00    +0.000 C 
ATOM     34  C   UNL     1      55.471 220.430 352.500  0.00  0.00    +0.000 C 
ATOM     35  C   UNL     1      57.385 220.407 354.127  0.00  0.00    +0.000 C 
ATOM     36  C   UNL     1      54.960 221.708 353.161  0.00  0.00    +0.000 C 
ATOM     37  C   UNL     1      56.830 221.683 354.752  0.00  0.00    +0.000 C 
ATOM     38  C   UNL     1      56.288 223.791 353.610  0.00  0.00    +0.000 C 
BRANCH  33  39
ATOM     39  N   UNL     1      56.851 218.334 352.791  0.00  0.00    +0.000 NA
ATOM     40  C   UNL     1      56.464 218.269 351.365  0.00  0.00    +0.000 C 
ATOM     41  C   UNL     1      58.322 218.265 352.915  0.00  0.00    +0.000 C 
ATOM     42  C   UNL     1      57.012 217.029 350.656  0.00  0.00    +0.000 C 
ATOM     43  C   UNL     1      58.918 217.025 352.244  0.00  0.00    +0.000 C 
ATOM     44  C   UNL     1      58.523 216.939 350.781  0.00  0.00    +0.000 C 
ENDBRANCH  33  39
ENDBRANCH  30  38
ENDBRANCH  20  30
TORSDOF 6
ENDMDL
MODEL 8
REMARK VINA RESULT:      -5.4     25.983     29.666
REMARK  Name = 
REMARK  8 active torsions:
REMARK  status: ('A' for Active; 'I' for Inactive)
REMARK    1  A    between atoms: O_1  and  C_21
REMARK    2  A    between atoms: O_1  and  C_38
REMARK    3  A    between atoms: O_4  and  C_26
REMARK    4  A    between atoms: N_7  and  C_11
REMARK    5  A    between atoms: C_26  and  C_33
REMARK    6  A    between atoms: C_29  and  C_37
REMARK    7  A    between atoms: C_33  and  C_42
REMARK    8  A    between atoms: C_37  and  C_43
REMARK                            x       y       z     vdW  Elec       q    Type
REMARK                         _______ _______ _______ _____ _____    ______ ____
ROOT
ATOM      1  O   UNL     1      54.806 249.849 335.838  0.00  0.00    +0.000 OA
ATOM      2  O   UNL     1      56.347 250.991 332.087  0.00  0.00    +0.000 OA
ATOM      3  O   UNL     1      55.048 248.242 337.390  0.00  0.00    +0.000 OA
ATOM      4  N   UNL     1      58.382 250.030 332.537  0.00  0.00    +0.000 N 
ATOM      5  N   UNL     1      61.588 248.578 333.233  0.00  0.00    +0.000 NA
ATOM      6  C   UNL     1      59.243 249.396 333.409  0.00  0.00    +0.000 A 
ATOM      7  C   UNL     1      60.379 249.656 331.421  0.00  0.00    +0.000 A 
ATOM      8  C   UNL     1      59.011 250.244 331.230  0.00  0.00    +0.000 C 
ATOM      9  C   UNL     1      57.529 249.458 335.101  0.00  0.00    +0.000 A 
ATOM     10  C   UNL     1      57.103 249.178 336.520  0.00  0.00    +0.000 C 
ATOM     11  C   UNL     1      60.504 249.160 332.713  0.00  0.00    +0.000 A 
ATOM     12  C   UNL     1      56.682 250.077 334.254  0.00  0.00    +0.000 A 
ATOM     13  C   UNL     1      61.455 249.556 330.550  0.00  0.00    +0.000 A 
ATOM     14  C   UNL     1      58.872 249.102 334.659  0.00  0.00    +0.000 A 
ATOM     15  C   UNL     1      57.106 250.411 332.857  0.00  0.00    +0.000 A 
ATOM     16  C   UNL     1      62.643 248.956 331.059  0.00  0.00    +0.000 A 
ATOM     17  C   UNL     1      55.304 250.483 334.641  0.00  0.00    +0.000 C 
ATOM     18  C   UNL     1      62.644 248.482 332.412  0.00  0.00    +0.000 A 
ATOM     19  C   UNL     1      55.566 249.034 336.600  0.00  0.00    +0.000 C 
ATOM     20  C   UNL     1      64.957 248.220 330.859  0.00  0.00    +0.000 A 
ATOM     21  C   UNL     1      63.823 248.804 330.299  0.00  0.00    +0.000 A 
ATOM     22  C   UNL     1      63.791 247.887 332.921  0.00  0.00    +0.000 A 
ATOM     23  C   UNL     1      64.951 247.741 332.159  0.00  0.00    +0.000 A 
ENDROOT
BRANCH  10  24
ATOM     24  O   UNL     1      57.695 247.942 336.944  0.00  0.00    +0.000 OA
ATOM     25  H   UNL     1      57.233 247.235 336.450  0.00  0.00    +0.000 HD
ENDBRANCH  10  24
BRANCH  10  26
ATOM     26  C   UNL     1      57.576 250.308 337.460  0.00  0.00    +0.000 C 
ATOM     27  C   UNL     1      56.622 250.615 338.611  0.00  0.00    +0.000 C 
ENDBRANCH  10  26
BRANCH  13  28
ATOM     28  C   UNL     1      61.339 250.102 329.148  0.00  0.00    +0.000 C 
ATOM     29  C   UNL     1      60.817 249.062 328.168  0.00  0.00    +0.000 C 
ENDBRANCH  13  28
BRANCH  20  30
ATOM     30  O   UNL     1      66.094 248.045 330.068  0.00  0.00    +0.000 OA
BRANCH  30  38
ATOM     31  O   UNL     1      65.397 246.581 328.414  0.00  0.00    +0.000 OA
ATOM     32  N   UNL     1      67.040 245.944 329.896  0.00  0.00    +0.000 N 
ATOM     33  C   UNL     1      68.141 243.739 331.474  0.00  0.00    +0.000 C 
ATOM     34  C   UNL     1      67.889 245.151 332.060  0.00  0.00    +0.000 C 
ATOM     35  C   UNL     1      67.169 243.524 330.286  0.00  0.00    +0.000 C 
ATOM     36  C   UNL     1      67.939 246.245 330.998  0.00  0.00    +0.000 C 
ATOM     37  C   UNL     1      67.238 244.654 329.264  0.00  0.00    +0.000 C 
ATOM     38  C   UNL     1      66.116 246.838 329.376  0.00  0.00    +0.000 C 
BRANCH  33  39
ATOM     39  N   UNL     1      67.999 242.667 332.510  0.00  0.00    +0.000 NA
ATOM     40  C   UNL     1      68.527 243.092 333.824  0.00  0.00    +0.000 C 
ATOM     41  C   UNL     1      66.602 242.209 332.653  0.00  0.00    +0.000 C 
ATOM     42  C   UNL     1      68.419 241.998 334.889  0.00  0.00    +0.000 C 
ATOM     43  C   UNL     1      66.445 241.094 333.690  0.00  0.00    +0.000 C 
ATOM     44  C   UNL     1      66.989 241.511 335.044  0.00  0.00    +0.000 C 
ENDBRANCH  33  39
ENDBRANCH  30  38
ENDBRANCH  20  30
TORSDOF 6
ENDMDL
MODEL 9
REMARK VINA RESULT:      -5.4     22.360     25.000
REMARK  Name = 
REMARK  8 active torsions:
REMARK  status: ('A' for Active; 'I' for Inactive)
REMARK    1  A    between atoms: O_1  and  C_21
REMARK    2  A    between atoms: O_1  and  C_38
REMARK    3  A    between atoms: O_4  and  C_26
REMARK    4  A    between atoms: N_7  and  C_11
REMARK    5  A    between atoms: C_26  and  C_33
REMARK    6  A    between atoms: C_29  and  C_37
REMARK    7  A    between atoms: C_33  and  C_42
REMARK    8  A    between atoms: C_37  and  C_43
REMARK                            x       y       z     vdW  Elec       q    Type
REMARK                         _______ _______ _______ _____ _____    ______ ____
ROOT
ATOM      1  O   UNL     1      49.874 216.048 343.458  0.00  0.00    +0.000 OA
ATOM      2  O   UNL     1      49.856 214.847 339.420  0.00  0.00    +0.000 OA
ATOM      3  O   UNL     1      49.760 217.911 344.708  0.00  0.00    +0.000 OA
ATOM      4  N   UNL     1      48.581 216.652 338.802  0.00  0.00    +0.000 N 
ATOM      5  N   UNL     1      46.546 219.436 337.816  0.00  0.00    +0.000 NA
ATOM      6  C   UNL     1      47.841 217.769 339.134  0.00  0.00    +0.000 A 
ATOM      7  C   UNL     1      47.757 217.570 336.840  0.00  0.00    +0.000 A 
ATOM      8  C   UNL     1      48.593 216.433 337.353  0.00  0.00    +0.000 C 
ATOM      9  C   UNL     1      48.341 217.373 341.458  0.00  0.00    +0.000 A 
ATOM     10  C   UNL     1      48.156 217.760 342.903  0.00  0.00    +0.000 C 
ATOM     11  C   UNL     1      47.318 218.350 337.902  0.00  0.00    +0.000 A 
ATOM     12  C   UNL     1      49.064 216.281 341.141  0.00  0.00    +0.000 A 
ATOM     13  C   UNL     1      47.387 217.915 335.547  0.00  0.00    +0.000 A 
ATOM     14  C   UNL     1      47.698 218.153 340.406  0.00  0.00    +0.000 A 
ATOM     15  C   UNL     1      49.215 215.850 339.714  0.00  0.00    +0.000 A 
ATOM     16  C   UNL     1      46.549 219.058 335.400  0.00  0.00    +0.000 A 
ATOM     17  C   UNL     1      49.734 215.430 342.162  0.00  0.00    +0.000 C 
ATOM     18  C   UNL     1      46.165 219.781 336.577  0.00  0.00    +0.000 A 
ATOM     19  C   UNL     1      49.347 217.256 343.750  0.00  0.00    +0.000 C 
ATOM     20  C   UNL     1      45.248 220.637 334.076  0.00  0.00    +0.000 A 
ATOM     21  C   UNL     1      46.075 219.518 334.152  0.00  0.00    +0.000 A 
ATOM     22  C   UNL     1      45.357 220.903 336.450  0.00  0.00    +0.000 A 
ATOM     23  C   UNL     1      44.896 221.348 335.210  0.00  0.00    +0.000 A 
ENDROOT
BRANCH  10  24
ATOM     24  O   UNL     1      48.110 219.191 342.995  0.00  0.00    +0.000 OA
ATOM     25  H   UNL     1      47.167 219.428 343.101  0.00  0.00    +0.000 HD
ENDBRANCH  10  24
BRANCH  10  26
ATOM     26  C   UNL     1      46.836 217.180 343.454  0.00  0.00    +0.000 C 
ATOM     27  C   UNL     1      45.893 218.216 344.060  0.00  0.00    +0.000 C 
ENDBRANCH  10  26
BRANCH  13  28
ATOM     28  C   UNL     1      47.845 217.069 334.384  0.00  0.00    +0.000 C 
ATOM     29  C   UNL     1      49.200 217.510 333.852  0.00  0.00    +0.000 C 
ENDBRANCH  13  28
BRANCH  20  30
ATOM     30  O   UNL     1      44.832 221.091 332.824  0.00  0.00    +0.000 OA
BRANCH  30  38
ATOM     31  O   UNL     1      46.774 222.091 332.054  0.00  0.00    +0.000 OA
ATOM     32  N   UNL     1      44.831 223.317 332.206  0.00  0.00    +0.000 N 
ATOM     33  C   UNL     1      43.669 225.923 332.854  0.00  0.00    +0.000 C 
ATOM     34  C   UNL     1      43.097 224.588 333.394  0.00  0.00    +0.000 C 
ATOM     35  C   UNL     1      45.176 225.722 332.554  0.00  0.00    +0.000 C 
ATOM     36  C   UNL     1      43.406 223.405 332.480  0.00  0.00    +0.000 C 
ATOM     37  C   UNL     1      45.437 224.516 331.658  0.00  0.00    +0.000 C 
ATOM     38  C   UNL     1      45.580 222.158 332.335  0.00  0.00    +0.000 C 
BRANCH  33  39
ATOM     39  N   UNL     1      43.437 227.058 333.803  0.00  0.00    +0.000 NA
ATOM     40  C   UNL     1      44.703 227.590 334.351  0.00  0.00    +0.000 C 
ATOM     41  C   UNL     1      42.657 228.151 333.187  0.00  0.00    +0.000 C 
ATOM     42  C   UNL     1      44.486 228.732 335.348  0.00  0.00    +0.000 C 
ATOM     43  C   UNL     1      42.389 229.308 334.154  0.00  0.00    +0.000 C 
ATOM     44  C   UNL     1      43.679 229.862 334.732  0.00  0.00    +0.000 C 
ENDBRANCH  33  39
ENDBRANCH  30  38
ENDBRANCH  20  30
TORSDOF 6
ENDMDL
