MODEL 1
REMARK VINA RESULT:      -4.9      0.000      0.000
REMARK  Name = 
REMARK  4 active torsions:
REMARK  status: ('A' for Active; 'I' for Inactive)
REMARK    1  A    between atoms: C_1  and  C_6
REMARK    2  A    between atoms: C_1  and  C_7
REMARK    3  A    between atoms: C_9  and  C_14
REMARK    4  A    between atoms: C_11  and  C_15
REMARK                            x       y       z     vdW  Elec       q    Type
REMARK                         _______ _______ _______ _____ _____    ______ ____
ROOT
ATOM      1  C   UNL     1      72.327 222.249 340.007  0.00  0.00    +0.000 C 
ATOM      2  C   UNL     1      70.822 222.420 339.822  0.00  0.00    +0.000 C 
ATOM      3  C   UNL     1      71.348 221.496 340.892  0.00  0.00    +0.000 C 
ATOM      4  C   UNL     1      70.171 221.932 338.608  0.00  0.00    +0.000 C 
ATOM      5  C   UNL     1      71.106 220.021 340.831  0.00  0.00    +0.000 C 
ATOM      6  C   UNL     1      73.157 221.500 338.991  0.00  0.00    +0.000 C 
ATOM      7  C   UNL     1      73.074 223.400 340.637  0.00  0.00    +0.000 C 
ATOM      8  C   UNL     1      69.450 220.818 338.379  0.00  0.00    +0.000 C 
ATOM      9  C   UNL     1      70.284 222.775 337.352  0.00  0.00    +0.000 C 
ATOM     10  C   UNL     1      69.608 219.732 340.746  0.00  0.00    +0.000 C 
ATOM     11  C   UNL     1      69.069 219.683 339.302  0.00  0.00    +0.000 C 
ATOM     12  C   UNL     1      69.023 220.745 336.936  0.00  0.00    +0.000 C 
ATOM     13  C   UNL     1      69.921 221.772 336.257  0.00  0.00    +0.000 C 
ATOM     14  C   UNL     1      69.338 223.973 337.374  0.00  0.00    +0.000 C 
ATOM     15  C   UNL     1      67.544 219.515 339.358  0.00  0.00    +0.000 C 
ENDROOT
TORSDOF 0
ENDMDL
MODEL 2
REMARK VINA RESULT:      -4.7     14.589     15.509
REMARK  Name = 
REMARK  4 active torsions:
REMARK  status: ('A' for Active; 'I' for Inactive)
REMARK    1  A    between atoms: C_1  and  C_6
REMARK    2  A    between atoms: C_1  and  C_7
REMARK    3  A    between atoms: C_9  and  C_14
REMARK    4  A    between atoms: C_11  and  C_15
REMARK                            x       y       z     vdW  Elec       q    Type
REMARK                         _______ _______ _______ _____ _____    ______ ____
ROOT
ATOM      1  C   UNL     1      65.680 227.777 351.035  0.00  0.00    +0.000 C 
ATOM      2  C   UNL     1      65.209 229.225 351.131  0.00  0.00    +0.000 C 
ATOM      3  C   UNL     1      64.830 228.239 352.207  0.00  0.00    +0.000 C 
ATOM      4  C   UNL     1      64.246 229.749 350.166  0.00  0.00    +0.000 C 
ATOM      5  C   UNL     1      63.404 227.846 352.432  0.00  0.00    +0.000 C 
ATOM      6  C   UNL     1      65.100 226.834 350.007  0.00  0.00    +0.000 C 
ATOM      7  C   UNL     1      67.140 227.511 351.312  0.00  0.00    +0.000 C 
ATOM      8  C   UNL     1      62.919 229.959 350.267  0.00  0.00    +0.000 C 
ATOM      9  C   UNL     1      64.757 230.148 348.795  0.00  0.00    +0.000 C 
ATOM     10  C   UNL     1      62.548 229.084 352.696  0.00  0.00    +0.000 C 
ATOM     11  C   UNL     1      61.967 229.717 351.416  0.00  0.00    +0.000 C 
ATOM     12  C   UNL     1      62.361 230.482 348.968  0.00  0.00    +0.000 C 
ATOM     13  C   UNL     1      63.471 230.183 347.968  0.00  0.00    +0.000 C 
ATOM     14  C   UNL     1      65.467 231.499 348.814  0.00  0.00    +0.000 C 
ATOM     15  C   UNL     1      61.241 231.014 351.802  0.00  0.00    +0.000 C 
ENDROOT
TORSDOF 0
ENDMDL
MODEL 3
REMARK VINA RESULT:      -4.6     12.132     14.136
REMARK  Name = 
REMARK  4 active torsions:
REMARK  status: ('A' for Active; 'I' for Inactive)
REMARK    1  A    between atoms: C_1  and  C_6
REMARK    2  A    between atoms: C_1  and  C_7
REMARK    3  A    between atoms: C_9  and  C_14
REMARK    4  A    between atoms: C_11  and  C_15
REMARK                            x       y       z     vdW  Elec       q    Type
REMARK                         _______ _______ _______ _____ _____    ______ ____
ROOT
ATOM      1  C   UNL     1      56.909 215.130 337.399  0.00  0.00    +0.000 C 
ATOM      2  C   UNL     1      58.005 216.192 337.411  0.00  0.00    +0.000 C 
ATOM      3  C   UNL     1      57.644 215.470 338.684  0.00  0.00    +0.000 C 
ATOM      4  C   UNL     1      57.671 217.595 337.176  0.00  0.00    +0.000 C 
ATOM      5  C   UNL     1      57.041 216.197 339.844  0.00  0.00    +0.000 C 
ATOM      6  C   UNL     1      55.455 215.511 337.237  0.00  0.00    +0.000 C 
ATOM      7  C   UNL     1      57.242 213.809 336.749  0.00  0.00    +0.000 C 
ATOM      8  C   UNL     1      57.522 218.622 338.034  0.00  0.00    +0.000 C 
ATOM      9  C   UNL     1      57.439 218.042 335.746  0.00  0.00    +0.000 C 
ATOM     10  C   UNL     1      57.944 217.353 340.274  0.00  0.00    +0.000 C 
ATOM     11  C   UNL     1      57.645 218.676 339.540  0.00  0.00    +0.000 C 
ATOM     12  C   UNL     1      57.130 219.879 337.300  0.00  0.00    +0.000 C 
ATOM     13  C   UNL     1      56.688 219.360 335.937  0.00  0.00    +0.000 C 
ATOM     14  C   UNL     1      58.747 218.231 334.981  0.00  0.00    +0.000 C 
ATOM     15  C   UNL     1      58.694 219.714 339.963  0.00  0.00    +0.000 C 
ENDROOT
TORSDOF 0
ENDMDL
MODEL 4
REMARK VINA RESULT:      -4.5     12.302     14.333
REMARK  Name = 
REMARK  4 active torsions:
REMARK  status: ('A' for Active; 'I' for Inactive)
REMARK    1  A    between atoms: C_1  and  C_6
REMARK    2  A    between atoms: C_1  and  C_7
REMARK    3  A    between atoms: C_9  and  C_14
REMARK    4  A    between atoms: C_11  and  C_15
REMARK                            x       y       z     vdW  Elec       q    Type
REMARK                         _______ _______ _______ _____ _____    ______ ____
ROOT
ATOM      1  C   UNL     1      57.154 216.640 336.202  0.00  0.00    +0.000 C 
ATOM      2  C   UNL     1      56.578 217.127 337.528  0.00  0.00    +0.000 C 
ATOM      3  C   UNL     1      57.264 218.101 336.603  0.00  0.00    +0.000 C 
ATOM      4  C   UNL     1      57.169 216.688 338.790  0.00  0.00    +0.000 C 
ATOM      5  C   UNL     1      58.536 218.783 336.998  0.00  0.00    +0.000 C 
ATOM      6  C   UNL     1      58.391 215.773 336.160  0.00  0.00    +0.000 C 
ATOM      7  C   UNL     1      56.168 216.302 335.109  0.00  0.00    +0.000 C 
ATOM      8  C   UNL     1      58.013 217.311 339.635  0.00  0.00    +0.000 C 
ATOM      9  C   UNL     1      56.813 215.304 339.299  0.00  0.00    +0.000 C 
ATOM     10  C   UNL     1      58.347 219.536 338.314  0.00  0.00    +0.000 C 
ATOM     11  C   UNL     1      58.646 218.682 339.563  0.00  0.00    +0.000 C 
ATOM     12  C   UNL     1      58.367 216.415 340.794  0.00  0.00    +0.000 C 
ATOM     13  C   UNL     1      57.925 215.038 340.315  0.00  0.00    +0.000 C 
ATOM     14  C   UNL     1      55.427 215.262 339.938  0.00  0.00    +0.000 C 
ATOM     15  C   UNL     1      58.298 219.508 340.810  0.00  0.00    +0.000 C 
ENDROOT
TORSDOF 0
ENDMDL
MODEL 5
REMARK VINA RESULT:      -4.4      1.325      3.501
REMARK  Name = 
REMARK  4 active torsions:
REMARK  status: ('A' for Active; 'I' for Inactive)
REMARK    1  A    between atoms: C_1  and  C_6
REMARK    2  A    between atoms: C_1  and  C_7
REMARK    3  A    between atoms: C_9  and  C_14
REMARK    4  A    between atoms: C_11  and  C_15
REMARK                            x       y       z     vdW  Elec       q    Type
REMARK                         _______ _______ _______ _____ _____    ______ ____
ROOT
ATOM      1  C   UNL     1      71.189 219.571 340.839  0.00  0.00    +0.000 C 
ATOM      2  C   UNL     1      71.176 219.967 339.366  0.00  0.00    +0.000 C 
ATOM      3  C   UNL     1      71.706 220.930 340.398  0.00  0.00    +0.000 C 
ATOM      4  C   UNL     1      69.907 220.172 338.671  0.00  0.00    +0.000 C 
ATOM      5  C   UNL     1      71.019 222.232 340.669  0.00  0.00    +0.000 C 
ATOM      6  C   UNL     1      69.906 219.472 341.631  0.00  0.00    +0.000 C 
ATOM      7  C   UNL     1      72.219 218.553 341.266  0.00  0.00    +0.000 C 
ATOM      8  C   UNL     1      69.252 221.303 338.344  0.00  0.00    +0.000 C 
ATOM      9  C   UNL     1      69.142 218.947 338.210  0.00  0.00    +0.000 C 
ATOM     10  C   UNL     1      70.894 223.044 339.381  0.00  0.00    +0.000 C 
ATOM     11  C   UNL     1      69.604 222.753 338.589  0.00  0.00    +0.000 C 
ATOM     12  C   UNL     1      67.946 220.985 337.662  0.00  0.00    +0.000 C 
ATOM     13  C   UNL     1      67.739 219.510 337.981  0.00  0.00    +0.000 C 
ATOM     14  C   UNL     1      69.734 218.342 336.939  0.00  0.00    +0.000 C 
ATOM     15  C   UNL     1      69.660 223.529 337.266  0.00  0.00    +0.000 C 
ENDROOT
TORSDOF 0
ENDMDL
MODEL 6
REMARK VINA RESULT:      -4.4     12.662     15.870
REMARK  Name = 
REMARK  4 active torsions:
REMARK  status: ('A' for Active; 'I' for Inactive)
REMARK    1  A    between atoms: C_1  and  C_6
REMARK    2  A    between atoms: C_1  and  C_7
REMARK    3  A    between atoms: C_9  and  C_14
REMARK    4  A    between atoms: C_11  and  C_15
REMARK                            x       y       z     vdW  Elec       q    Type
REMARK                         _______ _______ _______ _____ _____    ______ ____
ROOT
ATOM      1  C   UNL     1      55.781 217.553 332.710  0.00  0.00    +0.000 C 
ATOM      2  C   UNL     1      56.660 216.890 333.766  0.00  0.00    +0.000 C 
ATOM      3  C   UNL     1      55.411 216.196 333.285  0.00  0.00    +0.000 C 
ATOM      4  C   UNL     1      56.775 217.476 335.100  0.00  0.00    +0.000 C 
ATOM      5  C   UNL     1      54.259 215.947 334.206  0.00  0.00    +0.000 C 
ATOM      6  C   UNL     1      54.945 218.767 333.041  0.00  0.00    +0.000 C 
ATOM      7  C   UNL     1      56.309 217.576 331.296  0.00  0.00    +0.000 C 
ATOM      8  C   UNL     1      56.189 217.140 336.265  0.00  0.00    +0.000 C 
ATOM      9  C   UNL     1      57.695 218.669 335.277  0.00  0.00    +0.000 C 
ATOM     10  C   UNL     1      54.718 215.155 335.429  0.00  0.00    +0.000 C 
ATOM     11  C   UNL     1      55.203 216.042 336.593  0.00  0.00    +0.000 C 
ATOM     12  C   UNL     1      56.603 218.086 337.363  0.00  0.00    +0.000 C 
ATOM     13  C   UNL     1      57.207 219.259 336.600  0.00  0.00    +0.000 C 
ATOM     14  C   UNL     1      59.165 218.260 335.335  0.00  0.00    +0.000 C 
ATOM     15  C   UNL     1      55.753 215.131 337.701  0.00  0.00    +0.000 C 
ENDROOT
TORSDOF 0
ENDMDL
MODEL 7
REMARK VINA RESULT:      -4.2     25.718     27.083
REMARK  Name = 
REMARK  4 active torsions:
REMARK  status: ('A' for Active; 'I' for Inactive)
REMARK    1  A    between atoms: C_1  and  C_6
REMARK    2  A    between atoms: C_1  and  C_7
REMARK    3  A    between atoms: C_9  and  C_14
REMARK    4  A    between atoms: C_11  and  C_15
REMARK                            x       y       z     vdW  Elec       q    Type
REMARK                         _______ _______ _______ _____ _____    ______ ____
ROOT
ATOM      1  C   UNL     1      56.608 241.970 350.239  0.00  0.00    +0.000 C 
ATOM      2  C   UNL     1      55.164 242.107 349.766  0.00  0.00    +0.000 C 
ATOM      3  C   UNL     1      55.633 240.814 350.382  0.00  0.00    +0.000 C 
ATOM      4  C   UNL     1      54.868 242.243 348.341  0.00  0.00    +0.000 C 
ATOM      5  C   UNL     1      55.688 239.550 349.584  0.00  0.00    +0.000 C 
ATOM      6  C   UNL     1      57.748 241.879 349.250  0.00  0.00    +0.000 C 
ATOM      7  C   UNL     1      56.988 242.705 351.502  0.00  0.00    +0.000 C 
ATOM      8  C   UNL     1      54.427 241.342 347.442  0.00  0.00    +0.000 C 
ATOM      9  C   UNL     1      55.066 243.601 347.698  0.00  0.00    +0.000 C 
ATOM     10  C   UNL     1      54.317 239.241 348.984  0.00  0.00    +0.000 C 
ATOM     11  C   UNL     1      54.092 239.876 347.597  0.00  0.00    +0.000 C 
ATOM     12  C   UNL     1      54.314 241.965 346.074  0.00  0.00    +0.000 C 
ATOM     13  C   UNL     1      55.120 243.250 346.211  0.00  0.00    +0.000 C 
ATOM     14  C   UNL     1      53.926 244.565 348.022  0.00  0.00    +0.000 C 
ATOM     15  C   UNL     1      52.645 239.600 347.166  0.00  0.00    +0.000 C 
ENDROOT
TORSDOF 0
ENDMDL
MODEL 8
REMARK VINA RESULT:      -4.1     13.380     16.113
REMARK  Name = 
REMARK  4 active torsions:
REMARK  status: ('A' for Active; 'I' for Inactive)
REMARK    1  A    between atoms: C_1  and  C_6
REMARK    2  A    between atoms: C_1  and  C_7
REMARK    3  A    between atoms: C_9  and  C_14
REMARK    4  A    between atoms: C_11  and  C_15
REMARK                            x       y       z     vdW  Elec       q    Type
REMARK                         _______ _______ _______ _____ _____    ______ ____
ROOT
ATOM      1  C   UNL     1      59.058 223.462 326.237  0.00  0.00    +0.000 C 
ATOM      2  C   UNL     1      60.489 223.184 325.786  0.00  0.00    +0.000 C 
ATOM      3  C   UNL     1      59.883 222.373 326.904  0.00  0.00    +0.000 C 
ATOM      4  C   UNL     1      61.535 224.179 326.009  0.00  0.00    +0.000 C 
ATOM      5  C   UNL     1      60.423 222.447 328.297  0.00  0.00    +0.000 C 
ATOM      6  C   UNL     1      58.710 224.719 326.999  0.00  0.00    +0.000 C 
ATOM      7  C   UNL     1      57.950 223.012 325.315  0.00  0.00    +0.000 C 
ATOM      8  C   UNL     1      62.500 224.251 326.946  0.00  0.00    +0.000 C 
ATOM      9  C   UNL     1      61.609 225.360 325.060  0.00  0.00    +0.000 C 
ATOM     10  C   UNL     1      61.913 222.104 328.307  0.00  0.00    +0.000 C 
ATOM     11  C   UNL     1      62.829 223.326 328.095  0.00  0.00    +0.000 C 
ATOM     12  C   UNL     1      63.317 225.506 326.776  0.00  0.00    +0.000 C 
ATOM     13  C   UNL     1      62.455 226.357 325.852  0.00  0.00    +0.000 C 
ATOM     14  C   UNL     1      62.251 224.990 323.726  0.00  0.00    +0.000 C 
ATOM     15  C   UNL     1      64.280 222.833 327.999  0.00  0.00    +0.000 C 
ENDROOT
TORSDOF 0
ENDMDL
MODEL 9
REMARK VINA RESULT:      -4.1     17.563     20.051
REMARK  Name = 
REMARK  4 active torsions:
REMARK  status: ('A' for Active; 'I' for Inactive)
REMARK    1  A    between atoms: C_1  and  C_6
REMARK    2  A    between atoms: C_1  and  C_7
REMARK    3  A    between atoms: C_9  and  C_14
REMARK    4  A    between atoms: C_11  and  C_15
REMARK                            x       y       z     vdW  Elec       q    Type
REMARK                         _______ _______ _______ _____ _____    ______ ____
ROOT
ATOM      1  C   UNL     1      54.142 218.159 332.020  0.00  0.00    +0.000 C 
ATOM      2  C   UNL     1      53.476 219.079 331.000  0.00  0.00    +0.000 C 
ATOM      3  C   UNL     1      52.718 218.647 332.229  0.00  0.00    +0.000 C 
ATOM      4  C   UNL     1      53.161 218.584 329.662  0.00  0.00    +0.000 C 
ATOM      5  C   UNL     1      51.499 217.785 332.125  0.00  0.00    +0.000 C 
ATOM      6  C   UNL     1      54.404 216.705 331.705  0.00  0.00    +0.000 C 
ATOM      7  C   UNL     1      55.209 218.768 332.897  0.00  0.00    +0.000 C 
ATOM      8  C   UNL     1      51.997 218.168 329.126  0.00  0.00    +0.000 C 
ATOM      9  C   UNL     1      54.287 218.498 328.649  0.00  0.00    +0.000 C 
ATOM     10  C   UNL     1      50.460 218.442 331.216  0.00  0.00    +0.000 C 
ATOM     11  C   UNL     1      50.615 218.065 329.729  0.00  0.00    +0.000 C 
ATOM     12  C   UNL     1      52.197 217.710 327.704  0.00  0.00    +0.000 C 
ATOM     13  C   UNL     1      53.709 217.546 327.603  0.00  0.00    +0.000 C 
ATOM     14  C   UNL     1      54.636 219.862 328.058  0.00  0.00    +0.000 C 
ATOM     15  C   UNL     1      49.603 218.882 328.914  0.00  0.00    +0.000 C 
ENDROOT
TORSDOF 0
ENDMDL
