MODEL 1
REMARK VINA RESULT:      -6.2      0.000      0.000
REMARK  Name = JAK3_Inhibitor.pdbqt.pdb
REMARK  1 active torsions:
REMARK  status: ('A' for Active; 'I' for Inactive)
REMARK    1  A    between atoms: C_7  and  C_20
REMARK                            x       y       z     vdW  Elec       q    Type
REMARK                         _______ _______ _______ _____ _____    ______ ____
ROOT
ATOM      1  O   UNL     1      66.896 218.187 339.589  0.00  0.00    +0.000 OA
ATOM      2  N   UNL     1      68.706 219.185 340.690  0.00  0.00    +0.000 N 
ATOM      3  C   UNL     1      69.488 220.575 339.040  0.00  0.00    +0.000 A 
ATOM      4  C   UNL     1      69.672 220.134 340.353  0.00  0.00    +0.000 A 
ATOM      5  C   UNL     1      68.334 219.848 338.539  0.00  0.00    +0.000 C 
ATOM      6  C   UNL     1      70.328 221.518 338.481  0.00  0.00    +0.000 A 
ATOM      7  C   UNL     1      71.379 222.037 339.256  0.00  0.00    +0.000 A 
ATOM      8  C   UNL     1      67.841 218.950 339.628  0.00  0.00    +0.000 C 
ATOM      9  C   UNL     1      70.687 220.613 341.151  0.00  0.00    +0.000 A 
ATOM     10  C   UNL     1      67.793 219.928 337.365  0.00  0.00    +0.000 C 
ATOM     11  C   UNL     1      71.533 221.568 340.583  0.00  0.00    +0.000 A 
ATOM     12  H   UNL     1      68.625 218.717 341.581  0.00  0.00    +0.000 HD
ATOM     13  N   UNL     1      66.070 219.229 335.754  0.00  0.00    +0.000 N 
ATOM     14  C   UNL     1      67.164 219.980 336.096  0.00  0.00    +0.000 C 
ATOM     15  C   UNL     1      67.503 220.752 335.009  0.00  0.00    +0.000 C 
ATOM     16  C   UNL     1      65.708 219.512 334.463  0.00  0.00    +0.000 C 
ATOM     17  C   UNL     1      66.583 220.456 333.976  0.00  0.00    +0.000 C 
ATOM     18  H   UNL     1      65.603 218.568 336.361  0.00  0.00    +0.000 HD
ENDROOT
BRANCH   7  20
ATOM     19  N   UNL     1      73.057 224.356 336.798  0.00  0.00    +0.000 NA
ATOM     20  C   UNL     1      72.295 223.041 338.704  0.00  0.00    +0.000 A 
ATOM     21  C   UNL     1      73.274 223.662 339.483  0.00  0.00    +0.000 A 
ATOM     22  C   UNL     1      72.246 223.439 337.372  0.00  0.00    +0.000 A 
ATOM     23  C   UNL     1      74.133 224.612 338.942  0.00  0.00    +0.000 A 
ATOM     24  C   UNL     1      73.982 224.921 337.602  0.00  0.00    +0.000 A 
ENDBRANCH   7  20
TORSDOF 1
ENDMDL
MODEL 2
REMARK VINA RESULT:      -5.7      2.031      3.027
REMARK  Name = JAK3_Inhibitor.pdbqt.pdb
REMARK  1 active torsions:
REMARK  status: ('A' for Active; 'I' for Inactive)
REMARK    1  A    between atoms: C_7  and  C_20
REMARK                            x       y       z     vdW  Elec       q    Type
REMARK                         _______ _______ _______ _____ _____    ______ ____
ROOT
ATOM      1  O   UNL     1      70.140 218.709 342.649  0.00  0.00    +0.000 OA
ATOM      2  N   UNL     1      72.026 220.099 342.653  0.00  0.00    +0.000 N 
ATOM      3  C   UNL     1      71.707 221.247 340.692  0.00  0.00    +0.000 A 
ATOM      4  C   UNL     1      72.539 221.078 341.801  0.00  0.00    +0.000 A 
ATOM      5  C   UNL     1      70.612 220.309 340.875  0.00  0.00    +0.000 C 
ATOM      6  C   UNL     1      72.012 222.165 339.707  0.00  0.00    +0.000 A 
ATOM      7  C   UNL     1      73.179 222.938 339.835  0.00  0.00    +0.000 A 
ATOM      8  C   UNL     1      70.839 219.573 342.156  0.00  0.00    +0.000 C 
ATOM      9  C   UNL     1      73.692 221.811 341.972  0.00  0.00    +0.000 A 
ATOM     10  C   UNL     1      69.598 220.110 340.094  0.00  0.00    +0.000 C 
ATOM     11  C   UNL     1      73.996 222.740 340.973  0.00  0.00    +0.000 A 
ATOM     12  H   UNL     1      72.442 219.795 343.521  0.00  0.00    +0.000 HD
ATOM     13  N   UNL     1      67.504 218.929 339.570  0.00  0.00    +0.000 N 
ATOM     14  C   UNL     1      68.470 219.855 339.273  0.00  0.00    +0.000 C 
ATOM     15  C   UNL     1      68.134 220.450 338.080  0.00  0.00    +0.000 C 
ATOM     16  C   UNL     1      66.557 218.927 338.580  0.00  0.00    +0.000 C 
ATOM     17  C   UNL     1      66.924 219.864 337.641  0.00  0.00    +0.000 C 
ATOM     18  H   UNL     1      67.494 218.340 340.392  0.00  0.00    +0.000 HD
ENDROOT
BRANCH   7  20
ATOM     19  N   UNL     1      73.335 224.745 336.526  0.00  0.00    +0.000 NA
ATOM     20  C   UNL     1      73.542 223.926 338.813  0.00  0.00    +0.000 A 
ATOM     21  C   UNL     1      74.411 224.986 339.080  0.00  0.00    +0.000 A 
ATOM     22  C   UNL     1      73.043 223.870 337.515  0.00  0.00    +0.000 A 
ATOM     23  C   UNL     1      74.743 225.913 338.098  0.00  0.00    +0.000 A 
ATOM     24  C   UNL     1      74.180 225.747 336.846  0.00  0.00    +0.000 A 
ENDBRANCH   7  20
TORSDOF 1
ENDMDL
MODEL 3
REMARK VINA RESULT:      -5.7     16.050     18.935
REMARK  Name = JAK3_Inhibitor.pdbqt.pdb
REMARK  1 active torsions:
REMARK  status: ('A' for Active; 'I' for Inactive)
REMARK    1  A    between atoms: C_7  and  C_20
REMARK                            x       y       z     vdW  Elec       q    Type
REMARK                         _______ _______ _______ _____ _____    ______ ____
ROOT
ATOM      1  O   UNL     1      57.311 220.497 323.231  0.00  0.00    +0.000 OA
ATOM      2  N   UNL     1      55.743 219.018 324.149  0.00  0.00    +0.000 N 
ATOM      3  C   UNL     1      55.699 219.748 326.324  0.00  0.00    +0.000 A 
ATOM      4  C   UNL     1      55.182 218.824 325.412  0.00  0.00    +0.000 A 
ATOM      5  C   UNL     1      56.638 220.562 325.571  0.00  0.00    +0.000 C 
ATOM      6  C   UNL     1      55.291 219.750 327.643  0.00  0.00    +0.000 A 
ATOM      7  C   UNL     1      54.340 218.804 328.062  0.00  0.00    +0.000 A 
ATOM      8  C   UNL     1      56.652 220.070 324.159  0.00  0.00    +0.000 C 
ATOM      9  C   UNL     1      54.249 217.879 325.774  0.00  0.00    +0.000 A 
ATOM     10  C   UNL     1      57.360 221.547 326.002  0.00  0.00    +0.000 C 
ATOM     11  C   UNL     1      53.839 217.885 327.110  0.00  0.00    +0.000 A 
ATOM     12  H   UNL     1      55.533 218.480 323.321  0.00  0.00    +0.000 HD
ATOM     13  N   UNL     1      59.022 223.316 325.599  0.00  0.00    +0.000 N 
ATOM     14  C   UNL     1      58.169 222.631 326.425  0.00  0.00    +0.000 C 
ATOM     15  C   UNL     1      58.258 223.188 327.680  0.00  0.00    +0.000 C 
ATOM     16  C   UNL     1      59.654 224.300 326.312  0.00  0.00    +0.000 C 
ATOM     17  C   UNL     1      59.197 224.243 327.608  0.00  0.00    +0.000 C 
ATOM     18  H   UNL     1      59.161 223.122 324.616  0.00  0.00    +0.000 HD
ENDROOT
BRANCH   7  20
ATOM     19  N   UNL     1      52.031 218.694 331.044  0.00  0.00    +0.000 NA
ATOM     20  C   UNL     1      53.877 218.769 329.454  0.00  0.00    +0.000 A 
ATOM     21  C   UNL     1      54.764 218.776 330.533  0.00  0.00    +0.000 A 
ATOM     22  C   UNL     1      52.527 218.727 329.787  0.00  0.00    +0.000 A 
ATOM     23  C   UNL     1      54.306 218.742 331.845  0.00  0.00    +0.000 A 
ATOM     24  C   UNL     1      52.937 218.702 332.044  0.00  0.00    +0.000 A 
ENDBRANCH   7  20
TORSDOF 1
ENDMDL
MODEL 4
REMARK VINA RESULT:      -5.5     14.937     16.597
REMARK  Name = JAK3_Inhibitor.pdbqt.pdb
REMARK  1 active torsions:
REMARK  status: ('A' for Active; 'I' for Inactive)
REMARK    1  A    between atoms: C_7  and  C_20
REMARK                            x       y       z     vdW  Elec       q    Type
REMARK                         _______ _______ _______ _____ _____    ______ ____
ROOT
ATOM      1  O   UNL     1      63.928 223.884 354.873  0.00  0.00    +0.000 OA
ATOM      2  N   UNL     1      65.591 224.792 353.496  0.00  0.00    +0.000 N 
ATOM      3  C   UNL     1      64.378 226.371 352.355  0.00  0.00    +0.000 A 
ATOM      4  C   UNL     1      65.638 225.792 352.524  0.00  0.00    +0.000 A 
ATOM      5  C   UNL     1      63.500 225.680 353.285  0.00  0.00    +0.000 C 
ATOM      6  C   UNL     1      64.178 227.387 351.442  0.00  0.00    +0.000 A 
ATOM      7  C   UNL     1      65.268 227.838 350.678  0.00  0.00    +0.000 A 
ATOM      8  C   UNL     1      64.309 224.658 354.016  0.00  0.00    +0.000 C 
ATOM      9  C   UNL     1      66.736 226.200 351.799  0.00  0.00    +0.000 A 
ATOM     10  C   UNL     1      62.235 225.878 353.479  0.00  0.00    +0.000 C 
ATOM     11  C   UNL     1      66.530 227.229 350.877  0.00  0.00    +0.000 A 
ATOM     12  H   UNL     1      66.371 224.227 353.800  0.00  0.00    +0.000 HD
ATOM     13  N   UNL     1      60.140 225.326 354.644  0.00  0.00    +0.000 N 
ATOM     14  C   UNL     1      60.851 226.057 353.729  0.00  0.00    +0.000 C 
ATOM     15  C   UNL     1      59.988 226.952 353.139  0.00  0.00    +0.000 C 
ATOM     16  C   UNL     1      58.835 225.742 354.643  0.00  0.00    +0.000 C 
ATOM     17  C   UNL     1      58.713 226.752 353.717  0.00  0.00    +0.000 C 
ATOM     18  H   UNL     1      60.521 224.593 355.228  0.00  0.00    +0.000 HD
ENDROOT
BRANCH   7  20
ATOM     19  N   UNL     1      63.642 230.205 348.230  0.00  0.00    +0.000 NA
ATOM     20  C   UNL     1      65.102 228.916 349.696  0.00  0.00    +0.000 A 
ATOM     21  C   UNL     1      66.175 229.697 349.261  0.00  0.00    +0.000 A 
ATOM     22  C   UNL     1      63.866 229.228 349.137  0.00  0.00    +0.000 A 
ATOM     23  C   UNL     1      65.998 230.714 348.330  0.00  0.00    +0.000 A 
ATOM     24  C   UNL     1      64.718 230.925 347.849  0.00  0.00    +0.000 A 
ENDBRANCH   7  20
TORSDOF 1
ENDMDL
MODEL 5
REMARK VINA RESULT:      -5.5     19.308     21.523
REMARK  Name = JAK3_Inhibitor.pdbqt.pdb
REMARK  1 active torsions:
REMARK  status: ('A' for Active; 'I' for Inactive)
REMARK    1  A    between atoms: C_7  and  C_20
REMARK                            x       y       z     vdW  Elec       q    Type
REMARK                         _______ _______ _______ _____ _____    ______ ____
ROOT
ATOM      1  O   UNL     1      68.229 239.655 332.418  0.00  0.00    +0.000 OA
ATOM      2  N   UNL     1      67.984 239.042 334.666  0.00  0.00    +0.000 N 
ATOM      3  C   UNL     1      66.639 240.740 335.422  0.00  0.00    +0.000 A 
ATOM      4  C   UNL     1      67.315 239.569 335.771  0.00  0.00    +0.000 A 
ATOM      5  C   UNL     1      66.912 240.946 334.009  0.00  0.00    +0.000 C 
ATOM      6  C   UNL     1      65.904 241.443 336.355  0.00  0.00    +0.000 A 
ATOM      7  C   UNL     1      65.841 240.962 337.674  0.00  0.00    +0.000 A 
ATOM      8  C   UNL     1      67.788 239.830 333.538  0.00  0.00    +0.000 C 
ATOM      9  C   UNL     1      67.283 239.057 337.049  0.00  0.00    +0.000 A 
ATOM     10  C   UNL     1      66.495 241.910 333.252  0.00  0.00    +0.000 C 
ATOM     11  C   UNL     1      66.537 239.771 337.990  0.00  0.00    +0.000 A 
ATOM     12  H   UNL     1      68.542 238.200 334.660  0.00  0.00    +0.000 HD
ATOM     13  N   UNL     1      66.402 243.015 331.055  0.00  0.00    +0.000 N 
ATOM     14  C   UNL     1      66.063 242.942 332.381  0.00  0.00    +0.000 C 
ATOM     15  C   UNL     1      65.262 244.022 332.673  0.00  0.00    +0.000 C 
ATOM     16  C   UNL     1      65.827 244.126 330.499  0.00  0.00    +0.000 C 
ATOM     17  C   UNL     1      65.113 244.771 331.482  0.00  0.00    +0.000 C 
ATOM     18  H   UNL     1      66.986 242.349 330.566  0.00  0.00    +0.000 HD
ENDROOT
BRANCH   7  20
ATOM     19  N   UNL     1      63.114 241.785 340.149  0.00  0.00    +0.000 NA
ATOM     20  C   UNL     1      65.071 241.676 338.699  0.00  0.00    +0.000 A 
ATOM     21  C   UNL     1      65.494 242.896 339.231  0.00  0.00    +0.000 A 
ATOM     22  C   UNL     1      63.873 241.182 339.207  0.00  0.00    +0.000 A 
ATOM     23  C   UNL     1      64.751 243.557 340.202  0.00  0.00    +0.000 A 
ATOM     24  C   UNL     1      63.576 242.961 340.624  0.00  0.00    +0.000 A 
ENDBRANCH   7  20
TORSDOF 1
ENDMDL
MODEL 6
REMARK VINA RESULT:      -5.4     29.466     31.076
REMARK  Name = JAK3_Inhibitor.pdbqt.pdb
REMARK  1 active torsions:
REMARK  status: ('A' for Active; 'I' for Inactive)
REMARK    1  A    between atoms: C_7  and  C_20
REMARK                            x       y       z     vdW  Elec       q    Type
REMARK                         _______ _______ _______ _____ _____    ______ ____
ROOT
ATOM      1  O   UNL     1      44.865 239.733 326.502  0.00  0.00    +0.000 OA
ATOM      2  N   UNL     1      45.955 241.718 327.101  0.00  0.00    +0.000 N 
ATOM      3  C   UNL     1      48.102 241.233 326.455  0.00  0.00    +0.000 A 
ATOM      4  C   UNL     1      47.265 242.193 327.028  0.00  0.00    +0.000 A 
ATOM      5  C   UNL     1      47.249 240.094 326.158  0.00  0.00    +0.000 C 
ATOM      6  C   UNL     1      49.449 241.477 326.279  0.00  0.00    +0.000 A 
ATOM      7  C   UNL     1      49.975 242.716 326.685  0.00  0.00    +0.000 A 
ATOM      8  C   UNL     1      45.857 240.431 326.587  0.00  0.00    +0.000 C 
ATOM      9  C   UNL     1      47.732 243.421 327.441  0.00  0.00    +0.000 A 
ATOM     10  C   UNL     1      47.589 238.966 325.621  0.00  0.00    +0.000 C 
ATOM     11  C   UNL     1      49.096 243.664 327.260  0.00  0.00    +0.000 A 
ATOM     12  H   UNL     1      45.164 242.224 327.474  0.00  0.00    +0.000 HD
ATOM     13  N   UNL     1      46.996 236.719 324.812  0.00  0.00    +0.000 N 
ATOM     14  C   UNL     1      47.910 237.715 325.035  0.00  0.00    +0.000 C 
ATOM     15  C   UNL     1      49.136 237.271 324.595  0.00  0.00    +0.000 C 
ATOM     16  C   UNL     1      47.623 235.646 324.237  0.00  0.00    +0.000 C 
ATOM     17  C   UNL     1      48.954 235.962 324.091  0.00  0.00    +0.000 C 
ATOM     18  H   UNL     1      46.012 236.770 325.038  0.00  0.00    +0.000 HD
ENDROOT
BRANCH   7  20
ATOM     19  N   UNL     1      53.578 243.463 327.518  0.00  0.00    +0.000 NA
ATOM     20  C   UNL     1      51.400 243.019 326.516  0.00  0.00    +0.000 A 
ATOM     21  C   UNL     1      51.986 243.163 325.257  0.00  0.00    +0.000 A 
ATOM     22  C   UNL     1      52.258 243.183 327.600  0.00  0.00    +0.000 A 
ATOM     23  C   UNL     1      53.339 243.451 325.118  0.00  0.00    +0.000 A 
ATOM     24  C   UNL     1      54.086 243.589 326.274  0.00  0.00    +0.000 A 
ENDBRANCH   7  20
TORSDOF 1
ENDMDL
MODEL 7
REMARK VINA RESULT:      -5.2     20.524     22.063
REMARK  Name = JAK3_Inhibitor.pdbqt.pdb
REMARK  1 active torsions:
REMARK  status: ('A' for Active; 'I' for Inactive)
REMARK    1  A    between atoms: C_7  and  C_20
REMARK                            x       y       z     vdW  Elec       q    Type
REMARK                         _______ _______ _______ _____ _____    ______ ____
ROOT
ATOM      1  O   UNL     1      52.222 227.772 353.752  0.00  0.00    +0.000 OA
ATOM      2  N   UNL     1      53.914 226.241 353.222  0.00  0.00    +0.000 N 
ATOM      3  C   UNL     1      55.776 227.544 353.538  0.00  0.00    +0.000 A 
ATOM      4  C   UNL     1      55.308 226.278 353.177  0.00  0.00    +0.000 A 
ATOM      5  C   UNL     1      54.590 228.335 353.824  0.00  0.00    +0.000 C 
ATOM      6  C   UNL     1      57.128 227.822 353.565  0.00  0.00    +0.000 A 
ATOM      7  C   UNL     1      58.038 226.807 353.223  0.00  0.00    +0.000 A 
ATOM      8  C   UNL     1      53.391 227.468 353.613  0.00  0.00    +0.000 C 
ATOM      9  C   UNL     1      56.160 225.252 352.834  0.00  0.00    +0.000 A 
ATOM     10  C   UNL     1      54.533 229.574 354.197  0.00  0.00    +0.000 C 
ATOM     11  C   UNL     1      57.527 225.537 352.864  0.00  0.00    +0.000 A 
ATOM     12  H   UNL     1      53.338 225.440 353.007  0.00  0.00    +0.000 HD
ATOM     13  N   UNL     1      53.221 231.552 354.843  0.00  0.00    +0.000 N 
ATOM     14  C   UNL     1      54.417 230.926 354.608  0.00  0.00    +0.000 C 
ATOM     15  C   UNL     1      55.424 231.834 354.841  0.00  0.00    +0.000 C 
ATOM     16  C   UNL     1      53.453 232.848 355.222  0.00  0.00    +0.000 C 
ATOM     17  C   UNL     1      54.814 233.049 355.229  0.00  0.00    +0.000 C 
ATOM     18  H   UNL     1      52.310 231.123 354.750  0.00  0.00    +0.000 HD
ENDROOT
BRANCH   7  20
ATOM     19  N   UNL     1      61.347 228.585 352.867  0.00  0.00    +0.000 NA
ATOM     20  C   UNL     1      59.484 227.057 353.239  0.00  0.00    +0.000 A 
ATOM     21  C   UNL     1      60.404 226.078 353.619  0.00  0.00    +0.000 A 
ATOM     22  C   UNL     1      60.029 228.285 352.876  0.00  0.00    +0.000 A 
ATOM     23  C   UNL     1      61.770 226.335 353.628  0.00  0.00    +0.000 A 
ATOM     24  C   UNL     1      62.186 227.597 353.245  0.00  0.00    +0.000 A 
ENDBRANCH   7  20
TORSDOF 1
ENDMDL
MODEL 8
REMARK VINA RESULT:      -4.9      3.592      5.428
REMARK  Name = JAK3_Inhibitor.pdbqt.pdb
REMARK  1 active torsions:
REMARK  status: ('A' for Active; 'I' for Inactive)
REMARK    1  A    between atoms: C_7  and  C_20
REMARK                            x       y       z     vdW  Elec       q    Type
REMARK                         _______ _______ _______ _____ _____    ______ ____
ROOT
ATOM      1  O   UNL     1      71.188 217.122 344.848  0.00  0.00    +0.000 OA
ATOM      2  N   UNL     1      72.078 219.066 343.890  0.00  0.00    +0.000 N 
ATOM      3  C   UNL     1      70.705 219.304 342.067  0.00  0.00    +0.000 A 
ATOM      4  C   UNL     1      71.789 219.841 342.766  0.00  0.00    +0.000 A 
ATOM      5  C   UNL     1      70.304 218.121 342.811  0.00  0.00    +0.000 C 
ATOM      6  C   UNL     1      70.236 219.901 340.915  0.00  0.00    +0.000 A 
ATOM      7  C   UNL     1      70.864 221.069 340.449  0.00  0.00    +0.000 A 
ATOM      8  C   UNL     1      71.209 217.985 343.992  0.00  0.00    +0.000 C 
ATOM      9  C   UNL     1      72.437 220.982 342.350  0.00  0.00    +0.000 A 
ATOM     10  C   UNL     1      69.341 217.300 342.537  0.00  0.00    +0.000 C 
ATOM     11  C   UNL     1      71.958 221.584 341.184  0.00  0.00    +0.000 A 
ATOM     12  H   UNL     1      72.815 219.245 344.557  0.00  0.00    +0.000 HD
ATOM     13  N   UNL     1      68.029 215.289 343.075  0.00  0.00    +0.000 N 
ATOM     14  C   UNL     1      68.298 216.374 342.282  0.00  0.00    +0.000 C 
ATOM     15  C   UNL     1      67.395 216.374 341.245  0.00  0.00    +0.000 C 
ATOM     16  C   UNL     1      66.967 214.598 342.556  0.00  0.00    +0.000 C 
ATOM     17  C   UNL     1      66.553 215.250 341.418  0.00  0.00    +0.000 C 
ATOM     18  H   UNL     1      68.538 215.039 343.913  0.00  0.00    +0.000 HD
ENDROOT
BRANCH   7  20
ATOM     19  N   UNL     1      70.031 221.679 336.820  0.00  0.00    +0.000 NA
ATOM     20  C   UNL     1      70.399 221.738 339.229  0.00  0.00    +0.000 A 
ATOM     21  C   UNL     1      69.882 223.035 339.244  0.00  0.00    +0.000 A 
ATOM     22  C   UNL     1      70.442 221.123 337.981  0.00  0.00    +0.000 A 
ATOM     23  C   UNL     1      69.445 223.653 338.077  0.00  0.00    +0.000 A 
ATOM     24  C   UNL     1      69.541 222.934 336.899  0.00  0.00    +0.000 A 
ENDBRANCH   7  20
TORSDOF 1
ENDMDL
MODEL 9
REMARK VINA RESULT:      -4.8      4.053      6.010
REMARK  Name = JAK3_Inhibitor.pdbqt.pdb
REMARK  1 active torsions:
REMARK  status: ('A' for Active; 'I' for Inactive)
REMARK    1  A    between atoms: C_7  and  C_20
REMARK                            x       y       z     vdW  Elec       q    Type
REMARK                         _______ _______ _______ _____ _____    ______ ____
ROOT
ATOM      1  O   UNL     1      68.768 217.452 340.166  0.00  0.00    +0.000 OA
ATOM      2  N   UNL     1      69.793 216.998 342.223  0.00  0.00    +0.000 N 
ATOM      3  C   UNL     1      70.809 219.011 342.642  0.00  0.00    +0.000 A 
ATOM      4  C   UNL     1      70.589 217.716 343.116  0.00  0.00    +0.000 A 
ATOM      5  C   UNL     1      70.102 219.093 341.375  0.00  0.00    +0.000 C 
ATOM      6  C   UNL     1      71.573 219.911 343.359  0.00  0.00    +0.000 A 
ATOM      7  C   UNL     1      72.131 219.506 344.583  0.00  0.00    +0.000 A 
ATOM      8  C   UNL     1      69.448 217.773 341.122  0.00  0.00    +0.000 C 
ATOM      9  C   UNL     1      71.113 217.273 344.310  0.00  0.00    +0.000 A 
ATOM     10  C   UNL     1      70.024 220.106 340.572  0.00  0.00    +0.000 C 
ATOM     11  C   UNL     1      71.885 218.186 345.032  0.00  0.00    +0.000 A 
ATOM     12  H   UNL     1      69.492 216.040 342.339  0.00  0.00    +0.000 HD
ATOM     13  N   UNL     1      69.203 221.124 338.488  0.00  0.00    +0.000 N 
ATOM     14  C   UNL     1      69.908 221.186 339.661  0.00  0.00    +0.000 C 
ATOM     15  C   UNL     1      70.449 222.447 339.763  0.00  0.00    +0.000 C 
ATOM     16  C   UNL     1      69.288 222.328 337.841  0.00  0.00    +0.000 C 
ATOM     17  C   UNL     1      70.057 223.169 338.611  0.00  0.00    +0.000 C 
ATOM     18  H   UNL     1      68.698 220.313 338.154  0.00  0.00    +0.000 HD
ENDROOT
BRANCH   7  20
ATOM     19  N   UNL     1      73.286 221.674 347.448  0.00  0.00    +0.000 NA
ATOM     20  C   UNL     1      72.948 220.429 345.379  0.00  0.00    +0.000 A 
ATOM     21  C   UNL     1      74.146 220.963 344.900  0.00  0.00    +0.000 A 
ATOM     22  C   UNL     1      72.583 220.829 346.661  0.00  0.00    +0.000 A 
ATOM     23  C   UNL     1      74.907 221.836 345.669  0.00  0.00    +0.000 A 
ATOM     24  C   UNL     1      74.435 222.156 346.929  0.00  0.00    +0.000 A 
ENDBRANCH   7  20
TORSDOF 1
ENDMDL
