MODEL 1
REMARK VINA RESULT:      -4.3      0.000      0.000
REMARK  Name = Leptomycin.pdbqt.pdb
REMARK  12 active torsions:
REMARK  status: ('A' for Active; 'I' for Inactive)
REMARK    1  A    between atoms: C_2  and  C_4
REMARK    2  A    between atoms: C_5  and  C_6
REMARK    3  A    between atoms: C_6  and  C_7
REMARK    4  A    between atoms: C_10  and  C_11
REMARK    5  A    between atoms: C_10  and  C_21
REMARK    6  A    between atoms: C_12  and  C_13
REMARK    7  A    between atoms: C_23  and  C_25
REMARK    8  A    between atoms: C_25  and  C_27
REMARK    9  A    between atoms: C_27  and  C_29
REMARK   10  A    between atoms: C_29  and  O_30
REMARK   11  A    between atoms: C_29  and  C_32
REMARK   12  A    between atoms: C_38  and  O_40
REMARK                            x       y       z     vdW  Elec       q    Type
REMARK                         _______ _______ _______ _____ _____    ______ ____
ROOT
ATOM      1  C   UNL     1      68.546 217.091 338.240  0.00  0.00    +0.000 C 
ATOM      2  C   UNL     1      69.777 216.938 337.874  0.00  0.00    +0.000 C 
ATOM      3  C   UNL     1      70.634 215.957 338.620  0.00  0.00    +0.000 C 
ATOM      4  C   UNL     1      67.177 217.262 338.566  0.00  0.00    +0.000 C 
ATOM      5  C   UNL     1      66.903 218.181 339.746  0.00  0.00    +0.000 C 
ENDROOT
BRANCH   2   6
ATOM      6  C   UNL     1      70.144 217.289 336.551  0.00  0.00    +0.000 C 
ATOM      7  C   UNL     1      70.494 217.633 335.455  0.00  0.00    +0.000 C 
BRANCH   7   8
ATOM      8  C   UNL     1      71.008 218.162 334.112  0.00  0.00    +0.000 C 
BRANCH   8   9
ATOM      9  C   UNL     1      71.454 218.834 332.948  0.00  0.00    +0.000 C 
ATOM     10  C   UNL     1      71.343 218.158 331.617  0.00  0.00    +0.000 C 
ATOM     11  C   UNL     1      72.104 220.090 333.030  0.00  0.00    +0.000 C 
ATOM     12  C   UNL     1      72.687 221.218 333.300  0.00  0.00    +0.000 C 
BRANCH  12  13
ATOM     13  C   UNL     1      72.847 221.512 334.681  0.00  0.00    +0.000 C 
ATOM     14  C   UNL     1      73.024 221.631 335.862  0.00  0.00    +0.000 C 
BRANCH  14  15
ATOM     15  C   UNL     1      73.282 221.641 337.257  0.00  0.00    +0.000 A 
ATOM     16  O   UNL     1      73.518 222.947 337.865  0.00  0.00    +0.000 OA
ATOM     17  C   UNL     1      73.750 223.098 339.230  0.00  0.00    +0.000 A 
ATOM     18  O   UNL     1      73.917 224.169 339.793  0.00  0.00    +0.000 OA
ATOM     19  C   UNL     1      73.746 221.837 339.911  0.00  0.00    +0.000 A 
ATOM     20  C   UNL     1      73.566 220.747 339.460  0.00  0.00    +0.000 A 
ATOM     21  C   UNL     1      73.307 220.444 338.104  0.00  0.00    +0.000 A 
ATOM     22  C   UNL     1      73.048 219.038 337.662  0.00  0.00    +0.000 C 
ENDBRANCH  14  15
ENDBRANCH  12  13
BRANCH  12  23
ATOM     23  C   UNL     1      73.129 222.042 332.235  0.00  0.00    +0.000 C 
ATOM     24  C   UNL     1      73.609 222.927 331.079  0.00  0.00    +0.000 C 
ENDBRANCH  12  23
ENDBRANCH   8   9
ENDBRANCH   7   8
ENDBRANCH   2   6
BRANCH   4  25
ATOM     25  C   UNL     1      66.145 217.039 337.505  0.00  0.00    +0.000 C 
ATOM     26  O   UNL     1      65.147 216.336 337.692  0.00  0.00    +0.000 OA
BRANCH  25  27
ATOM     27  C   UNL     1      66.400 217.660 336.170  0.00  0.00    +0.000 C 
ATOM     28  C   UNL     1      66.844 216.782 335.003  0.00  0.00    +0.000 C 
BRANCH  27  29
ATOM     29  C   UNL     1      66.504 219.113 336.085  0.00  0.00    +0.000 C 
BRANCH  29  30
ATOM     30  C   UNL     1      67.667 219.920 335.760  0.00  0.00    +0.000 C 
ATOM     31  C   UNL     1      68.006 220.227 334.318  0.00  0.00    +0.000 C 
ATOM     32  C   UNL     1      68.439 220.608 336.725  0.00  0.00    +0.000 C 
ATOM     33  C   UNL     1      69.256 221.305 337.640  0.00  0.00    +0.000 C 
ATOM     34  C   UNL     1      69.630 220.637 338.927  0.00  0.00    +0.000 C 
ATOM     35  C   UNL     1      69.574 222.534 337.422  0.00  0.00    +0.000 C 
ATOM     36  C   UNL     1      69.899 223.896 337.171  0.00  0.00    +0.000 C 
ATOM     37  O   UNL     1      69.057 224.766 337.057  0.00  0.00    +0.000 OA
BRANCH  36  38
ATOM     38  O   UNL     1      71.215 224.131 337.050  0.00  0.00    +0.000 OA
ATOM     39  H   UNL     1      71.367 224.946 337.572  0.00  0.00    +0.000 HD
ENDBRANCH  36  38
ENDBRANCH  29  30
BRANCH  29  40
ATOM     40  O   UNL     1      65.320 219.820 336.308  0.00  0.00    +0.000 OA
ATOM     41  H   UNL     1      65.489 220.714 336.669  0.00  0.00    +0.000 HD
ENDBRANCH  29  40
ENDBRANCH  27  29
ENDBRANCH  25  27
ENDBRANCH   4  25
TORSDOF 12
ENDMDL
MODEL 2
REMARK VINA RESULT:      -4.2     30.791     33.582
REMARK  Name = Leptomycin.pdbqt.pdb
REMARK  12 active torsions:
REMARK  status: ('A' for Active; 'I' for Inactive)
REMARK    1  A    between atoms: C_2  and  C_4
REMARK    2  A    between atoms: C_5  and  C_6
REMARK    3  A    between atoms: C_6  and  C_7
REMARK    4  A    between atoms: C_10  and  C_11
REMARK    5  A    between atoms: C_10  and  C_21
REMARK    6  A    between atoms: C_12  and  C_13
REMARK    7  A    between atoms: C_23  and  C_25
REMARK    8  A    between atoms: C_25  and  C_27
REMARK    9  A    between atoms: C_27  and  C_29
REMARK   10  A    between atoms: C_29  and  O_30
REMARK   11  A    between atoms: C_29  and  C_32
REMARK   12  A    between atoms: C_38  and  O_40
REMARK                            x       y       z     vdW  Elec       q    Type
REMARK                         _______ _______ _______ _____ _____    ______ ____
ROOT
ATOM      1  C   UNL     1      53.589 249.505 327.993  0.00  0.00    +0.000 C 
ATOM      2  C   UNL     1      54.870 249.531 327.818  0.00  0.00    +0.000 C 
ATOM      3  C   UNL     1      55.759 249.054 328.929  0.00  0.00    +0.000 C 
ATOM      4  C   UNL     1      52.177 249.452 328.112  0.00  0.00    +0.000 C 
ATOM      5  C   UNL     1      51.549 250.604 328.880  0.00  0.00    +0.000 C 
ENDROOT
BRANCH   2   6
ATOM      6  C   UNL     1      55.378 249.528 326.495  0.00  0.00    +0.000 C 
ATOM      7  C   UNL     1      55.804 249.459 325.374  0.00  0.00    +0.000 C 
BRANCH   7   8
ATOM      8  C   UNL     1      56.339 249.247 323.955  0.00  0.00    +0.000 C 
BRANCH   8   9
ATOM      9  C   UNL     1      56.942 248.899 322.721  0.00  0.00    +0.000 C 
ATOM     10  C   UNL     1      57.656 249.949 321.927  0.00  0.00    +0.000 C 
ATOM     11  C   UNL     1      56.789 247.604 322.168  0.00  0.00    +0.000 C 
ATOM     12  C   UNL     1      56.529 246.382 321.815  0.00  0.00    +0.000 C 
BRANCH  12  13
ATOM     13  C   UNL     1      55.637 245.673 322.663  0.00  0.00    +0.000 C 
ATOM     14  C   UNL     1      54.828 245.022 323.265  0.00  0.00    +0.000 C 
BRANCH  14  15
ATOM     15  C   UNL     1      53.833 244.200 323.855  0.00  0.00    +0.000 A 
ATOM     16  O   UNL     1      54.023 243.855 325.260  0.00  0.00    +0.000 OA
ATOM     17  C   UNL     1      53.102 243.084 325.964  0.00  0.00    +0.000 A 
ATOM     18  O   UNL     1      53.196 242.797 327.148  0.00  0.00    +0.000 OA
ATOM     19  C   UNL     1      52.005 242.678 325.136  0.00  0.00    +0.000 A 
ATOM     20  C   UNL     1      51.808 242.928 323.985  0.00  0.00    +0.000 A 
ATOM     21  C   UNL     1      52.644 243.705 323.152  0.00  0.00    +0.000 A 
ATOM     22  C   UNL     1      52.269 243.991 321.732  0.00  0.00    +0.000 C 
ENDBRANCH  14  15
ENDBRANCH  12  13
BRANCH  12  23
ATOM     23  C   UNL     1      57.117 245.863 320.635  0.00  0.00    +0.000 C 
ATOM     24  C   UNL     1      57.751 245.294 319.360  0.00  0.00    +0.000 C 
ENDBRANCH  12  23
ENDBRANCH   8   9
ENDBRANCH   7   8
ENDBRANCH   2   6
BRANCH   4  25
ATOM     25  C   UNL     1      51.392 248.681 327.098  0.00  0.00    +0.000 C 
ATOM     26  O   UNL     1      50.297 249.069 326.677  0.00  0.00    +0.000 OA
BRANCH  25  27
ATOM     27  C   UNL     1      51.961 247.375 326.649  0.00  0.00    +0.000 C 
ATOM     28  C   UNL     1      52.397 247.203 325.195  0.00  0.00    +0.000 C 
BRANCH  27  29
ATOM     29  C   UNL     1      51.816 246.214 327.521  0.00  0.00    +0.000 C 
BRANCH  29  30
ATOM     30  C   UNL     1      50.600 245.637 328.065  0.00  0.00    +0.000 C 
ATOM     31  C   UNL     1      49.737 244.729 327.215  0.00  0.00    +0.000 C 
ATOM     32  C   UNL     1      50.232 245.721 329.428  0.00  0.00    +0.000 C 
ATOM     33  C   UNL     1      49.805 245.783 330.771  0.00  0.00    +0.000 C 
ATOM     34  C   UNL     1      49.956 247.072 331.517  0.00  0.00    +0.000 C 
ATOM     35  C   UNL     1      49.403 244.718 331.375  0.00  0.00    +0.000 C 
ATOM     36  C   UNL     1      48.978 243.528 332.028  0.00  0.00    +0.000 C 
ATOM     37  O   UNL     1      49.698 242.556 332.163  0.00  0.00    +0.000 OA
BRANCH  36  38
ATOM     38  O   UNL     1      47.709 243.564 332.462  0.00  0.00    +0.000 OA
ATOM     39  H   UNL     1      47.742 244.118 333.269  0.00  0.00    +0.000 HD
ENDBRANCH  36  38
ENDBRANCH  29  30
BRANCH  29  40
ATOM     40  O   UNL     1      53.000 245.547 327.843  0.00  0.00    +0.000 OA
ATOM     41  H   UNL     1      52.941 245.093 328.709  0.00  0.00    +0.000 HD
ENDBRANCH  29  40
ENDBRANCH  27  29
ENDBRANCH  25  27
ENDBRANCH   4  25
TORSDOF 12
ENDMDL
MODEL 3
REMARK VINA RESULT:      -3.8     28.893     31.891
REMARK  Name = Leptomycin.pdbqt.pdb
REMARK  12 active torsions:
REMARK  status: ('A' for Active; 'I' for Inactive)
REMARK    1  A    between atoms: C_2  and  C_4
REMARK    2  A    between atoms: C_5  and  C_6
REMARK    3  A    between atoms: C_6  and  C_7
REMARK    4  A    between atoms: C_10  and  C_11
REMARK    5  A    between atoms: C_10  and  C_21
REMARK    6  A    between atoms: C_12  and  C_13
REMARK    7  A    between atoms: C_23  and  C_25
REMARK    8  A    between atoms: C_25  and  C_27
REMARK    9  A    between atoms: C_27  and  C_29
REMARK   10  A    between atoms: C_29  and  O_30
REMARK   11  A    between atoms: C_29  and  C_32
REMARK   12  A    between atoms: C_38  and  O_40
REMARK                            x       y       z     vdW  Elec       q    Type
REMARK                         _______ _______ _______ _____ _____    ______ ____
ROOT
ATOM      1  C   UNL     1      46.856 239.006 325.252  0.00  0.00    +0.000 C 
ATOM      2  C   UNL     1      47.400 239.446 326.340  0.00  0.00    +0.000 C 
ATOM      3  C   UNL     1      47.056 238.778 327.640  0.00  0.00    +0.000 C 
ATOM      4  C   UNL     1      46.328 238.532 324.024  0.00  0.00    +0.000 C 
ATOM      5  C   UNL     1      44.921 239.008 323.700  0.00  0.00    +0.000 C 
ENDROOT
BRANCH   2   6
ATOM      6  C   UNL     1      48.616 240.168 326.251  0.00  0.00    +0.000 C 
ATOM      7  C   UNL     1      49.620 240.827 326.211  0.00  0.00    +0.000 C 
BRANCH   7   8
ATOM      8  C   UNL     1      50.837 241.756 326.226  0.00  0.00    +0.000 C 
BRANCH   8   9
ATOM      9  C   UNL     1      51.891 242.688 326.067  0.00  0.00    +0.000 C 
ATOM     10  C   UNL     1      52.347 243.496 327.242  0.00  0.00    +0.000 C 
ATOM     11  C   UNL     1      52.451 242.953 324.793  0.00  0.00    +0.000 C 
ATOM     12  C   UNL     1      52.825 243.074 323.556  0.00  0.00    +0.000 C 
BRANCH  12  13
ATOM     13  C   UNL     1      52.064 242.337 322.609  0.00  0.00    +0.000 C 
ATOM     14  C   UNL     1      51.541 241.686 321.746  0.00  0.00    +0.000 C 
BRANCH  14  15
ATOM     15  C   UNL     1      51.049 240.889 320.681  0.00  0.00    +0.000 A 
ATOM     16  O   UNL     1      49.657 241.101 320.299  0.00  0.00    +0.000 OA
ATOM     17  C   UNL     1      49.063 240.407 319.248  0.00  0.00    +0.000 A 
ATOM     18  O   UNL     1      47.915 240.572 318.865  0.00  0.00    +0.000 OA
ATOM     19  C   UNL     1      49.974 239.481 318.642  0.00  0.00    +0.000 A 
ATOM     20  C   UNL     1      51.115 239.267 318.920  0.00  0.00    +0.000 A 
ATOM     21  C   UNL     1      51.849 239.901 319.948  0.00  0.00    +0.000 A 
ATOM     22  C   UNL     1      53.293 239.584 320.174  0.00  0.00    +0.000 C 
ENDBRANCH  14  15
ENDBRANCH  12  13
BRANCH  12  23
ATOM     23  C   UNL     1      53.917 243.921 323.242  0.00  0.00    +0.000 C 
ATOM     24  C   UNL     1      55.094 244.843 322.900  0.00  0.00    +0.000 C 
ENDBRANCH  12  23
ENDBRANCH   8   9
ENDBRANCH   7   8
ENDBRANCH   2   6
BRANCH   4  25
ATOM     25  C   UNL     1      47.273 238.118 322.940  0.00  0.00    +0.000 C 
ATOM     26  O   UNL     1      46.950 238.117 321.748  0.00  0.00    +0.000 OA
BRANCH  25  27
ATOM     27  C   UNL     1      48.625 237.642 323.363  0.00  0.00    +0.000 C 
ATOM     28  C   UNL     1      49.866 238.164 322.643  0.00  0.00    +0.000 C 
BRANCH  27  29
ATOM     29  C   UNL     1      48.712 236.481 324.243  0.00  0.00    +0.000 C 
BRANCH  29  30
ATOM     30  C   UNL     1      48.247 235.127 324.004  0.00  0.00    +0.000 C 
ATOM     31  C   UNL     1      49.207 233.961 324.097  0.00  0.00    +0.000 C 
ATOM     32  C   UNL     1      46.884 234.780 323.852  0.00  0.00    +0.000 C 
ATOM     33  C   UNL     1      45.544 234.374 323.679  0.00  0.00    +0.000 C 
ATOM     34  C   UNL     1      44.637 235.219 322.839  0.00  0.00    +0.000 C 
ATOM     35  C   UNL     1      45.083 233.361 324.328  0.00  0.00    +0.000 C 
ATOM     36  C   UNL     1      44.590 232.250 325.066  0.00  0.00    +0.000 C 
ATOM     37  O   UNL     1      44.582 232.215 326.282  0.00  0.00    +0.000 OA
BRANCH  36  38
ATOM     38  O   UNL     1      44.154 231.236 324.303  0.00  0.00    +0.000 OA
ATOM     39  H   UNL     1      43.537 230.741 324.881  0.00  0.00    +0.000 HD
ENDBRANCH  36  38
ENDBRANCH  29  30
BRANCH  29  40
ATOM     40  O   UNL     1      49.363 236.692 325.461  0.00  0.00    +0.000 OA
ATOM     41  H   UNL     1      49.914 235.925 325.719  0.00  0.00    +0.000 HD
ENDBRANCH  29  40
ENDBRANCH  27  29
ENDBRANCH  25  27
ENDBRANCH   4  25
TORSDOF 12
ENDMDL
MODEL 4
REMARK VINA RESULT:      -3.7     21.908     25.205
REMARK  Name = Leptomycin.pdbqt.pdb
REMARK  12 active torsions:
REMARK  status: ('A' for Active; 'I' for Inactive)
REMARK    1  A    between atoms: C_2  and  C_4
REMARK    2  A    between atoms: C_5  and  C_6
REMARK    3  A    between atoms: C_6  and  C_7
REMARK    4  A    between atoms: C_10  and  C_11
REMARK    5  A    between atoms: C_10  and  C_21
REMARK    6  A    between atoms: C_12  and  C_13
REMARK    7  A    between atoms: C_23  and  C_25
REMARK    8  A    between atoms: C_25  and  C_27
REMARK    9  A    between atoms: C_27  and  C_29
REMARK   10  A    between atoms: C_29  and  O_30
REMARK   11  A    between atoms: C_29  and  C_32
REMARK   12  A    between atoms: C_38  and  O_40
REMARK                            x       y       z     vdW  Elec       q    Type
REMARK                         _______ _______ _______ _____ _____    ______ ____
ROOT
ATOM      1  C   UNL     1      54.234 227.273 357.696  0.00  0.00    +0.000 C 
ATOM      2  C   UNL     1      54.971 226.292 357.287  0.00  0.00    +0.000 C 
ATOM      3  C   UNL     1      54.379 224.913 357.248  0.00  0.00    +0.000 C 
ATOM      4  C   UNL     1      53.456 228.392 358.088  0.00  0.00    +0.000 C 
ATOM      5  C   UNL     1      53.322 228.591 359.589  0.00  0.00    +0.000 C 
ENDROOT
BRANCH   2   6
ATOM      6  C   UNL     1      56.084 226.574 356.457  0.00  0.00    +0.000 C 
ATOM      7  C   UNL     1      56.990 226.799 355.701  0.00  0.00    +0.000 C 
BRANCH   7   8
ATOM      8  C   UNL     1      58.070 227.050 354.644  0.00  0.00    +0.000 C 
BRANCH   8   9
ATOM      9  C   UNL     1      59.091 227.083 353.664  0.00  0.00    +0.000 C 
ATOM     10  C   UNL     1      59.842 225.829 353.338  0.00  0.00    +0.000 C 
ATOM     11  C   UNL     1      59.494 228.301 353.063  0.00  0.00    +0.000 C 
ATOM     12  C   UNL     1      59.736 229.503 352.637  0.00  0.00    +0.000 C 
BRANCH  12  13
ATOM     13  C   UNL     1      59.014 230.541 353.284  0.00  0.00    +0.000 C 
ATOM     14  C   UNL     1      58.344 231.320 353.906  0.00  0.00    +0.000 C 
BRANCH  14  15
ATOM     15  C   UNL     1      57.508 232.132 354.714  0.00  0.00    +0.000 A 
ATOM     16  O   UNL     1      57.304 233.506 354.265  0.00  0.00    +0.000 OA
ATOM     17  C   UNL     1      56.480 234.395 354.949  0.00  0.00    +0.000 A 
ATOM     18  O   UNL     1      56.248 235.541 354.597  0.00  0.00    +0.000 OA
ATOM     19  C   UNL     1      55.907 233.795 356.118  0.00  0.00    +0.000 A 
ATOM     20  C   UNL     1      56.047 232.683 356.530  0.00  0.00    +0.000 A 
ATOM     21  C   UNL     1      56.838 231.674 355.937  0.00  0.00    +0.000 A 
ATOM     22  C   UNL     1      56.899 230.297 356.519  0.00  0.00    +0.000 C 
ENDBRANCH  14  15
ENDBRANCH  12  13
BRANCH  12  23
ATOM     23  C   UNL     1      60.687 229.693 351.604  0.00  0.00    +0.000 C 
ATOM     24  C   UNL     1      61.716 229.892 350.485  0.00  0.00    +0.000 C 
ENDBRANCH  12  23
ENDBRANCH   8   9
ENDBRANCH   7   8
ENDBRANCH   2   6
BRANCH   4  25
ATOM     25  C   UNL     1      53.307 229.539 357.140  0.00  0.00    +0.000 C 
ATOM     26  O   UNL     1      53.538 230.706 357.474  0.00  0.00    +0.000 OA
BRANCH  25  27
ATOM     27  C   UNL     1      52.804 229.226 355.768  0.00  0.00    +0.000 C 
ATOM     28  C   UNL     1      51.556 228.361 355.603  0.00  0.00    +0.000 C 
BRANCH  27  29
ATOM     29  C   UNL     1      53.671 229.500 354.627  0.00  0.00    +0.000 C 
BRANCH  29  30
ATOM     30  C   UNL     1      54.364 228.556 353.768  0.00  0.00    +0.000 C 
ATOM     31  C   UNL     1      55.691 228.924 353.140  0.00  0.00    +0.000 C 
ATOM     32  C   UNL     1      53.967 227.209 353.602  0.00  0.00    +0.000 C 
ATOM     33  C   UNL     1      53.614 225.861 353.385  0.00  0.00    +0.000 C 
ATOM     34  C   UNL     1      52.168 225.514 353.208  0.00  0.00    +0.000 C 
ATOM     35  C   UNL     1      54.507 224.935 353.455  0.00  0.00    +0.000 C 
ATOM     36  C   UNL     1      55.506 223.927 353.554  0.00  0.00    +0.000 C 
ATOM     37  O   UNL     1      56.150 223.732 354.568  0.00  0.00    +0.000 OA
BRANCH  36  38
ATOM     38  O   UNL     1      55.688 223.225 352.425  0.00  0.00    +0.000 OA
ATOM     39  H   UNL     1      56.607 222.891 352.490  0.00  0.00    +0.000 HD
ENDBRANCH  36  38
ENDBRANCH  29  30
BRANCH  29  40
ATOM     40  O   UNL     1      53.826 230.848 354.295  0.00  0.00    +0.000 OA
ATOM     41  H   UNL     1      53.801 230.992 353.326  0.00  0.00    +0.000 HD
ENDBRANCH  29  40
ENDBRANCH  27  29
ENDBRANCH  25  27
ENDBRANCH   4  25
TORSDOF 12
ENDMDL
MODEL 5
REMARK VINA RESULT:      -3.7     14.610     17.859
REMARK  Name = Leptomycin.pdbqt.pdb
REMARK  12 active torsions:
REMARK  status: ('A' for Active; 'I' for Inactive)
REMARK    1  A    between atoms: C_2  and  C_4
REMARK    2  A    between atoms: C_5  and  C_6
REMARK    3  A    between atoms: C_6  and  C_7
REMARK    4  A    between atoms: C_10  and  C_11
REMARK    5  A    between atoms: C_10  and  C_21
REMARK    6  A    between atoms: C_12  and  C_13
REMARK    7  A    between atoms: C_23  and  C_25
REMARK    8  A    between atoms: C_25  and  C_27
REMARK    9  A    between atoms: C_27  and  C_29
REMARK   10  A    between atoms: C_29  and  O_30
REMARK   11  A    between atoms: C_29  and  C_32
REMARK   12  A    between atoms: C_38  and  O_40
REMARK                            x       y       z     vdW  Elec       q    Type
REMARK                         _______ _______ _______ _____ _____    ______ ____
ROOT
ATOM      1  C   UNL     1      59.809 222.347 325.422  0.00  0.00    +0.000 C 
ATOM      2  C   UNL     1      58.704 222.982 325.646  0.00  0.00    +0.000 C 
ATOM      3  C   UNL     1      58.459 223.541 327.017  0.00  0.00    +0.000 C 
ATOM      4  C   UNL     1      61.023 221.687 325.108  0.00  0.00    +0.000 C 
ATOM      5  C   UNL     1      61.093 220.227 325.529  0.00  0.00    +0.000 C 
ENDROOT
BRANCH   2   6
ATOM      6  C   UNL     1      58.011 223.551 324.549  0.00  0.00    +0.000 C 
ATOM      7  C   UNL     1      57.370 224.040 323.658  0.00  0.00    +0.000 C 
BRANCH   7   8
ATOM      8  C   UNL     1      56.457 224.671 322.602  0.00  0.00    +0.000 C 
BRANCH   8   9
ATOM      9  C   UNL     1      55.561 225.066 321.579  0.00  0.00    +0.000 C 
ATOM     10  C   UNL     1      54.310 224.276 321.348  0.00  0.00    +0.000 C 
ATOM     11  C   UNL     1      55.877 226.128 320.696  0.00  0.00    +0.000 C 
ATOM     12  C   UNL     1      56.340 227.106 319.980  0.00  0.00    +0.000 C 
BRANCH  12  13
ATOM     13  C   UNL     1      57.663 227.523 320.291  0.00  0.00    +0.000 C 
ATOM     14  C   UNL     1      58.725 227.950 320.654  0.00  0.00    +0.000 C 
BRANCH  14  15
ATOM     15  C   UNL     1      59.911 228.518 321.185  0.00  0.00    +0.000 A 
ATOM     16  O   UNL     1      60.649 227.704 322.145  0.00  0.00    +0.000 OA
ATOM     17  C   UNL     1      61.846 228.132 322.714  0.00  0.00    +0.000 A 
ATOM     18  O   UNL     1      62.519 227.475 323.493  0.00  0.00    +0.000 OA
ATOM     19  C   UNL     1      62.214 229.439 322.255  0.00  0.00    +0.000 A 
ATOM     20  C   UNL     1      61.644 230.145 321.480  0.00  0.00    +0.000 A 
ATOM     21  C   UNL     1      60.434 229.840 320.817  0.00  0.00    +0.000 A 
ATOM     22  C   UNL     1      59.835 230.786 319.826  0.00  0.00    +0.000 C 
ENDBRANCH  14  15
ENDBRANCH  12  13
BRANCH  12  23
ATOM     23  C   UNL     1      55.531 227.660 318.957  0.00  0.00    +0.000 C 
ATOM     24  C   UNL     1      54.659 228.255 317.845  0.00  0.00    +0.000 C 
ENDBRANCH  12  23
ENDBRANCH   8   9
ENDBRANCH   7   8
ENDBRANCH   2   6
BRANCH   4  25
ATOM     25  C   UNL     1      61.863 222.207 323.985  0.00  0.00    +0.000 C 
ATOM     26  O   UNL     1      61.483 222.180 322.809  0.00  0.00    +0.000 OA
BRANCH  25  27
ATOM     27  C   UNL     1      63.224 222.716 324.333  0.00  0.00    +0.000 C 
ATOM     28  C   UNL     1      64.448 221.847 324.053  0.00  0.00    +0.000 C 
BRANCH  27  29
ATOM     29  C   UNL     1      63.331 223.891 325.193  0.00  0.00    +0.000 C 
BRANCH  29  30
ATOM     30  C   UNL     1      63.080 223.994 326.619  0.00  0.00    +0.000 C 
ATOM     31  C   UNL     1      62.018 224.938 327.142  0.00  0.00    +0.000 C 
ATOM     32  C   UNL     1      63.649 223.129 327.582  0.00  0.00    +0.000 C 
ATOM     33  C   UNL     1      64.195 222.308 328.590  0.00  0.00    +0.000 C 
ATOM     34  C   UNL     1      65.643 221.930 328.507  0.00  0.00    +0.000 C 
ATOM     35  C   UNL     1      63.436 221.798 329.497  0.00  0.00    +0.000 C 
ATOM     36  C   UNL     1      62.577 221.233 330.479  0.00  0.00    +0.000 C 
ATOM     37  O   UNL     1      61.647 220.498 330.200  0.00  0.00    +0.000 OA
BRANCH  36  38
ATOM     38  O   UNL     1      62.868 221.598 331.737  0.00  0.00    +0.000 OA
ATOM     39  H   UNL     1      63.768 221.979 331.680  0.00  0.00    +0.000 HD
ENDBRANCH  36  38
ENDBRANCH  29  30
BRANCH  29  40
ATOM     40  O   UNL     1      63.769 225.060 324.568  0.00  0.00    +0.000 OA
ATOM     41  H   UNL     1      64.623 225.373 324.932  0.00  0.00    +0.000 HD
ENDBRANCH  29  40
ENDBRANCH  27  29
ENDBRANCH  25  27
ENDBRANCH   4  25
TORSDOF 12
ENDMDL
MODEL 6
REMARK VINA RESULT:      -3.6     30.934     33.601
REMARK  Name = Leptomycin.pdbqt.pdb
REMARK  12 active torsions:
REMARK  status: ('A' for Active; 'I' for Inactive)
REMARK    1  A    between atoms: C_2  and  C_4
REMARK    2  A    between atoms: C_5  and  C_6
REMARK    3  A    between atoms: C_6  and  C_7
REMARK    4  A    between atoms: C_10  and  C_11
REMARK    5  A    between atoms: C_10  and  C_21
REMARK    6  A    between atoms: C_12  and  C_13
REMARK    7  A    between atoms: C_23  and  C_25
REMARK    8  A    between atoms: C_25  and  C_27
REMARK    9  A    between atoms: C_27  and  C_29
REMARK   10  A    between atoms: C_29  and  O_30
REMARK   11  A    between atoms: C_29  and  C_32
REMARK   12  A    between atoms: C_38  and  O_40
REMARK                            x       y       z     vdW  Elec       q    Type
REMARK                         _______ _______ _______ _____ _____    ______ ____
ROOT
ATOM      1  C   UNL     1      50.124 244.546 329.241  0.00  0.00    +0.000 C 
ATOM      2  C   UNL     1      51.262 244.428 328.637  0.00  0.00    +0.000 C 
ATOM      3  C   UNL     1      51.636 243.096 328.057  0.00  0.00    +0.000 C 
ATOM      4  C   UNL     1      48.869 244.743 329.870  0.00  0.00    +0.000 C 
ATOM      5  C   UNL     1      48.791 244.283 331.317  0.00  0.00    +0.000 C 
ENDROOT
BRANCH   2   6
ATOM      6  C   UNL     1      51.880 245.592 328.115  0.00  0.00    +0.000 C 
ATOM      7  C   UNL     1      52.456 246.565 327.709  0.00  0.00    +0.000 C 
BRANCH   7   8
ATOM      8  C   UNL     1      53.286 247.774 327.267  0.00  0.00    +0.000 C 
BRANCH   8   9
ATOM      9  C   UNL     1      54.044 248.813 326.674  0.00  0.00    +0.000 C 
ATOM     10  C   UNL     1      54.008 250.186 327.270  0.00  0.00    +0.000 C 
ATOM     11  C   UNL     1      54.750 248.607 325.464  0.00  0.00    +0.000 C 
ATOM     12  C   UNL     1      55.315 248.239 324.355  0.00  0.00    +0.000 C 
BRANCH  12  13
ATOM     13  C   UNL     1      54.998 246.927 323.909  0.00  0.00    +0.000 C 
ATOM     14  C   UNL     1      54.622 245.875 323.470  0.00  0.00    +0.000 C 
BRANCH  14  15
ATOM     15  C   UNL     1      54.077 244.702 322.887  0.00  0.00    +0.000 A 
ATOM     16  O   UNL     1      54.171 244.594 321.435  0.00  0.00    +0.000 OA
ATOM     17  C   UNL     1      53.705 243.479 320.743  0.00  0.00    +0.000 A 
ATOM     18  O   UNL     1      53.791 243.324 319.535  0.00  0.00    +0.000 OA
ATOM     19  C   UNL     1      53.126 242.511 321.627  0.00  0.00    +0.000 A 
ATOM     20  C   UNL     1      53.020 242.555 322.815  0.00  0.00    +0.000 A 
ATOM     21  C   UNL     1      53.456 243.611 323.646  0.00  0.00    +0.000 A 
ATOM     22  C   UNL     1      53.313 243.533 325.133  0.00  0.00    +0.000 C 
ENDBRANCH  14  15
ENDBRANCH  12  13
BRANCH  12  23
ATOM     23  C   UNL     1      56.164 249.147 323.675  0.00  0.00    +0.000 C 
ATOM     24  C   UNL     1      57.077 250.132 322.935  0.00  0.00    +0.000 C 
ENDBRANCH  12  23
ENDBRANCH   8   9
ENDBRANCH   7   8
ENDBRANCH   2   6
BRANCH   4  25
ATOM     25  C   UNL     1      47.956 245.807 329.348  0.00  0.00    +0.000 C 
ATOM     26  O   UNL     1      46.865 246.057 329.872  0.00  0.00    +0.000 OA
BRANCH  25  27
ATOM     27  C   UNL     1      48.390 246.530 328.114  0.00  0.00    +0.000 C 
ATOM     28  C   UNL     1      49.052 247.900 328.236  0.00  0.00    +0.000 C 
BRANCH  27  29
ATOM     29  C   UNL     1      47.912 246.051 326.821  0.00  0.00    +0.000 C 
BRANCH  29  30
ATOM     30  C   UNL     1      48.499 245.044 325.955  0.00  0.00    +0.000 C 
ATOM     31  C   UNL     1      49.786 245.331 325.211  0.00  0.00    +0.000 C 
ATOM     32  C   UNL     1      48.040 243.708 325.880  0.00  0.00    +0.000 C 
ATOM     33  C   UNL     1      47.620 242.368 325.751  0.00  0.00    +0.000 C 
ATOM     34  C   UNL     1      46.153 242.074 325.700  0.00  0.00    +0.000 C 
ATOM     35  C   UNL     1      48.480 241.410 325.794  0.00  0.00    +0.000 C 
ATOM     36  C   UNL     1      49.445 240.367 325.862  0.00  0.00    +0.000 C 
ATOM     37  O   UNL     1      50.158 240.188 326.831  0.00  0.00    +0.000 OA
BRANCH  36  38
ATOM     38  O   UNL     1      49.512 239.611 324.755  0.00  0.00    +0.000 OA
ATOM     39  H   UNL     1      50.006 238.812 325.033  0.00  0.00    +0.000 HD
ENDBRANCH  36  38
ENDBRANCH  29  30
BRANCH  29  40
ATOM     40  O   UNL     1      46.712 246.609 326.375  0.00  0.00    +0.000 OA
ATOM     41  H   UNL     1      46.135 246.879 327.119  0.00  0.00    +0.000 HD
ENDBRANCH  29  40
ENDBRANCH  27  29
ENDBRANCH  25  27
ENDBRANCH   4  25
TORSDOF 12
ENDMDL
MODEL 7
REMARK VINA RESULT:      -3.5     23.225     26.810
REMARK  Name = Leptomycin.pdbqt.pdb
REMARK  12 active torsions:
REMARK  status: ('A' for Active; 'I' for Inactive)
REMARK    1  A    between atoms: C_2  and  C_4
REMARK    2  A    between atoms: C_5  and  C_6
REMARK    3  A    between atoms: C_6  and  C_7
REMARK    4  A    between atoms: C_10  and  C_11
REMARK    5  A    between atoms: C_10  and  C_21
REMARK    6  A    between atoms: C_12  and  C_13
REMARK    7  A    between atoms: C_23  and  C_25
REMARK    8  A    between atoms: C_25  and  C_27
REMARK    9  A    between atoms: C_27  and  C_29
REMARK   10  A    between atoms: C_29  and  O_30
REMARK   11  A    between atoms: C_29  and  C_32
REMARK   12  A    between atoms: C_38  and  O_40
REMARK                            x       y       z     vdW  Elec       q    Type
REMARK                         _______ _______ _______ _____ _____    ______ ____
ROOT
ATOM      1  C   UNL     1      54.295 233.775 317.480  0.00  0.00    +0.000 C 
ATOM      2  C   UNL     1      54.663 232.566 317.208  0.00  0.00    +0.000 C 
ATOM      3  C   UNL     1      54.061 231.880 316.016  0.00  0.00    +0.000 C 
ATOM      4  C   UNL     1      53.966 235.118 317.795  0.00  0.00    +0.000 C 
ATOM      5  C   UNL     1      52.666 235.302 318.561  0.00  0.00    +0.000 C 
ENDROOT
BRANCH   2   6
ATOM      6  C   UNL     1      55.914 232.108 317.692  0.00  0.00    +0.000 C 
ATOM      7  C   UNL     1      56.952 231.658 318.096  0.00  0.00    +0.000 C 
BRANCH   7   8
ATOM      8  C   UNL     1      58.225 230.971 318.601  0.00  0.00    +0.000 C 
BRANCH   8   9
ATOM      9  C   UNL     1      59.303 230.314 319.242  0.00  0.00    +0.000 C 
ATOM     10  C   UNL     1      60.647 230.972 319.286  0.00  0.00    +0.000 C 
ATOM     11  C   UNL     1      59.165 228.998 319.747  0.00  0.00    +0.000 C 
ATOM     12  C   UNL     1      58.857 227.797 320.131  0.00  0.00    +0.000 C 
BRANCH  12  13
ATOM     13  C   UNL     1      57.561 227.347 319.763  0.00  0.00    +0.000 C 
ATOM     14  C   UNL     1      56.481 226.868 319.547  0.00  0.00    +0.000 C 
BRANCH  14  15
ATOM     15  C   UNL     1      55.230 226.217 319.396  0.00  0.00    +0.000 A 
ATOM     16  O   UNL     1      54.895 225.212 320.400  0.00  0.00    +0.000 OA
ATOM     17  C   UNL     1      53.684 224.524 320.385  0.00  0.00    +0.000 A 
ATOM     18  O   UNL     1      53.341 223.702 321.220  0.00  0.00    +0.000 OA
ATOM     19  C   UNL     1      52.866 224.916 319.275  0.00  0.00    +0.000 A 
ATOM     20  C   UNL     1      53.096 225.724 318.428  0.00  0.00    +0.000 A 
ATOM     21  C   UNL     1      54.270 226.503 318.324  0.00  0.00    +0.000 A 
ATOM     22  C   UNL     1      54.427 227.523 317.241  0.00  0.00    +0.000 C 
ENDBRANCH  14  15
ENDBRANCH  12  13
BRANCH  12  23
ATOM     23  C   UNL     1      59.811 227.034 320.850  0.00  0.00    +0.000 C 
ATOM     24  C   UNL     1      60.844 226.214 321.631  0.00  0.00    +0.000 C 
ENDBRANCH  12  23
ENDBRANCH   8   9
ENDBRANCH   7   8
ENDBRANCH   2   6
BRANCH   4  25
ATOM     25  C   UNL     1      55.062 236.133 317.879  0.00  0.00    +0.000 C 
ATOM     26  O   UNL     1      55.153 236.931 318.818  0.00  0.00    +0.000 OA
BRANCH  25  27
ATOM     27  C   UNL     1      56.025 236.188 316.738  0.00  0.00    +0.000 C 
ATOM     28  C   UNL     1      55.502 236.409 315.320  0.00  0.00    +0.000 C 
BRANCH  27  29
ATOM     29  C   UNL     1      57.396 235.741 316.960  0.00  0.00    +0.000 C 
BRANCH  29  30
ATOM     30  C   UNL     1      58.122 234.679 316.287  0.00  0.00    +0.000 C 
ATOM     31  C   UNL     1      59.461 234.212 316.817  0.00  0.00    +0.000 C 
ATOM     32  C   UNL     1      57.581 233.901 315.237  0.00  0.00    +0.000 C 
ATOM     33  C   UNL     1      57.103 233.101 314.178  0.00  0.00    +0.000 C 
ATOM     34  C   UNL     1      56.319 233.752 313.080  0.00  0.00    +0.000 C 
ATOM     35  C   UNL     1      57.239 231.821 314.217  0.00  0.00    +0.000 C 
ATOM     36  C   UNL     1      57.384 230.408 314.288  0.00  0.00    +0.000 C 
ATOM     37  O   UNL     1      56.905 229.739 315.185  0.00  0.00    +0.000 OA
BRANCH  36  38
ATOM     38  O   UNL     1      58.113 229.881 313.292  0.00  0.00    +0.000 OA
ATOM     39  H   UNL     1      58.976 230.340 313.351  0.00  0.00    +0.000 HD
ENDBRANCH  36  38
ENDBRANCH  29  30
BRANCH  29  40
ATOM     40  O   UNL     1      58.117 236.453 317.922  0.00  0.00    +0.000 OA
ATOM     41  H   UNL     1      58.679 235.865 318.469  0.00  0.00    +0.000 HD
ENDBRANCH  29  40
ENDBRANCH  27  29
ENDBRANCH  25  27
ENDBRANCH   4  25
TORSDOF 12
ENDMDL
MODEL 8
REMARK VINA RESULT:      -3.4     16.137     21.080
REMARK  Name = Leptomycin.pdbqt.pdb
REMARK  12 active torsions:
REMARK  status: ('A' for Active; 'I' for Inactive)
REMARK    1  A    between atoms: C_2  and  C_4
REMARK    2  A    between atoms: C_5  and  C_6
REMARK    3  A    between atoms: C_6  and  C_7
REMARK    4  A    between atoms: C_10  and  C_11
REMARK    5  A    between atoms: C_10  and  C_21
REMARK    6  A    between atoms: C_12  and  C_13
REMARK    7  A    between atoms: C_23  and  C_25
REMARK    8  A    between atoms: C_25  and  C_27
REMARK    9  A    between atoms: C_27  and  C_29
REMARK   10  A    between atoms: C_29  and  O_30
REMARK   11  A    between atoms: C_29  and  C_32
REMARK   12  A    between atoms: C_38  and  O_40
REMARK                            x       y       z     vdW  Elec       q    Type
REMARK                         _______ _______ _______ _____ _____    ______ ____
ROOT
ATOM      1  C   UNL     1      53.023 218.277 328.903  0.00  0.00    +0.000 C 
ATOM      2  C   UNL     1      51.776 217.945 328.994  0.00  0.00    +0.000 C 
ATOM      3  C   UNL     1      51.149 217.180 327.864  0.00  0.00    +0.000 C 
ATOM      4  C   UNL     1      54.398 218.622 328.879  0.00  0.00    +0.000 C 
ATOM      5  C   UNL     1      54.738 219.866 328.074  0.00  0.00    +0.000 C 
ENDROOT
BRANCH   2   6
ATOM      6  C   UNL     1      51.184 217.862 330.278  0.00  0.00    +0.000 C 
ATOM      7  C   UNL     1      50.739 217.808 331.393  0.00  0.00    +0.000 C 
BRANCH   7   8
ATOM      8  C   UNL     1      50.288 217.769 332.856  0.00  0.00    +0.000 C 
BRANCH   8   9
ATOM      9  C   UNL     1      49.755 217.577 334.154  0.00  0.00    +0.000 C 
ATOM     10  C   UNL     1      50.227 216.423 334.984  0.00  0.00    +0.000 C 
ATOM     11  C   UNL     1      48.703 218.390 334.643  0.00  0.00    +0.000 C 
ATOM     12  C   UNL     1      47.739 219.217 334.912  0.00  0.00    +0.000 C 
BRANCH  12  13
ATOM     13  C   UNL     1      47.349 220.073 333.847  0.00  0.00    +0.000 C 
ATOM     14  C   UNL     1      46.976 220.884 333.044  0.00  0.00    +0.000 C 
BRANCH  14  15
ATOM     15  C   UNL     1      46.504 221.924 332.202  0.00  0.00    +0.000 A 
ATOM     16  O   UNL     1      45.972 223.108 332.868  0.00  0.00    +0.000 OA
ATOM     17  C   UNL     1      45.509 224.212 332.157  0.00  0.00    +0.000 A 
ATOM     18  O   UNL     1      45.088 225.240 332.665  0.00  0.00    +0.000 OA
ATOM     19  C   UNL     1      45.605 224.010 330.741  0.00  0.00    +0.000 A 
ATOM     20  C   UNL     1      46.025 223.062 330.151  0.00  0.00    +0.000 A 
ATOM     21  C   UNL     1      46.537 221.882 330.736  0.00  0.00    +0.000 A 
ATOM     22  C   UNL     1      47.081 220.774 329.891  0.00  0.00    +0.000 C 
ENDBRANCH  14  15
ENDBRANCH  12  13
BRANCH  12  23
ATOM     23  C   UNL     1      47.147 219.195 336.199  0.00  0.00    +0.000 C 
ATOM     24  C   UNL     1      46.504 219.180 337.591  0.00  0.00    +0.000 C 
ENDBRANCH  12  23
ENDBRANCH   8   9
ENDBRANCH   7   8
ENDBRANCH   2   6
BRANCH   4  25
ATOM     25  C   UNL     1      55.282 218.158 329.993  0.00  0.00    +0.000 C 
ATOM     26  O   UNL     1      56.463 217.842 329.811  0.00  0.00    +0.000 OA
BRANCH  25  27
ATOM     27  C   UNL     1      54.660 218.031 331.346  0.00  0.00    +0.000 C 
ATOM     28  C   UNL     1      54.219 219.287 332.093  0.00  0.00    +0.000 C 
BRANCH  27  29
ATOM     29  C   UNL     1      54.758 216.752 332.041  0.00  0.00    +0.000 C 
BRANCH  29  30
ATOM     30  C   UNL     1      54.576 216.474 333.455  0.00  0.00    +0.000 C 
ATOM     31  C   UNL     1      53.611 215.398 333.905  0.00  0.00    +0.000 C 
ATOM     32  C   UNL     1      55.384 217.029 334.474  0.00  0.00    +0.000 C 
ATOM     33  C   UNL     1      56.145 217.561 335.536  0.00  0.00    +0.000 C 
ATOM     34  C   UNL     1      56.518 219.011 335.500  0.00  0.00    +0.000 C 
ATOM     35  C   UNL     1      56.608 216.787 336.456  0.00  0.00    +0.000 C 
ATOM     36  C   UNL     1      57.123 215.913 337.453  0.00  0.00    +0.000 C 
ATOM     37  O   UNL     1      57.877 214.993 337.198  0.00  0.00    +0.000 OA
BRANCH  36  38
ATOM     38  O   UNL     1      56.687 216.179 338.694  0.00  0.00    +0.000 OA
ATOM     39  H   UNL     1      55.932 215.570 338.825  0.00  0.00    +0.000 HD
ENDBRANCH  36  38
ENDBRANCH  29  30
BRANCH  29  40
ATOM     40  O   UNL     1      55.023 215.643 331.235  0.00  0.00    +0.000 OA
ATOM     41  H   UNL     1      54.277 215.441 330.632  0.00  0.00    +0.000 HD
ENDBRANCH  29  40
ENDBRANCH  27  29
ENDBRANCH  25  27
ENDBRANCH   4  25
TORSDOF 12
ENDMDL
MODEL 9
REMARK VINA RESULT:      -3.4     28.705     32.052
REMARK  Name = Leptomycin.pdbqt.pdb
REMARK  12 active torsions:
REMARK  status: ('A' for Active; 'I' for Inactive)
REMARK    1  A    between atoms: C_2  and  C_4
REMARK    2  A    between atoms: C_5  and  C_6
REMARK    3  A    between atoms: C_6  and  C_7
REMARK    4  A    between atoms: C_10  and  C_11
REMARK    5  A    between atoms: C_10  and  C_21
REMARK    6  A    between atoms: C_12  and  C_13
REMARK    7  A    between atoms: C_23  and  C_25
REMARK    8  A    between atoms: C_25  and  C_27
REMARK    9  A    between atoms: C_27  and  C_29
REMARK   10  A    between atoms: C_29  and  O_30
REMARK   11  A    between atoms: C_29  and  C_32
REMARK   12  A    between atoms: C_38  and  O_40
REMARK                            x       y       z     vdW  Elec       q    Type
REMARK                         _______ _______ _______ _____ _____    ______ ____
ROOT
ATOM      1  C   UNL     1      44.142 229.812 345.236  0.00  0.00    +0.000 C 
ATOM      2  C   UNL     1      43.639 230.925 344.809  0.00  0.00    +0.000 C 
ATOM      3  C   UNL     1      42.200 230.948 344.381  0.00  0.00    +0.000 C 
ATOM      4  C   UNL     1      44.731 228.633 345.758  0.00  0.00    +0.000 C 
ATOM      5  C   UNL     1      45.201 227.630 344.718  0.00  0.00    +0.000 C 
ENDROOT
BRANCH   2   6
ATOM      6  C   UNL     1      44.249 232.143 345.198  0.00  0.00    +0.000 C 
ATOM      7  C   UNL     1      44.709 233.205 345.521  0.00  0.00    +0.000 C 
BRANCH   7   8
ATOM      8  C   UNL     1      45.180 234.608 345.914  0.00  0.00    +0.000 C 
BRANCH   8   9
ATOM      9  C   UNL     1      45.441 235.970 346.203  0.00  0.00    +0.000 C 
ATOM     10  C   UNL     1      46.351 236.324 347.338  0.00  0.00    +0.000 C 
ATOM     11  C   UNL     1      44.771 237.008 345.509  0.00  0.00    +0.000 C 
ATOM     12  C   UNL     1      44.057 237.815 344.785  0.00  0.00    +0.000 C 
BRANCH  12  13
ATOM     13  C   UNL     1      43.107 237.195 343.930  0.00  0.00    +0.000 C 
ATOM     14  C   UNL     1      42.340 236.552 343.265  0.00  0.00    +0.000 C 
BRANCH  14  15
ATOM     15  C   UNL     1      41.474 235.683 342.554  0.00  0.00    +0.000 A 
ATOM     16  O   UNL     1      40.108 236.151 342.348  0.00  0.00    +0.000 OA
ATOM     17  C   UNL     1      39.169 235.408 341.637  0.00  0.00    +0.000 A 
ATOM     18  O   UNL     1      38.026 235.770 341.406  0.00  0.00    +0.000 OA
ATOM     19  C   UNL     1      39.713 234.163 341.181  0.00  0.00    +0.000 A 
ATOM     20  C   UNL     1      40.817 233.733 341.329  0.00  0.00    +0.000 A 
ATOM     21  C   UNL     1      41.872 234.378 342.012  0.00  0.00    +0.000 A 
ATOM     22  C   UNL     1      43.232 233.762 342.092  0.00  0.00    +0.000 C 
ENDBRANCH  14  15
ENDBRANCH  12  13
BRANCH  12  23
ATOM     23  C   UNL     1      44.252 239.213 344.909  0.00  0.00    +0.000 C 
ATOM     24  C   UNL     1      44.460 240.726 345.050  0.00  0.00    +0.000 C 
ENDBRANCH  12  23
ENDBRANCH   8   9
ENDBRANCH   7   8
ENDBRANCH   2   6
BRANCH   4  25
ATOM     25  C   UNL     1      45.337 228.670 347.125  0.00  0.00    +0.000 C 
ATOM     26  O   UNL     1      45.297 227.701 347.892  0.00  0.00    +0.000 OA
BRANCH  25  27
ATOM     27  C   UNL     1      45.951 229.960 347.562  0.00  0.00    +0.000 C 
ATOM     28  C   UNL     1      47.219 230.462 346.874  0.00  0.00    +0.000 C 
BRANCH  27  29
ATOM     29  C   UNL     1      45.504 230.557 348.816  0.00  0.00    +0.000 C 
BRANCH  29  30
ATOM     30  C   UNL     1      44.576 231.656 349.015  0.00  0.00    +0.000 C 
ATOM     31  C   UNL     1      45.067 232.985 349.547  0.00  0.00    +0.000 C 
ATOM     32  C   UNL     1      43.232 231.638 348.576  0.00  0.00    +0.000 C 
ATOM     33  C   UNL     1      41.880 231.675 348.175  0.00  0.00    +0.000 C 
ATOM     34  C   UNL     1      41.036 230.453 348.370  0.00  0.00    +0.000 C 
ATOM     35  C   UNL     1      41.415 232.700 347.548  0.00  0.00    +0.000 C 
ATOM     36  C   UNL     1      40.928 233.834 346.842  0.00  0.00    +0.000 C 
ATOM     37  O   UNL     1      41.391 234.199 345.777  0.00  0.00    +0.000 OA
BRANCH  36  38
ATOM     38  O   UNL     1      39.927 234.477 347.462  0.00  0.00    +0.000 OA
ATOM     39  H   UNL     1      39.257 233.783 347.632  0.00  0.00    +0.000 HD
ENDBRANCH  36  38
ENDBRANCH  29  30
BRANCH  29  40
ATOM     40  O   UNL     1      46.006 229.969 349.979  0.00  0.00    +0.000 OA
ATOM     41  H   UNL     1      46.929 229.661 349.865  0.00  0.00    +0.000 HD
ENDBRANCH  29  40
ENDBRANCH  27  29
ENDBRANCH  25  27
ENDBRANCH   4  25
TORSDOF 12
ENDMDL
