MODEL 1
REMARK VINA RESULT:      -5.9      0.000      0.000
REMARK  Name = Lobelin.pdbqt.pdb
REMARK  3 active torsions:
REMARK  status: ('A' for Active; 'I' for Inactive)
REMARK    1  A    between atoms: C_9  and  O_10
REMARK    2  A    between atoms: C_9  and  C_12
REMARK    3  A    between atoms: C_19  and  C_21
REMARK                            x       y       z     vdW  Elec       q    Type
REMARK                         _______ _______ _______ _____ _____    ______ ____
ROOT
ATOM      1  N   UNL     1      61.709 223.753 327.347  0.00  0.00    +0.000 N 
ATOM      2  C   UNL     1      60.939 224.905 326.890  0.00  0.00    +0.000 C 
ATOM      3  C   UNL     1      61.032 222.623 327.978  0.00  0.00    +0.000 C 
ATOM      4  C   UNL     1      59.527 224.794 327.078  0.00  0.00    +0.000 C 
ATOM      5  C   UNL     1      59.611 222.744 328.056  0.00  0.00    +0.000 C 
ATOM      6  C   UNL     1      58.568 223.772 327.662  0.00  0.00    +0.000 C 
ATOM      7  C   UNL     1      63.154 223.780 327.290  0.00  0.00    +0.000 C 
ATOM      8  C   UNL     1      61.545 226.044 326.294  0.00  0.00    +0.000 C 
ATOM      9  C   UNL     1      62.156 227.166 325.677  0.00  0.00    +0.000 C 
ATOM     10  C   UNL     1      61.736 221.491 328.462  0.00  0.00    +0.000 C 
ATOM     11  C   UNL     1      62.448 220.328 328.923  0.00  0.00    +0.000 C 
ATOM     12  O   UNL     1      62.089 219.222 328.546  0.00  0.00    +0.000 OA
ENDROOT
BRANCH   9  13
ATOM     13  C   UNL     1      62.891 227.112 324.413  0.00  0.00    +0.000 A 
ATOM     14  C   UNL     1      63.327 225.891 323.890  0.00  0.00    +0.000 A 
ATOM     15  C   UNL     1      64.027 225.838 322.686  0.00  0.00    +0.000 A 
ATOM     16  C   UNL     1      64.300 227.011 321.990  0.00  0.00    +0.000 A 
ATOM     17  C   UNL     1      63.875 228.235 322.498  0.00  0.00    +0.000 A 
ATOM     18  C   UNL     1      63.176 228.281 323.702  0.00  0.00    +0.000 A 
ENDBRANCH   9  13
BRANCH  11  19
ATOM     19  C   UNL     1      63.581 220.516 329.845  0.00  0.00    +0.000 A 
ATOM     20  C   UNL     1      64.273 219.426 330.372  0.00  0.00    +0.000 A 
ATOM     21  C   UNL     1      65.344 219.637 331.237  0.00  0.00    +0.000 A 
ATOM     22  C   UNL     1      65.723 220.934 331.573  0.00  0.00    +0.000 A 
ATOM     23  C   UNL     1      65.033 222.023 331.044  0.00  0.00    +0.000 A 
ATOM     24  C   UNL     1      63.962 221.816 330.179  0.00  0.00    +0.000 A 
ENDBRANCH  11  19
BRANCH   9  25
ATOM     25  O   UNL     1      62.056 228.396 326.286  0.00  0.00    +0.000 OA
ATOM     26  H   UNL     1      62.412 229.108 325.727  0.00  0.00    +0.000 HD
ENDBRANCH   9  25
TORSDOF 3
ENDMDL
MODEL 2
REMARK VINA RESULT:      -5.8     24.451     27.328
REMARK  Name = Lobelin.pdbqt.pdb
REMARK  3 active torsions:
REMARK  status: ('A' for Active; 'I' for Inactive)
REMARK    1  A    between atoms: C_9  and  O_10
REMARK    2  A    between atoms: C_9  and  C_12
REMARK    3  A    between atoms: C_19  and  C_21
REMARK                            x       y       z     vdW  Elec       q    Type
REMARK                         _______ _______ _______ _____ _____    ______ ____
ROOT
ATOM      1  N   UNL     1      59.131 229.314 353.693  0.00  0.00    +0.000 N 
ATOM      2  C   UNL     1      58.047 229.672 354.602  0.00  0.00    +0.000 C 
ATOM      3  C   UNL     1      60.521 229.513 354.096  0.00  0.00    +0.000 C 
ATOM      4  C   UNL     1      58.471 230.169 355.872  0.00  0.00    +0.000 C 
ATOM      5  C   UNL     1      60.693 230.027 355.417  0.00  0.00    +0.000 C 
ATOM      6  C   UNL     1      59.793 230.455 356.561  0.00  0.00    +0.000 C 
ATOM      7  C   UNL     1      58.832 228.881 352.346  0.00  0.00    +0.000 C 
ATOM      8  C   UNL     1      56.677 229.527 354.254  0.00  0.00    +0.000 C 
ATOM      9  C   UNL     1      55.312 229.355 353.909  0.00  0.00    +0.000 C 
ATOM     10  C   UNL     1      61.610 229.206 353.241  0.00  0.00    +0.000 C 
ATOM     11  C   UNL     1      62.715 228.863 352.386  0.00  0.00    +0.000 C 
ATOM     12  O   UNL     1      63.598 228.135 352.815  0.00  0.00    +0.000 OA
ENDROOT
BRANCH   9  13
ATOM     13  C   UNL     1      54.692 228.060 353.622  0.00  0.00    +0.000 A 
ATOM     14  C   UNL     1      55.448 226.885 353.637  0.00  0.00    +0.000 A 
ATOM     15  C   UNL     1      54.859 225.652 353.364  0.00  0.00    +0.000 A 
ATOM     16  C   UNL     1      53.500 225.581 353.072  0.00  0.00    +0.000 A 
ATOM     17  C   UNL     1      52.733 226.742 353.051  0.00  0.00    +0.000 A 
ATOM     18  C   UNL     1      53.329 227.973 353.324  0.00  0.00    +0.000 A 
ENDBRANCH   9  13
BRANCH  11  19
ATOM     19  C   UNL     1      62.746 229.416 351.021  0.00  0.00    +0.000 A 
ATOM     20  C   UNL     1      63.766 229.083 350.128  0.00  0.00    +0.000 A 
ATOM     21  C   UNL     1      63.764 229.617 348.842  0.00  0.00    +0.000 A 
ATOM     22  C   UNL     1      62.745 230.481 348.448  0.00  0.00    +0.000 A 
ATOM     23  C   UNL     1      61.725 230.811 349.339  0.00  0.00    +0.000 A 
ATOM     24  C   UNL     1      61.724 230.278 350.625  0.00  0.00    +0.000 A 
ENDBRANCH  11  19
BRANCH   9  25
ATOM     25  O   UNL     1      54.498 230.462 353.841  0.00  0.00    +0.000 OA
ATOM     26  H   UNL     1      55.008 231.282 353.728  0.00  0.00    +0.000 HD
ENDBRANCH   9  25
TORSDOF 3
ENDMDL
MODEL 3
REMARK VINA RESULT:      -5.7      7.088     10.707
REMARK  Name = Lobelin.pdbqt.pdb
REMARK  3 active torsions:
REMARK  status: ('A' for Active; 'I' for Inactive)
REMARK    1  A    between atoms: C_9  and  O_10
REMARK    2  A    between atoms: C_9  and  C_12
REMARK    3  A    between atoms: C_19  and  C_21
REMARK                            x       y       z     vdW  Elec       q    Type
REMARK                         _______ _______ _______ _____ _____    ______ ____
ROOT
ATOM      1  N   UNL     1      67.017 219.752 335.387  0.00  0.00    +0.000 N 
ATOM      2  C   UNL     1      65.889 219.578 334.478  0.00  0.00    +0.000 C 
ATOM      3  C   UNL     1      67.011 219.100 336.694  0.00  0.00    +0.000 C 
ATOM      4  C   UNL     1      64.858 218.715 334.961  0.00  0.00    +0.000 C 
ATOM      5  C   UNL     1      65.866 218.287 336.952  0.00  0.00    +0.000 C 
ATOM      6  C   UNL     1      64.593 217.909 336.219  0.00  0.00    +0.000 C 
ATOM      7  C   UNL     1      68.083 220.668 335.050  0.00  0.00    +0.000 C 
ATOM      8  C   UNL     1      65.827 220.209 333.206  0.00  0.00    +0.000 C 
ATOM      9  C   UNL     1      65.784 220.822 331.927  0.00  0.00    +0.000 C 
ATOM     10  C   UNL     1      68.070 219.257 337.624  0.00  0.00    +0.000 C 
ATOM     11  C   UNL     1      69.160 219.390 338.555  0.00  0.00    +0.000 C 
ATOM     12  O   UNL     1      69.677 218.382 339.015  0.00  0.00    +0.000 OA
ENDROOT
BRANCH   9  13
ATOM     13  C   UNL     1      66.739 220.551 330.852  0.00  0.00    +0.000 A 
ATOM     14  C   UNL     1      66.843 221.410 329.754  0.00  0.00    +0.000 A 
ATOM     15  C   UNL     1      67.753 221.153 328.729  0.00  0.00    +0.000 A 
ATOM     16  C   UNL     1      68.571 220.030 328.793  0.00  0.00    +0.000 A 
ATOM     17  C   UNL     1      68.478 219.164 329.878  0.00  0.00    +0.000 A 
ATOM     18  C   UNL     1      67.567 219.426 330.899  0.00  0.00    +0.000 A 
ENDBRANCH   9  13
BRANCH  11  19
ATOM     19  C   UNL     1      69.605 220.744 338.928  0.00  0.00    +0.000 A 
ATOM     20  C   UNL     1      69.186 221.866 338.213  0.00  0.00    +0.000 A 
ATOM     21  C   UNL     1      69.619 223.133 338.595  0.00  0.00    +0.000 A 
ATOM     22  C   UNL     1      70.468 223.279 339.690  0.00  0.00    +0.000 A 
ATOM     23  C   UNL     1      70.883 222.157 340.406  0.00  0.00    +0.000 A 
ATOM     24  C   UNL     1      70.451 220.889 340.027  0.00  0.00    +0.000 A 
ENDBRANCH  11  19
BRANCH   9  25
ATOM     25  O   UNL     1      64.784 221.728 331.656  0.00  0.00    +0.000 OA
ATOM     26  H   UNL     1      64.962 222.233 330.845  0.00  0.00    +0.000 HD
ENDBRANCH   9  25
TORSDOF 3
ENDMDL
MODEL 4
REMARK VINA RESULT:      -5.6     12.267     15.538
REMARK  Name = Lobelin.pdbqt.pdb
REMARK  3 active torsions:
REMARK  status: ('A' for Active; 'I' for Inactive)
REMARK    1  A    between atoms: C_9  and  O_10
REMARK    2  A    between atoms: C_9  and  C_12
REMARK    3  A    between atoms: C_19  and  C_21
REMARK                            x       y       z     vdW  Elec       q    Type
REMARK                         _______ _______ _______ _____ _____    ______ ____
ROOT
ATOM      1  N   UNL     1      68.817 219.269 338.843  0.00  0.00    +0.000 N 
ATOM      2  C   UNL     1      69.205 220.500 338.163  0.00  0.00    +0.000 C 
ATOM      3  C   UNL     1      68.187 218.186 338.093  0.00  0.00    +0.000 C 
ATOM      4  C   UNL     1      68.956 220.512 336.756  0.00  0.00    +0.000 C 
ATOM      5  C   UNL     1      68.039 218.433 336.694  0.00  0.00    +0.000 C 
ATOM      6  C   UNL     1      68.357 219.564 335.734  0.00  0.00    +0.000 C 
ATOM      7  C   UNL     1      68.940 219.166 340.280  0.00  0.00    +0.000 C 
ATOM      8  C   UNL     1      69.797 221.597 338.845  0.00  0.00    +0.000 C 
ATOM      9  C   UNL     1      70.411 222.678 339.529  0.00  0.00    +0.000 C 
ATOM     10  C   UNL     1      67.767 216.980 338.710  0.00  0.00    +0.000 C 
ATOM     11  C   UNL     1      67.372 215.743 339.330  0.00  0.00    +0.000 C 
ATOM     12  O   UNL     1      67.762 214.686 338.855  0.00  0.00    +0.000 OA
ENDROOT
BRANCH   9  13
ATOM     13  C   UNL     1      71.709 222.597 340.201  0.00  0.00    +0.000 A 
ATOM     14  C   UNL     1      71.981 221.571 341.110  0.00  0.00    +0.000 A 
ATOM     15  C   UNL     1      73.217 221.493 341.750  0.00  0.00    +0.000 A 
ATOM     16  C   UNL     1      74.197 222.445 341.486  0.00  0.00    +0.000 A 
ATOM     17  C   UNL     1      73.941 223.474 340.585  0.00  0.00    +0.000 A 
ATOM     18  C   UNL     1      72.703 223.547 339.949  0.00  0.00    +0.000 A 
ENDBRANCH   9  13
BRANCH  11  19
ATOM     19  C   UNL     1      66.498 215.798 340.515  0.00  0.00    +0.000 A 
ATOM     20  C   UNL     1      65.120 215.612 340.406  0.00  0.00    +0.000 A 
ATOM     21  C   UNL     1      64.320 215.664 341.545  0.00  0.00    +0.000 A 
ATOM     22  C   UNL     1      64.898 215.898 342.791  0.00  0.00    +0.000 A 
ATOM     23  C   UNL     1      66.275 216.080 342.900  0.00  0.00    +0.000 A 
ATOM     24  C   UNL     1      67.077 216.029 341.762  0.00  0.00    +0.000 A 
ENDBRANCH  11  19
BRANCH   9  25
ATOM     25  O   UNL     1      69.765 223.893 339.570  0.00  0.00    +0.000 OA
ATOM     26  H   UNL     1      68.890 223.853 339.148  0.00  0.00    +0.000 HD
ENDBRANCH   9  25
TORSDOF 3
ENDMDL
MODEL 5
REMARK VINA RESULT:      -5.5     17.006     19.942
REMARK  Name = Lobelin.pdbqt.pdb
REMARK  3 active torsions:
REMARK  status: ('A' for Active; 'I' for Inactive)
REMARK    1  A    between atoms: C_9  and  O_10
REMARK    2  A    between atoms: C_9  and  C_12
REMARK    3  A    between atoms: C_19  and  C_21
REMARK                            x       y       z     vdW  Elec       q    Type
REMARK                         _______ _______ _______ _____ _____    ______ ____
ROOT
ATOM      1  N   UNL     1      67.694 239.653 335.273  0.00  0.00    +0.000 N 
ATOM      2  C   UNL     1      67.766 238.301 335.817  0.00  0.00    +0.000 C 
ATOM      3  C   UNL     1      66.823 240.647 335.893  0.00  0.00    +0.000 C 
ATOM      4  C   UNL     1      66.970 238.082 336.983  0.00  0.00    +0.000 C 
ATOM      5  C   UNL     1      66.122 240.189 337.050  0.00  0.00    +0.000 C 
ATOM      6  C   UNL     1      66.017 238.897 337.838  0.00  0.00    +0.000 C 
ATOM      7  C   UNL     1      68.387 239.976 334.045  0.00  0.00    +0.000 C 
ATOM      8  C   UNL     1      68.575 237.285 335.240  0.00  0.00    +0.000 C 
ATOM      9  C   UNL     1      69.405 236.284 334.672  0.00  0.00    +0.000 C 
ATOM     10  C   UNL     1      66.696 241.966 335.388  0.00  0.00    +0.000 C 
ATOM     11  C   UNL     1      66.594 243.314 334.895  0.00  0.00    +0.000 C 
ATOM     12  O   UNL     1      66.767 244.246 335.667  0.00  0.00    +0.000 OA
ENDROOT
BRANCH   9  13
ATOM     13  C   UNL     1      70.864 236.369 334.595  0.00  0.00    +0.000 A 
ATOM     14  C   UNL     1      71.664 235.275 334.936  0.00  0.00    +0.000 A 
ATOM     15  C   UNL     1      73.054 235.355 334.862  0.00  0.00    +0.000 A 
ATOM     16  C   UNL     1      73.660 236.536 334.444  0.00  0.00    +0.000 A 
ATOM     17  C   UNL     1      72.877 237.635 334.103  0.00  0.00    +0.000 A 
ATOM     18  C   UNL     1      71.488 237.549 334.180  0.00  0.00    +0.000 A 
ENDBRANCH   9  13
BRANCH  11  19
ATOM     19  C   UNL     1      66.272 243.520 333.472  0.00  0.00    +0.000 A 
ATOM     20  C   UNL     1      65.042 244.049 333.078  0.00  0.00    +0.000 A 
ATOM     21  C   UNL     1      64.769 244.238 331.726  0.00  0.00    +0.000 A 
ATOM     22  C   UNL     1      65.724 243.901 330.769  0.00  0.00    +0.000 A 
ATOM     23  C   UNL     1      66.953 243.376 331.163  0.00  0.00    +0.000 A 
ATOM     24  C   UNL     1      67.229 243.186 332.515  0.00  0.00    +0.000 A 
ENDBRANCH  11  19
BRANCH   9  25
ATOM     25  O   UNL     1      68.821 235.147 334.162  0.00  0.00    +0.000 OA
ATOM     26  H   UNL     1      68.449 234.584 334.862  0.00  0.00    +0.000 HD
ENDBRANCH   9  25
TORSDOF 3
ENDMDL
MODEL 6
REMARK VINA RESULT:      -5.5      7.054     10.072
REMARK  Name = Lobelin.pdbqt.pdb
REMARK  3 active torsions:
REMARK  status: ('A' for Active; 'I' for Inactive)
REMARK    1  A    between atoms: C_9  and  O_10
REMARK    2  A    between atoms: C_9  and  C_12
REMARK    3  A    between atoms: C_19  and  C_21
REMARK                            x       y       z     vdW  Elec       q    Type
REMARK                         _______ _______ _______ _____ _____    ______ ____
ROOT
ATOM      1  N   UNL     1      55.493 218.767 328.400  0.00  0.00    +0.000 N 
ATOM      2  C   UNL     1      56.515 218.592 327.374  0.00  0.00    +0.000 C 
ATOM      3  C   UNL     1      55.219 217.695 329.352  0.00  0.00    +0.000 C 
ATOM      4  C   UNL     1      57.209 217.344 327.426  0.00  0.00    +0.000 C 
ATOM      5  C   UNL     1      56.044 216.537 329.203  0.00  0.00    +0.000 C 
ATOM      6  C   UNL     1      57.162 216.091 328.281  0.00  0.00    +0.000 C 
ATOM      7  C   UNL     1      54.663 219.952 328.399  0.00  0.00    +0.000 C 
ATOM      8  C   UNL     1      56.806 219.590 326.404  0.00  0.00    +0.000 C 
ATOM      9  C   UNL     1      57.108 220.602 325.456  0.00  0.00    +0.000 C 
ATOM     10  C   UNL     1      54.220 217.804 330.352  0.00  0.00    +0.000 C 
ATOM     11  C   UNL     1      53.228 217.929 331.387  0.00  0.00    +0.000 C 
ATOM     12  O   UNL     1      53.545 217.706 332.547  0.00  0.00    +0.000 OA
ENDROOT
BRANCH   9  13
ATOM     13  C   UNL     1      57.630 221.924 325.801  0.00  0.00    +0.000 A 
ATOM     14  C   UNL     1      57.910 222.865 324.806  0.00  0.00    +0.000 A 
ATOM     15  C   UNL     1      58.407 224.126 325.134  0.00  0.00    +0.000 A 
ATOM     16  C   UNL     1      58.630 224.459 326.466  0.00  0.00    +0.000 A 
ATOM     17  C   UNL     1      58.357 223.534 327.469  0.00  0.00    +0.000 A 
ATOM     18  C   UNL     1      57.861 222.275 327.135  0.00  0.00    +0.000 A 
ENDBRANCH   9  13
BRANCH  11  19
ATOM     19  C   UNL     1      51.857 218.310 331.006  0.00  0.00    +0.000 A 
ATOM     20  C   UNL     1      50.930 218.725 331.962  0.00  0.00    +0.000 A 
ATOM     21  C   UNL     1      49.643 219.086 331.569  0.00  0.00    +0.000 A 
ATOM     22  C   UNL     1      49.285 219.033 330.224  0.00  0.00    +0.000 A 
ATOM     23  C   UNL     1      50.213 218.622 329.269  0.00  0.00    +0.000 A 
ATOM     24  C   UNL     1      51.500 218.261 329.659  0.00  0.00    +0.000 A 
ENDBRANCH  11  19
BRANCH   9  25
ATOM     25  O   UNL     1      56.911 220.341 324.119  0.00  0.00    +0.000 OA
ATOM     26  H   UNL     1      57.044 221.133 323.571  0.00  0.00    +0.000 HD
ENDBRANCH   9  25
TORSDOF 3
ENDMDL
MODEL 7
REMARK VINA RESULT:      -5.5     22.289     25.493
REMARK  Name = Lobelin.pdbqt.pdb
REMARK  3 active torsions:
REMARK  status: ('A' for Active; 'I' for Inactive)
REMARK    1  A    between atoms: C_9  and  O_10
REMARK    2  A    between atoms: C_9  and  C_12
REMARK    3  A    between atoms: C_19  and  C_21
REMARK                            x       y       z     vdW  Elec       q    Type
REMARK                         _______ _______ _______ _____ _____    ______ ____
ROOT
ATOM      1  N   UNL     1      53.514 245.726 325.492  0.00  0.00    +0.000 N 
ATOM      2  C   UNL     1      53.132 244.325 325.637  0.00  0.00    +0.000 C 
ATOM      3  C   UNL     1      54.102 246.200 324.242  0.00  0.00    +0.000 C 
ATOM      4  C   UNL     1      53.344 243.524 324.473  0.00  0.00    +0.000 C 
ATOM      5  C   UNL     1      54.217 245.208 323.221  0.00  0.00    +0.000 C 
ATOM      6  C   UNL     1      53.896 243.733 323.075  0.00  0.00    +0.000 C 
ATOM      7  C   UNL     1      53.428 246.619 326.626  0.00  0.00    +0.000 C 
ATOM      8  C   UNL     1      52.581 243.802 326.837  0.00  0.00    +0.000 C 
ATOM      9  C   UNL     1      52.007 243.293 328.031  0.00  0.00    +0.000 C 
ATOM     10  C   UNL     1      54.514 247.544 324.059  0.00  0.00    +0.000 C 
ATOM     11  C   UNL     1      54.901 248.916 323.863  0.00  0.00    +0.000 C 
ATOM     12  O   UNL     1      54.478 249.522 322.889  0.00  0.00    +0.000 OA
ENDROOT
BRANCH   9  13
ATOM     13  C   UNL     1      50.727 243.736 328.584  0.00  0.00    +0.000 A 
ATOM     14  C   UNL     1      49.573 243.750 327.796  0.00  0.00    +0.000 A 
ATOM     15  C   UNL     1      48.353 244.171 328.322  0.00  0.00    +0.000 A 
ATOM     16  C   UNL     1      48.274 244.585 329.648  0.00  0.00    +0.000 A 
ATOM     17  C   UNL     1      49.414 244.579 330.446  0.00  0.00    +0.000 A 
ATOM     18  C   UNL     1      50.632 244.157 329.914  0.00  0.00    +0.000 A 
ENDBRANCH   9  13
BRANCH  11  19
ATOM     19  C   UNL     1      55.808 249.539 324.843  0.00  0.00    +0.000 A 
ATOM     20  C   UNL     1      55.532 249.501 326.210  0.00  0.00    +0.000 A 
ATOM     21  C   UNL     1      56.412 250.092 327.113  0.00  0.00    +0.000 A 
ATOM     22  C   UNL     1      57.566 250.720 326.650  0.00  0.00    +0.000 A 
ATOM     23  C   UNL     1      57.844 250.754 325.284  0.00  0.00    +0.000 A 
ATOM     24  C   UNL     1      56.965 250.163 324.380  0.00  0.00    +0.000 A 
ENDBRANCH  11  19
BRANCH   9  25
ATOM     25  O   UNL     1      52.679 242.313 328.727  0.00  0.00    +0.000 OA
ATOM     26  H   UNL     1      53.583 242.187 328.394  0.00  0.00    +0.000 HD
ENDBRANCH   9  25
TORSDOF 3
ENDMDL
MODEL 8
REMARK VINA RESULT:      -5.4     14.068     19.828
REMARK  Name = Lobelin.pdbqt.pdb
REMARK  3 active torsions:
REMARK  status: ('A' for Active; 'I' for Inactive)
REMARK    1  A    between atoms: C_9  and  O_10
REMARK    2  A    between atoms: C_9  and  C_12
REMARK    3  A    between atoms: C_19  and  C_21
REMARK                            x       y       z     vdW  Elec       q    Type
REMARK                         _______ _______ _______ _____ _____    ______ ____
ROOT
ATOM      1  N   UNL     1      71.067 219.361 343.027  0.00  0.00    +0.000 N 
ATOM      2  C   UNL     1      71.878 218.743 344.070  0.00  0.00    +0.000 C 
ATOM      3  C   UNL     1      70.420 218.531 342.014  0.00  0.00    +0.000 C 
ATOM      4  C   UNL     1      71.930 217.316 344.022  0.00  0.00    +0.000 C 
ATOM      5  C   UNL     1      70.622 217.126 342.173  0.00  0.00    +0.000 C 
ATOM      6  C   UNL     1      71.366 216.220 343.136  0.00  0.00    +0.000 C 
ATOM      7  C   UNL     1      71.004 220.801 342.917  0.00  0.00    +0.000 C 
ATOM      8  C   UNL     1      72.553 219.501 345.065  0.00  0.00    +0.000 C 
ATOM      9  C   UNL     1      73.203 220.263 346.070  0.00  0.00    +0.000 C 
ATOM     10  C   UNL     1      69.643 219.083 340.964  0.00  0.00    +0.000 C 
ATOM     11  C   UNL     1      68.827 219.642 339.919  0.00  0.00    +0.000 C 
ATOM     12  O   UNL     1      67.694 219.214 339.754  0.00  0.00    +0.000 OA
ENDROOT
BRANCH   9  13
ATOM     13  C   UNL     1      72.506 221.094 347.053  0.00  0.00    +0.000 A 
ATOM     14  C   UNL     1      73.221 221.877 347.963  0.00  0.00    +0.000 A 
ATOM     15  C   UNL     1      72.559 222.669 348.900  0.00  0.00    +0.000 A 
ATOM     16  C   UNL     1      71.168 222.686 348.935  0.00  0.00    +0.000 A 
ATOM     17  C   UNL     1      70.441 221.911 348.037  0.00  0.00    +0.000 A 
ATOM     18  C   UNL     1      71.109 221.121 347.103  0.00  0.00    +0.000 A 
ENDBRANCH   9  13
BRANCH  11  19
ATOM     19  C   UNL     1      69.397 220.706 339.074  0.00  0.00    +0.000 A 
ATOM     20  C   UNL     1      70.248 221.674 339.607  0.00  0.00    +0.000 A 
ATOM     21  C   UNL     1      70.776 222.664 338.782  0.00  0.00    +0.000 A 
ATOM     22  C   UNL     1      70.456 222.684 337.426  0.00  0.00    +0.000 A 
ATOM     23  C   UNL     1      69.609 221.714 336.893  0.00  0.00    +0.000 A 
ATOM     24  C   UNL     1      69.079 220.723 337.716  0.00  0.00    +0.000 A 
ENDBRANCH  11  19
BRANCH   9  25
ATOM     25  O   UNL     1      74.576 220.228 346.148  0.00  0.00    +0.000 OA
ATOM     26  H   UNL     1      74.973 221.093 345.948  0.00  0.00    +0.000 HD
ENDBRANCH   9  25
TORSDOF 3
ENDMDL
MODEL 9
REMARK VINA RESULT:      -5.3      5.566     10.292
REMARK  Name = Lobelin.pdbqt.pdb
REMARK  3 active torsions:
REMARK  status: ('A' for Active; 'I' for Inactive)
REMARK    1  A    between atoms: C_9  and  O_10
REMARK    2  A    between atoms: C_9  and  C_12
REMARK    3  A    between atoms: C_19  and  C_21
REMARK                            x       y       z     vdW  Elec       q    Type
REMARK                         _______ _______ _______ _____ _____    ______ ____
ROOT
ATOM      1  N   UNL     1      56.786 220.054 326.068  0.00  0.00    +0.000 N 
ATOM      2  C   UNL     1      56.455 218.665 326.370  0.00  0.00    +0.000 C 
ATOM      3  C   UNL     1      56.785 220.522 324.685  0.00  0.00    +0.000 C 
ATOM      4  C   UNL     1      56.107 217.871 325.235  0.00  0.00    +0.000 C 
ATOM      5  C   UNL     1      56.405 219.540 323.720  0.00  0.00    +0.000 C 
ATOM      6  C   UNL     1      55.999 218.078 323.735  0.00  0.00    +0.000 C 
ATOM      7  C   UNL     1      57.238 220.935 327.121  0.00  0.00    +0.000 C 
ATOM      8  C   UNL     1      56.465 218.146 327.693  0.00  0.00    +0.000 C 
ATOM      9  C   UNL     1      56.453 217.642 329.020  0.00  0.00    +0.000 C 
ATOM     10  C   UNL     1      57.125 221.854 324.335  0.00  0.00    +0.000 C 
ATOM     11  C   UNL     1      57.437 223.214 323.983  0.00  0.00    +0.000 C 
ATOM     12  O   UNL     1      56.653 223.846 323.290  0.00  0.00    +0.000 OA
ENDROOT
BRANCH   9  13
ATOM     13  C   UNL     1      55.561 218.123 330.075  0.00  0.00    +0.000 A 
ATOM     14  C   UNL     1      54.402 218.839 329.762  0.00  0.00    +0.000 A 
ATOM     15  C   UNL     1      53.551 219.297 330.767  0.00  0.00    +0.000 A 
ATOM     16  C   UNL     1      53.852 219.042 332.101  0.00  0.00    +0.000 A 
ATOM     17  C   UNL     1      55.003 218.332 332.430  0.00  0.00    +0.000 A 
ATOM     18  C   UNL     1      55.850 217.877 331.421  0.00  0.00    +0.000 A 
ENDBRANCH   9  13
BRANCH  11  19
ATOM     19  C   UNL     1      58.704 223.792 324.466  0.00  0.00    +0.000 A 
ATOM     20  C   UNL     1      59.785 223.984 323.606  0.00  0.00    +0.000 A 
ATOM     21  C   UNL     1      60.967 224.539 324.090  0.00  0.00    +0.000 A 
ATOM     22  C   UNL     1      61.067 224.903 325.431  0.00  0.00    +0.000 A 
ATOM     23  C   UNL     1      59.985 224.714 326.289  0.00  0.00    +0.000 A 
ATOM     24  C   UNL     1      58.802 224.160 325.807  0.00  0.00    +0.000 A 
ENDBRANCH  11  19
BRANCH   9  25
ATOM     25  O   UNL     1      57.325 216.631 329.355  0.00  0.00    +0.000 OA
ATOM     26  H   UNL     1      56.939 215.753 329.198  0.00  0.00    +0.000 HD
ENDBRANCH   9  25
TORSDOF 3
ENDMDL
