MODEL 1
REMARK VINA RESULT:      -5.3      0.000      0.000
REMARK  Name = LUCANTHONE.pdbqt.pdb
REMARK  5 active torsions:
REMARK  status: ('A' for Active; 'I' for Inactive)
REMARK    1  A    between atoms: C_3  and  N_17
REMARK    2  A    between atoms: N_17  and  C_19
REMARK    3  A    between atoms: C_20  and  N_21
REMARK    4  A    between atoms: N_21  and  C_22
REMARK    5  A    between atoms: N_21  and  C_24
REMARK                            x       y       z     vdW  Elec       q    Type
REMARK                         _______ _______ _______ _____ _____    ______ ____
ROOT
ATOM      1  S   UNL     1      53.186 247.071 325.770  0.00  0.00    +0.000 S 
ATOM      2  O   UNL     1      52.588 243.119 324.090  0.00  0.00    +0.000 OA
ATOM      3  C   UNL     1      51.908 243.278 326.798  0.00  0.00    +0.000 A 
ATOM      4  C   UNL     1      52.467 244.372 326.080  0.00  0.00    +0.000 A 
ATOM      5  C   UNL     1      52.535 245.655 326.660  0.00  0.00    +0.000 A 
ATOM      6  C   UNL     1      52.041 245.823 327.976  0.00  0.00    +0.000 A 
ATOM      7  C   UNL     1      52.959 244.125 324.693  0.00  0.00    +0.000 A 
ATOM      8  C   UNL     1      51.460 243.493 328.107  0.00  0.00    +0.000 A 
ATOM      9  C   UNL     1      53.903 245.032 324.026  0.00  0.00    +0.000 A 
ATOM     10  C   UNL     1      51.512 244.750 328.686  0.00  0.00    +0.000 A 
ATOM     11  C   UNL     1      54.091 246.339 324.449  0.00  0.00    +0.000 A 
ATOM     12  C   UNL     1      52.054 247.144 328.712  0.00  0.00    +0.000 C 
ATOM     13  C   UNL     1      54.611 244.537 322.925  0.00  0.00    +0.000 A 
ATOM     14  C   UNL     1      55.002 247.147 323.764  0.00  0.00    +0.000 A 
ATOM     15  C   UNL     1      55.521 245.347 322.252  0.00  0.00    +0.000 A 
ATOM     16  C   UNL     1      55.720 246.657 322.675  0.00  0.00    +0.000 A 
ENDROOT
BRANCH   3  17
ATOM     17  N   UNL     1      51.942 241.952 326.291  0.00  0.00    +0.000 N 
ATOM     18  H   UNL     1      52.541 241.887 325.454  0.00  0.00    +0.000 HD
BRANCH  17  19
ATOM     19  C   UNL     1      50.724 241.159 326.278  0.00  0.00    +0.000 C 
ATOM     20  C   UNL     1      49.441 240.322 326.263  0.00  0.00    +0.000 C 
BRANCH  20  21
ATOM     21  N   UNL     1      48.223 239.529 326.237  0.00  0.00    +0.000 N 
BRANCH  21  22
ATOM     22  C   UNL     1      48.561 238.237 325.668  0.00  0.00    +0.000 C 
ATOM     23  C   UNL     1      48.920 236.881 325.053  0.00  0.00    +0.000 C 
ENDBRANCH  21  22
BRANCH  21  24
ATOM     24  C   UNL     1      47.318 240.167 325.300  0.00  0.00    +0.000 C 
ATOM     25  C   UNL     1      46.348 240.827 324.316  0.00  0.00    +0.000 C 
ENDBRANCH  21  24
ENDBRANCH  20  21
ENDBRANCH  17  19
ENDBRANCH   3  17
TORSDOF 5
ENDMDL
MODEL 2
REMARK VINA RESULT:      -4.5     23.596     25.911
REMARK  Name = LUCANTHONE.pdbqt.pdb
REMARK  5 active torsions:
REMARK  status: ('A' for Active; 'I' for Inactive)
REMARK    1  A    between atoms: C_3  and  N_17
REMARK    2  A    between atoms: N_17  and  C_19
REMARK    3  A    between atoms: C_20  and  N_21
REMARK    4  A    between atoms: N_21  and  C_22
REMARK    5  A    between atoms: N_21  and  C_24
REMARK                            x       y       z     vdW  Elec       q    Type
REMARK                         _______ _______ _______ _____ _____    ______ ____
ROOT
ATOM      1  S   UNL     1      44.429 235.066 349.715  0.00  0.00    +0.000 S 
ATOM      2  O   UNL     1      46.220 232.808 346.476  0.00  0.00    +0.000 OA
ATOM      3  C   UNL     1      45.792 231.279 348.778  0.00  0.00    +0.000 A 
ATOM      4  C   UNL     1      45.518 232.674 348.719  0.00  0.00    +0.000 A 
ATOM      5  C   UNL     1      44.838 233.320 349.773  0.00  0.00    +0.000 A 
ATOM      6  C   UNL     1      44.447 232.546 350.891  0.00  0.00    +0.000 A 
ATOM      7  C   UNL     1      45.951 233.426 347.505  0.00  0.00    +0.000 A 
ATOM      8  C   UNL     1      45.407 230.567 349.920  0.00  0.00    +0.000 A 
ATOM      9  C   UNL     1      46.099 234.888 347.503  0.00  0.00    +0.000 A 
ATOM     10  C   UNL     1      44.731 231.186 350.958  0.00  0.00    +0.000 A 
ATOM     11  C   UNL     1      45.489 235.690 348.455  0.00  0.00    +0.000 A 
ATOM     12  C   UNL     1      43.713 233.114 352.086  0.00  0.00    +0.000 C 
ATOM     13  C   UNL     1      46.875 235.461 346.489  0.00  0.00    +0.000 A 
ATOM     14  C   UNL     1      45.668 237.074 348.388  0.00  0.00    +0.000 A 
ATOM     15  C   UNL     1      47.054 236.840 346.434  0.00  0.00    +0.000 A 
ATOM     16  C   UNL     1      46.451 237.650 347.389  0.00  0.00    +0.000 A 
ENDROOT
BRANCH   3  17
ATOM     17  N   UNL     1      46.583 230.629 347.794  0.00  0.00    +0.000 N 
ATOM     18  H   UNL     1      47.106 231.310 347.224  0.00  0.00    +0.000 HD
BRANCH  17  19
ATOM     19  C   UNL     1      46.047 229.475 347.093  0.00  0.00    +0.000 C 
ATOM     20  C   UNL     1      45.480 228.258 346.353  0.00  0.00    +0.000 C 
BRANCH  20  21
ATOM     21  N   UNL     1      44.932 227.104 345.659  0.00  0.00    +0.000 N 
BRANCH  21  22
ATOM     22  C   UNL     1      46.053 226.341 345.141  0.00  0.00    +0.000 C 
ATOM     23  C   UNL     1      47.230 225.538 344.580  0.00  0.00    +0.000 C 
ENDBRANCH  21  22
BRANCH  21  24
ATOM     24  C   UNL     1      44.207 227.604 344.506  0.00  0.00    +0.000 C 
ATOM     25  C   UNL     1      43.443 228.151 343.297  0.00  0.00    +0.000 C 
ENDBRANCH  21  24
ENDBRANCH  20  21
ENDBRANCH  17  19
ENDBRANCH   3  17
TORSDOF 5
ENDMDL
MODEL 3
REMARK VINA RESULT:      -4.5      2.363      3.374
REMARK  Name = LUCANTHONE.pdbqt.pdb
REMARK  5 active torsions:
REMARK  status: ('A' for Active; 'I' for Inactive)
REMARK    1  A    between atoms: C_3  and  N_17
REMARK    2  A    between atoms: N_17  and  C_19
REMARK    3  A    between atoms: C_20  and  N_21
REMARK    4  A    between atoms: N_21  and  C_22
REMARK    5  A    between atoms: N_21  and  C_24
REMARK                            x       y       z     vdW  Elec       q    Type
REMARK                         _______ _______ _______ _____ _____    ______ ____
ROOT
ATOM      1  S   UNL     1      55.528 248.371 323.334  0.00  0.00    +0.000 S 
ATOM      2  O   UNL     1      54.594 244.344 322.029  0.00  0.00    +0.000 OA
ATOM      3  C   UNL     1      53.550 244.953 324.551  0.00  0.00    +0.000 A 
ATOM      4  C   UNL     1      54.369 245.857 323.818  0.00  0.00    +0.000 A 
ATOM      5  C   UNL     1      54.544 247.187 324.255  0.00  0.00    +0.000 A 
ATOM      6  C   UNL     1      53.891 247.593 325.443  0.00  0.00    +0.000 A 
ATOM      7  C   UNL     1      55.020 245.363 322.570  0.00  0.00    +0.000 A 
ATOM      8  C   UNL     1      52.950 245.400 325.734  0.00  0.00    +0.000 A 
ATOM      9  C   UNL     1      56.179 246.040 321.972  0.00  0.00    +0.000 A 
ATOM     10  C   UNL     1      53.104 246.705 326.169  0.00  0.00    +0.000 A 
ATOM     11  C   UNL     1      56.498 247.356 322.273  0.00  0.00    +0.000 A 
ATOM     12  C   UNL     1      53.994 248.988 326.020  0.00  0.00    +0.000 C 
ATOM     13  C   UNL     1      56.960 245.313 321.067  0.00  0.00    +0.000 A 
ATOM     14  C   UNL     1      57.613 247.936 321.663  0.00  0.00    +0.000 A 
ATOM     15  C   UNL     1      58.073 245.898 320.470  0.00  0.00    +0.000 A 
ATOM     16  C   UNL     1      58.402 247.214 320.771  0.00  0.00    +0.000 A 
ENDROOT
BRANCH   3  17
ATOM     17  N   UNL     1      53.457 243.579 324.207  0.00  0.00    +0.000 N 
ATOM     18  H   UNL     1      54.140 243.329 323.475  0.00  0.00    +0.000 HD
BRANCH  17  19
ATOM     19  C   UNL     1      52.150 242.951 324.113  0.00  0.00    +0.000 C 
ATOM     20  C   UNL     1      50.772 242.288 324.017  0.00  0.00    +0.000 C 
BRANCH  20  21
ATOM     21  N   UNL     1      49.468 241.651 323.932  0.00  0.00    +0.000 N 
BRANCH  21  22
ATOM     22  C   UNL     1      49.312 240.829 325.119  0.00  0.00    +0.000 C 
ATOM     23  C   UNL     1      49.161 239.965 326.374  0.00  0.00    +0.000 C 
ENDBRANCH  21  22
BRANCH  21  24
ATOM     24  C   UNL     1      49.510 240.740 322.804  0.00  0.00    +0.000 C 
ATOM     25  C   UNL     1      49.552 239.794 321.600  0.00  0.00    +0.000 C 
ENDBRANCH  21  24
ENDBRANCH  20  21
ENDBRANCH  17  19
ENDBRANCH   3  17
TORSDOF 5
ENDMDL
MODEL 4
REMARK VINA RESULT:      -4.4     32.582     34.535
REMARK  Name = LUCANTHONE.pdbqt.pdb
REMARK  5 active torsions:
REMARK  status: ('A' for Active; 'I' for Inactive)
REMARK    1  A    between atoms: C_3  and  N_17
REMARK    2  A    between atoms: N_17  and  C_19
REMARK    3  A    between atoms: C_20  and  N_21
REMARK    4  A    between atoms: N_21  and  C_22
REMARK    5  A    between atoms: N_21  and  C_24
REMARK                            x       y       z     vdW  Elec       q    Type
REMARK                         _______ _______ _______ _____ _____    ______ ____
ROOT
ATOM      1  S   UNL     1      69.448 219.017 338.429  0.00  0.00    +0.000 S 
ATOM      2  O   UNL     1      71.376 221.973 340.948  0.00  0.00    +0.000 OA
ATOM      3  C   UNL     1      70.413 219.770 342.377  0.00  0.00    +0.000 A 
ATOM      4  C   UNL     1      70.212 219.927 340.976  0.00  0.00    +0.000 A 
ATOM      5  C   UNL     1      69.671 218.878 340.204  0.00  0.00    +0.000 A 
ATOM      6  C   UNL     1      69.326 217.672 340.860  0.00  0.00    +0.000 A 
ATOM      7  C   UNL     1      70.607 221.221 340.349  0.00  0.00    +0.000 A 
ATOM      8  C   UNL     1      70.028 218.566 342.979  0.00  0.00    +0.000 A 
ATOM      9  C   UNL     1      70.085 221.649 339.044  0.00  0.00    +0.000 A 
ATOM     10  C   UNL     1      69.505 217.524 342.232  0.00  0.00    +0.000 A 
ATOM     11  C   UNL     1      69.529 220.752 338.145  0.00  0.00    +0.000 A 
ATOM     12  C   UNL     1      68.738 216.472 340.151  0.00  0.00    +0.000 C 
ATOM     13  C   UNL     1      70.177 223.008 338.722  0.00  0.00    +0.000 A 
ATOM     14  C   UNL     1      69.058 221.229 336.919  0.00  0.00    +0.000 A 
ATOM     15  C   UNL     1      69.698 223.475 337.502  0.00  0.00    +0.000 A 
ATOM     16  C   UNL     1      69.134 222.583 336.597  0.00  0.00    +0.000 A 
ENDROOT
BRANCH   3  17
ATOM     17  N   UNL     1      70.836 220.848 343.198  0.00  0.00    +0.000 N 
ATOM     18  H   UNL     1      71.550 221.422 342.724  0.00  0.00    +0.000 HD
BRANCH  17  19
ATOM     19  C   UNL     1      71.020 220.633 344.623  0.00  0.00    +0.000 C 
ATOM     20  C   UNL     1      71.216 220.407 346.126  0.00  0.00    +0.000 C 
BRANCH  20  21
ATOM     21  N   UNL     1      71.412 220.186 347.550  0.00  0.00    +0.000 N 
BRANCH  21  22
ATOM     22  C   UNL     1      70.939 221.373 348.239  0.00  0.00    +0.000 C 
ATOM     23  C   UNL     1      70.452 222.632 348.962  0.00  0.00    +0.000 C 
ENDBRANCH  21  22
BRANCH  21  24
ATOM     24  C   UNL     1      72.843 220.121 347.779  0.00  0.00    +0.000 C 
ATOM     25  C   UNL     1      74.351 220.056 348.041  0.00  0.00    +0.000 C 
ENDBRANCH  21  24
ENDBRANCH  20  21
ENDBRANCH  17  19
ENDBRANCH   3  17
TORSDOF 5
ENDMDL
MODEL 5
REMARK VINA RESULT:      -4.2     35.962     37.975
REMARK  Name = LUCANTHONE.pdbqt.pdb
REMARK  5 active torsions:
REMARK  status: ('A' for Active; 'I' for Inactive)
REMARK    1  A    between atoms: C_3  and  N_17
REMARK    2  A    between atoms: N_17  and  C_19
REMARK    3  A    between atoms: C_20  and  N_21
REMARK    4  A    between atoms: N_21  and  C_22
REMARK    5  A    between atoms: N_21  and  C_24
REMARK                            x       y       z     vdW  Elec       q    Type
REMARK                         _______ _______ _______ _____ _____    ______ ____
ROOT
ATOM      1  S   UNL     1      65.662 215.867 347.305  0.00  0.00    +0.000 S 
ATOM      2  O   UNL     1      61.419 215.251 346.667  0.00  0.00    +0.000 OA
ATOM      3  C   UNL     1      62.274 214.463 349.210  0.00  0.00    +0.000 A 
ATOM      4  C   UNL     1      63.168 214.942 348.211  0.00  0.00    +0.000 A 
ATOM      5  C   UNL     1      64.516 215.216 348.522  0.00  0.00    +0.000 A 
ATOM      6  C   UNL     1      64.956 214.994 349.849  0.00  0.00    +0.000 A 
ATOM      7  C   UNL     1      62.634 215.161 346.836  0.00  0.00    +0.000 A 
ATOM      8  C   UNL     1      62.769 214.236 350.499  0.00  0.00    +0.000 A 
ATOM      9  C   UNL     1      63.512 215.247 345.660  0.00  0.00    +0.000 A 
ATOM     10  C   UNL     1      64.088 214.510 350.822  0.00  0.00    +0.000 A 
ATOM     11  C   UNL     1      64.866 215.524 345.773  0.00  0.00    +0.000 A 
ATOM     12  C   UNL     1      66.373 215.248 350.314  0.00  0.00    +0.000 C 
ATOM     13  C   UNL     1      62.933 215.050 344.402  0.00  0.00    +0.000 A 
ATOM     14  C   UNL     1      65.639 215.595 344.612  0.00  0.00    +0.000 A 
ATOM     15  C   UNL     1      63.713 215.116 343.251  0.00  0.00    +0.000 A 
ATOM     16  C   UNL     1      65.072 215.387 343.356  0.00  0.00    +0.000 A 
ENDROOT
BRANCH   3  17
ATOM     17  N   UNL     1      60.949 214.060 348.898  0.00  0.00    +0.000 N 
ATOM     18  H   UNL     1      60.796 214.032 347.879  0.00  0.00    +0.000 HD
BRANCH  17  19
ATOM     19  C   UNL     1      59.844 214.547 349.706  0.00  0.00    +0.000 C 
ATOM     20  C   UNL     1      58.679 215.059 350.559  0.00  0.00    +0.000 C 
BRANCH  20  21
ATOM     21  N   UNL     1      57.571 215.534 351.372  0.00  0.00    +0.000 N 
BRANCH  21  22
ATOM     22  C   UNL     1      57.075 216.752 350.756  0.00  0.00    +0.000 C 
ATOM     23  C   UNL     1      56.550 218.042 350.120  0.00  0.00    +0.000 C 
ENDBRANCH  21  22
BRANCH  21  24
ATOM     24  C   UNL     1      58.120 215.918 352.658  0.00  0.00    +0.000 C 
ATOM     25  C   UNL     1      58.708 216.305 354.019  0.00  0.00    +0.000 C 
ENDBRANCH  21  24
ENDBRANCH  20  21
ENDBRANCH  17  19
ENDBRANCH   3  17
TORSDOF 5
ENDMDL
MODEL 6
REMARK VINA RESULT:      -4.2     27.345     29.909
REMARK  Name = LUCANTHONE.pdbqt.pdb
REMARK  5 active torsions:
REMARK  status: ('A' for Active; 'I' for Inactive)
REMARK    1  A    between atoms: C_3  and  N_17
REMARK    2  A    between atoms: N_17  and  C_19
REMARK    3  A    between atoms: C_20  and  N_21
REMARK    4  A    between atoms: N_21  and  C_22
REMARK    5  A    between atoms: N_21  and  C_24
REMARK                            x       y       z     vdW  Elec       q    Type
REMARK                         _______ _______ _______ _____ _____    ______ ____
ROOT
ATOM      1  S   UNL     1      64.709 216.588 332.370  0.00  0.00    +0.000 S 
ATOM      2  O   UNL     1      64.470 218.134 336.413  0.00  0.00    +0.000 OA
ATOM      3  C   UNL     1      62.367 216.406 335.771  0.00  0.00    +0.000 A 
ATOM      4  C   UNL     1      63.363 216.791 334.829  0.00  0.00    +0.000 A 
ATOM      5  C   UNL     1      63.439 216.167 333.566  0.00  0.00    +0.000 A 
ATOM      6  C   UNL     1      62.495 215.158 333.259  0.00  0.00    +0.000 A 
ATOM      7  C   UNL     1      64.331 217.855 335.223  0.00  0.00    +0.000 A 
ATOM      8  C   UNL     1      61.442 215.422 335.404  0.00  0.00    +0.000 A 
ATOM      9  C   UNL     1      65.110 218.609 334.232  0.00  0.00    +0.000 A 
ATOM     10  C   UNL     1      61.510 214.794 334.172  0.00  0.00    +0.000 A 
ATOM     11  C   UNL     1      65.305 218.143 332.940  0.00  0.00    +0.000 A 
ATOM     12  C   UNL     1      62.466 214.412 331.943  0.00  0.00    +0.000 C 
ATOM     13  C   UNL     1      65.671 219.825 334.636  0.00  0.00    +0.000 A 
ATOM     14  C   UNL     1      66.062 218.910 332.052  0.00  0.00    +0.000 A 
ATOM     15  C   UNL     1      66.418 220.587 333.742  0.00  0.00    +0.000 A 
ATOM     16  C   UNL     1      66.612 220.129 332.444  0.00  0.00    +0.000 A 
ENDROOT
BRANCH   3  17
ATOM     17  N   UNL     1      62.188 217.100 336.996  0.00  0.00    +0.000 N 
ATOM     18  H   UNL     1      62.857 216.778 337.711  0.00  0.00    +0.000 HD
BRANCH  17  19
ATOM     19  C   UNL     1      60.843 217.401 337.458  0.00  0.00    +0.000 C 
ATOM     20  C   UNL     1      59.425 217.716 337.945  0.00  0.00    +0.000 C 
BRANCH  20  21
ATOM     21  N   UNL     1      58.075 218.008 338.400  0.00  0.00    +0.000 N 
BRANCH  21  22
ATOM     22  C   UNL     1      57.487 218.927 337.444  0.00  0.00    +0.000 C 
ATOM     23  C   UNL     1      56.878 219.895 336.425  0.00  0.00    +0.000 C 
ENDBRANCH  21  22
BRANCH  21  24
ATOM     24  C   UNL     1      58.193 218.734 339.650  0.00  0.00    +0.000 C 
ATOM     25  C   UNL     1      58.316 219.519 340.959  0.00  0.00    +0.000 C 
ENDBRANCH  21  24
ENDBRANCH  20  21
ENDBRANCH  17  19
ENDBRANCH   3  17
TORSDOF 5
ENDMDL
MODEL 7
REMARK VINA RESULT:      -4.2     29.968     32.490
REMARK  Name = LUCANTHONE.pdbqt.pdb
REMARK  5 active torsions:
REMARK  status: ('A' for Active; 'I' for Inactive)
REMARK    1  A    between atoms: C_3  and  N_17
REMARK    2  A    between atoms: N_17  and  C_19
REMARK    3  A    between atoms: C_20  and  N_21
REMARK    4  A    between atoms: N_21  and  C_22
REMARK    5  A    between atoms: N_21  and  C_24
REMARK                            x       y       z     vdW  Elec       q    Type
REMARK                         _______ _______ _______ _____ _____    ______ ____
ROOT
ATOM      1  S   UNL     1      54.238 223.887 353.998  0.00  0.00    +0.000 S 
ATOM      2  O   UNL     1      51.178 226.668 352.693  0.00  0.00    +0.000 OA
ATOM      3  C   UNL     1      50.752 224.057 351.785  0.00  0.00    +0.000 A 
ATOM      4  C   UNL     1      51.904 224.434 352.532  0.00  0.00    +0.000 A 
ATOM      5  C   UNL     1      52.803 223.458 353.011  0.00  0.00    +0.000 A 
ATOM      6  C   UNL     1      52.534 222.100 352.720  0.00  0.00    +0.000 A 
ATOM      7  C   UNL     1      52.119 225.884 352.809  0.00  0.00    +0.000 A 
ATOM      8  C   UNL     1      50.549 222.702 351.504  0.00  0.00    +0.000 A 
ATOM      9  C   UNL     1      53.433 226.420 353.190  0.00  0.00    +0.000 A 
ATOM     10  C   UNL     1      51.418 221.732 351.975  0.00  0.00    +0.000 A 
ATOM     11  C   UNL     1      54.440 225.609 353.695  0.00  0.00    +0.000 A 
ATOM     12  C   UNL     1      53.416 220.956 353.173  0.00  0.00    +0.000 C 
ATOM     13  C   UNL     1      53.643 227.795 353.038  0.00  0.00    +0.000 A 
ATOM     14  C   UNL     1      55.663 226.189 354.041  0.00  0.00    +0.000 A 
ATOM     15  C   UNL     1      54.867 228.361 353.380  0.00  0.00    +0.000 A 
ATOM     16  C   UNL     1      55.883 227.555 353.881  0.00  0.00    +0.000 A 
ENDROOT
BRANCH   3  17
ATOM     17  N   UNL     1      49.900 225.021 351.185  0.00  0.00    +0.000 N 
ATOM     18  H   UNL     1      49.660 225.774 351.849  0.00  0.00    +0.000 HD
BRANCH  17  19
ATOM     19  C   UNL     1      48.841 224.584 350.292  0.00  0.00    +0.000 C 
ATOM     20  C   UNL     1      47.725 224.123 349.349  0.00  0.00    +0.000 C 
BRANCH  20  21
ATOM     21  N   UNL     1      46.670 223.693 348.446  0.00  0.00    +0.000 N 
BRANCH  21  22
ATOM     22  C   UNL     1      46.645 222.242 348.470  0.00  0.00    +0.000 C 
ATOM     23  C   UNL     1      46.605 220.712 348.496  0.00  0.00    +0.000 C 
ENDBRANCH  21  22
BRANCH  21  24
ATOM     24  C   UNL     1      47.073 224.075 347.106  0.00  0.00    +0.000 C 
ATOM     25  C   UNL     1      47.500 224.458 345.685  0.00  0.00    +0.000 C 
ENDBRANCH  21  24
ENDBRANCH  20  21
ENDBRANCH  17  19
ENDBRANCH   3  17
TORSDOF 5
ENDMDL
MODEL 8
REMARK VINA RESULT:      -4.1      3.008      7.935
REMARK  Name = LUCANTHONE.pdbqt.pdb
REMARK  5 active torsions:
REMARK  status: ('A' for Active; 'I' for Inactive)
REMARK    1  A    between atoms: C_3  and  N_17
REMARK    2  A    between atoms: N_17  and  C_19
REMARK    3  A    between atoms: C_20  and  N_21
REMARK    4  A    between atoms: N_21  and  C_22
REMARK    5  A    between atoms: N_21  and  C_24
REMARK                            x       y       z     vdW  Elec       q    Type
REMARK                         _______ _______ _______ _____ _____    ______ ____
ROOT
ATOM      1  S   UNL     1      50.155 241.781 326.420  0.00  0.00    +0.000 S 
ATOM      2  O   UNL     1      51.248 242.095 322.236  0.00  0.00    +0.000 OA
ATOM      3  C   UNL     1      53.012 243.441 323.938  0.00  0.00    +0.000 A 
ATOM      4  C   UNL     1      51.836 242.791 324.407  0.00  0.00    +0.000 A 
ATOM      5  C   UNL     1      51.600 242.637 325.789  0.00  0.00    +0.000 A 
ATOM      6  C   UNL     1      52.557 243.155 326.693  0.00  0.00    +0.000 A 
ATOM      7  C   UNL     1      50.874 242.262 323.396  0.00  0.00    +0.000 A 
ATOM      8  C   UNL     1      53.912 243.958 324.877  0.00  0.00    +0.000 A 
ATOM      9  C   UNL     1      49.477 241.957 323.732  0.00  0.00    +0.000 A 
ATOM     10  C   UNL     1      53.698 243.806 326.237  0.00  0.00    +0.000 A 
ATOM     11  C   UNL     1      49.061 241.758 325.040  0.00  0.00    +0.000 A 
ATOM     12  C   UNL     1      52.425 243.057 328.198  0.00  0.00    +0.000 C 
ATOM     13  C   UNL     1      48.562 241.858 322.678  0.00  0.00    +0.000 A 
ATOM     14  C   UNL     1      47.717 241.466 325.285  0.00  0.00    +0.000 A 
ATOM     15  C   UNL     1      47.224 241.573 322.932  0.00  0.00    +0.000 A 
ATOM     16  C   UNL     1      46.799 241.379 324.241  0.00  0.00    +0.000 A 
ENDROOT
BRANCH   3  17
ATOM     17  N   UNL     1      53.215 243.721 322.561  0.00  0.00    +0.000 N 
ATOM     18  H   UNL     1      52.939 242.921 321.972  0.00  0.00    +0.000 HD
BRANCH  17  19
ATOM     19  C   UNL     1      54.400 244.452 322.146  0.00  0.00    +0.000 C 
ATOM     20  C   UNL     1      55.650 245.222 321.707  0.00  0.00    +0.000 C 
BRANCH  20  21
ATOM     21  N   UNL     1      56.841 245.942 321.287  0.00  0.00    +0.000 N 
BRANCH  21  22
ATOM     22  C   UNL     1      56.843 247.215 321.983  0.00  0.00    +0.000 C 
ATOM     23  C   UNL     1      56.857 248.554 322.726  0.00  0.00    +0.000 C 
ENDBRANCH  21  22
BRANCH  21  24
ATOM     24  C   UNL     1      56.682 246.245 319.877  0.00  0.00    +0.000 C 
ATOM     25  C   UNL     1      56.534 246.563 318.386  0.00  0.00    +0.000 C 
ENDBRANCH  21  24
ENDBRANCH  20  21
ENDBRANCH  17  19
ENDBRANCH   3  17
TORSDOF 5
ENDMDL
MODEL 9
REMARK VINA RESULT:      -4.0      1.366      2.088
REMARK  Name = LUCANTHONE.pdbqt.pdb
REMARK  5 active torsions:
REMARK  status: ('A' for Active; 'I' for Inactive)
REMARK    1  A    between atoms: C_3  and  N_17
REMARK    2  A    between atoms: N_17  and  C_19
REMARK    3  A    between atoms: C_20  and  N_21
REMARK    4  A    between atoms: N_21  and  C_22
REMARK    5  A    between atoms: N_21  and  C_24
REMARK                            x       y       z     vdW  Elec       q    Type
REMARK                         _______ _______ _______ _____ _____    ______ ____
ROOT
ATOM      1  S   UNL     1      53.435 246.641 325.222  0.00  0.00    +0.000 S 
ATOM      2  O   UNL     1      52.157 243.708 322.295  0.00  0.00    +0.000 OA
ATOM      3  C   UNL     1      51.250 243.150 324.881  0.00  0.00    +0.000 A 
ATOM      4  C   UNL     1      52.109 244.246 324.586  0.00  0.00    +0.000 A 
ATOM      5  C   UNL     1      52.398 245.218 325.567  0.00  0.00    +0.000 A 
ATOM      6  C   UNL     1      51.819 245.069 326.849  0.00  0.00    +0.000 A 
ATOM      7  C   UNL     1      52.677 244.345 323.210  0.00  0.00    +0.000 A 
ATOM      8  C   UNL     1      50.727 243.036 326.174  0.00  0.00    +0.000 A 
ATOM      9  C   UNL     1      53.862 245.160 322.911  0.00  0.00    +0.000 A 
ATOM     10  C   UNL     1      50.994 243.988 327.143  0.00  0.00    +0.000 A 
ATOM     11  C   UNL     1      54.289 246.175 323.754  0.00  0.00    +0.000 A 
ATOM     12  C   UNL     1      52.047 246.038 327.988  0.00  0.00    +0.000 C 
ATOM     13  C   UNL     1      54.554 244.889 321.726  0.00  0.00    +0.000 A 
ATOM     14  C   UNL     1      55.422 246.913 323.403  0.00  0.00    +0.000 A 
ATOM     15  C   UNL     1      55.686 245.624 321.387  0.00  0.00    +0.000 A 
ATOM     16  C   UNL     1      56.124 246.639 322.231  0.00  0.00    +0.000 A 
ENDROOT
BRANCH   3  17
ATOM     17  N   UNL     1      51.043 242.091 323.957  0.00  0.00    +0.000 N 
ATOM     18  H   UNL     1      51.207 242.403 322.988  0.00  0.00    +0.000 HD
BRANCH  17  19
ATOM     19  C   UNL     1      49.940 241.168 324.162  0.00  0.00    +0.000 C 
ATOM     20  C   UNL     1      48.776 240.195 324.380  0.00  0.00    +0.000 C 
BRANCH  20  21
ATOM     21  N   UNL     1      47.673 239.273 324.597  0.00  0.00    +0.000 N 
BRANCH  21  22
ATOM     22  C   UNL     1      47.086 239.599 325.884  0.00  0.00    +0.000 C 
ATOM     23  C   UNL     1      46.461 239.955 327.236  0.00  0.00    +0.000 C 
ENDBRANCH  21  22
BRANCH  21  24
ATOM     24  C   UNL     1      48.245 237.947 324.731  0.00  0.00    +0.000 C 
ATOM     25  C   UNL     1      48.862 236.554 324.885  0.00  0.00    +0.000 C 
ENDBRANCH  21  24
ENDBRANCH  20  21
ENDBRANCH  17  19
ENDBRANCH   3  17
TORSDOF 5
ENDMDL
