MODEL 1
REMARK VINA RESULT:      -4.9      0.000      0.000
REMARK  Name = MeIQx.pdbqt.pdb
REMARK  0 active torsions:
REMARK  status: ('A' for Active; 'I' for Inactive)
REMARK                            x       y       z     vdW  Elec       q    Type
REMARK                         _______ _______ _______ _____ _____    ______ ____
ROOT
ATOM      1  N   UNL     1      74.940 225.256 337.545  0.00  0.00    +0.000 N 
ATOM      2  N   UNL     1      73.538 224.475 336.020  0.00  0.00    +0.000 NA
ATOM      3  N   UNL     1      71.233 222.787 336.697  0.00  0.00    +0.000 NA
ATOM      4  N   UNL     1      70.847 222.170 339.449  0.00  0.00    +0.000 NA
ATOM      5  C   UNL     1      74.024 224.529 338.256  0.00  0.00    +0.000 A 
ATOM      6  C   UNL     1      73.153 224.046 337.280  0.00  0.00    +0.000 A 
ATOM      7  C   UNL     1      72.060 223.237 337.679  0.00  0.00    +0.000 A 
ATOM      8  C   UNL     1      71.880 222.937 339.052  0.00  0.00    +0.000 A 
ATOM      9  C   UNL     1      74.620 225.200 336.198  0.00  0.00    +0.000 A 
ATOM     10  C   UNL     1      73.871 224.252 339.617  0.00  0.00    +0.000 A 
ATOM     11  C   UNL     1      72.783 223.449 339.974  0.00  0.00    +0.000 A 
ATOM     12  C   UNL     1      76.031 225.992 338.118  0.00  0.00    +0.000 C 
ATOM     13  C   UNL     1      70.206 222.020 337.115  0.00  0.00    +0.000 A 
ATOM     14  C   UNL     1      70.020 221.720 338.461  0.00  0.00    +0.000 A 
ATOM     15  C   UNL     1      69.244 221.487 336.091  0.00  0.00    +0.000 C 
ATOM     16  N   UNL     1      75.328 225.808 335.220  0.00  0.00    +0.000 N 
ATOM     17  H   UNL     1      74.909 225.878 334.297  0.00  0.00    +0.000 HD
ATOM     18  H   UNL     1      76.016 226.524 335.442  0.00  0.00    +0.000 HD
ENDROOT
TORSDOF 0
ENDMDL
MODEL 2
REMARK VINA RESULT:      -4.9     26.928     27.883
REMARK  Name = MeIQx.pdbqt.pdb
REMARK  0 active torsions:
REMARK  status: ('A' for Active; 'I' for Inactive)
REMARK                            x       y       z     vdW  Elec       q    Type
REMARK                         _______ _______ _______ _____ _____    ______ ____
ROOT
ATOM      1  N   UNL     1      54.202 240.039 347.665  0.00  0.00    +0.000 N 
ATOM      2  N   UNL     1      56.054 241.013 348.389  0.00  0.00    +0.000 NA
ATOM      3  N   UNL     1      56.789 243.763 347.667  0.00  0.00    +0.000 NA
ATOM      4  N   UNL     1      55.001 245.173 345.961  0.00  0.00    +0.000 NA
ATOM      5  C   UNL     1      54.175 241.291 347.111  0.00  0.00    +0.000 A 
ATOM      6  C   UNL     1      55.346 241.887 347.578  0.00  0.00    +0.000 A 
ATOM      7  C   UNL     1      55.638 243.218 347.189  0.00  0.00    +0.000 A 
ATOM      8  C   UNL     1      54.739 243.908 346.340  0.00  0.00    +0.000 A 
ATOM      9  C   UNL     1      55.352 239.903 348.426  0.00  0.00    +0.000 A 
ATOM     10  C   UNL     1      53.268 241.947 346.275  0.00  0.00    +0.000 A 
ATOM     11  C   UNL     1      53.590 243.259 345.911  0.00  0.00    +0.000 A 
ATOM     12  C   UNL     1      53.178 239.048 347.508  0.00  0.00    +0.000 C 
ATOM     13  C   UNL     1      57.033 245.030 347.275  0.00  0.00    +0.000 A 
ATOM     14  C   UNL     1      56.156 245.717 346.440  0.00  0.00    +0.000 A 
ATOM     15  C   UNL     1      58.284 245.705 347.762  0.00  0.00    +0.000 C 
ATOM     16  N   UNL     1      55.689 238.783 349.104  0.00  0.00    +0.000 N 
ATOM     17  H   UNL     1      56.437 238.843 349.789  0.00  0.00    +0.000 HD
ATOM     18  H   UNL     1      55.006 238.047 349.269  0.00  0.00    +0.000 HD
ENDROOT
TORSDOF 0
ENDMDL
MODEL 3
REMARK VINA RESULT:      -4.7     11.609     14.654
REMARK  Name = MeIQx.pdbqt.pdb
REMARK  0 active torsions:
REMARK  status: ('A' for Active; 'I' for Inactive)
REMARK                            x       y       z     vdW  Elec       q    Type
REMARK                         _______ _______ _______ _____ _____    ______ ____
ROOT
ATOM      1  N   UNL     1      63.012 221.710 329.634  0.00  0.00    +0.000 N 
ATOM      2  N   UNL     1      64.355 223.402 329.149  0.00  0.00    +0.000 NA
ATOM      3  N   UNL     1      63.665 225.463 327.175  0.00  0.00    +0.000 NA
ATOM      4  N   UNL     1      61.149 225.211 325.868  0.00  0.00    +0.000 NA
ATOM      5  C   UNL     1      62.335 222.429 328.685  0.00  0.00    +0.000 A 
ATOM      6  C   UNL     1      63.196 223.487 328.393  0.00  0.00    +0.000 A 
ATOM      7  C   UNL     1      62.798 224.447 327.429  0.00  0.00    +0.000 A 
ATOM      8  C   UNL     1      61.543 224.308 326.787  0.00  0.00    +0.000 A 
ATOM      9  C   UNL     1      64.228 222.322 329.888  0.00  0.00    +0.000 A 
ATOM     10  C   UNL     1      61.091 222.269 328.070  0.00  0.00    +0.000 A 
ATOM     11  C   UNL     1      60.732 223.233 327.123  0.00  0.00    +0.000 A 
ATOM     12  C   UNL     1      62.512 220.534 330.286  0.00  0.00    +0.000 C 
ATOM     13  C   UNL     1      63.251 226.355 326.252  0.00  0.00    +0.000 A 
ATOM     14  C   UNL     1      62.021 226.229 325.614  0.00  0.00    +0.000 A 
ATOM     15  C   UNL     1      64.151 227.511 325.916  0.00  0.00    +0.000 C 
ATOM     16  N   UNL     1      65.143 221.864 330.771  0.00  0.00    +0.000 N 
ATOM     17  H   UNL     1      65.906 222.480 331.035  0.00  0.00    +0.000 HD
ATOM     18  H   UNL     1      64.895 221.158 331.461  0.00  0.00    +0.000 HD
ENDROOT
TORSDOF 0
ENDMDL
MODEL 4
REMARK VINA RESULT:      -4.7      3.139      7.553
REMARK  Name = MeIQx.pdbqt.pdb
REMARK  0 active torsions:
REMARK  status: ('A' for Active; 'I' for Inactive)
REMARK                            x       y       z     vdW  Elec       q    Type
REMARK                         _______ _______ _______ _____ _____    ______ ____
ROOT
ATOM      1  N   UNL     1      66.828 218.650 337.891  0.00  0.00    +0.000 N 
ATOM      2  N   UNL     1      68.036 219.457 339.562  0.00  0.00    +0.000 NA
ATOM      3  N   UNL     1      70.040 221.573 339.196  0.00  0.00    +0.000 NA
ATOM      4  N   UNL     1      70.389 222.580 336.557  0.00  0.00    +0.000 NA
ATOM      5  C   UNL     1      67.627 219.600 337.314  0.00  0.00    +0.000 A 
ATOM      6  C   UNL     1      68.379 220.095 338.379  0.00  0.00    +0.000 A 
ATOM      7  C   UNL     1      69.328 221.117 338.130  0.00  0.00    +0.000 A 
ATOM      8  C   UNL     1      69.491 221.609 336.812  0.00  0.00    +0.000 A 
ATOM      9  C   UNL     1      67.103 218.586 339.248  0.00  0.00    +0.000 A 
ATOM     10  C   UNL     1      67.764 220.067 336.004  0.00  0.00    +0.000 A 
ATOM     11  C   UNL     1      68.711 221.074 335.795  0.00  0.00    +0.000 A 
ATOM     12  C   UNL     1      65.836 217.879 337.200  0.00  0.00    +0.000 C 
ATOM     13  C   UNL     1      70.933 222.544 338.919  0.00  0.00    +0.000 A 
ATOM     14  C   UNL     1      71.102 223.034 337.627  0.00  0.00    +0.000 A 
ATOM     15  C   UNL     1      71.757 223.104 340.044  0.00  0.00    +0.000 C 
ATOM     16  N   UNL     1      66.492 217.745 340.111  0.00  0.00    +0.000 N 
ATOM     17  H   UNL     1      66.612 217.908 341.107  0.00  0.00    +0.000 HD
ATOM     18  H   UNL     1      65.637 217.259 339.850  0.00  0.00    +0.000 HD
ENDROOT
TORSDOF 0
ENDMDL
MODEL 5
REMARK VINA RESULT:      -4.6      2.079      6.407
REMARK  Name = MeIQx.pdbqt.pdb
REMARK  0 active torsions:
REMARK  status: ('A' for Active; 'I' for Inactive)
REMARK                            x       y       z     vdW  Elec       q    Type
REMARK                         _______ _______ _______ _____ _____    ______ ____
ROOT
ATOM      1  N   UNL     1      68.652 219.798 339.487  0.00  0.00    +0.000 N 
ATOM      2  N   UNL     1      70.484 220.533 340.492  0.00  0.00    +0.000 NA
ATOM      3  N   UNL     1      72.299 222.482 339.256  0.00  0.00    +0.000 NA
ATOM      4  N   UNL     1      71.614 223.421 336.658  0.00  0.00    +0.000 NA
ATOM      5  C   UNL     1      69.209 220.675 338.595  0.00  0.00    +0.000 A 
ATOM      6  C   UNL     1      70.358 221.125 339.244  0.00  0.00    +0.000 A 
ATOM      7  C   UNL     1      71.189 222.068 338.589  0.00  0.00    +0.000 A 
ATOM      8  C   UNL     1      70.836 222.526 337.296  0.00  0.00    +0.000 A 
ATOM      9  C   UNL     1      69.449 219.732 340.619  0.00  0.00    +0.000 A 
ATOM     10  C   UNL     1      68.834 221.111 337.322  0.00  0.00    +0.000 A 
ATOM     11  C   UNL     1      69.678 222.039 336.705  0.00  0.00    +0.000 A 
ATOM     12  C   UNL     1      67.418 219.095 339.289  0.00  0.00    +0.000 C 
ATOM     13  C   UNL     1      73.065 223.378 338.600  0.00  0.00    +0.000 A 
ATOM     14  C   UNL     1      72.727 223.835 337.330  0.00  0.00    +0.000 A 
ATOM     15  C   UNL     1      74.309 223.888 339.272  0.00  0.00    +0.000 C 
ATOM     16  N   UNL     1      69.187 218.953 341.692  0.00  0.00    +0.000 N 
ATOM     17  H   UNL     1      69.711 219.120 342.546  0.00  0.00    +0.000 HD
ATOM     18  H   UNL     1      68.270 218.531 341.819  0.00  0.00    +0.000 HD
ENDROOT
TORSDOF 0
ENDMDL
MODEL 6
REMARK VINA RESULT:      -4.5     11.787     14.941
REMARK  Name = MeIQx.pdbqt.pdb
REMARK  0 active torsions:
REMARK  status: ('A' for Active; 'I' for Inactive)
REMARK                            x       y       z     vdW  Elec       q    Type
REMARK                         _______ _______ _______ _____ _____    ______ ____
ROOT
ATOM      1  N   UNL     1      63.682 221.769 330.071  0.00  0.00    +0.000 N 
ATOM      2  N   UNL     1      61.661 220.892 329.842  0.00  0.00    +0.000 NA
ATOM      3  N   UNL     1      59.707 221.893 327.892  0.00  0.00    +0.000 NA
ATOM      4  N   UNL     1      60.512 224.083 326.264  0.00  0.00    +0.000 NA
ATOM      5  C   UNL     1      63.094 222.506 329.078  0.00  0.00    +0.000 A 
ATOM      6  C   UNL     1      61.826 221.940 328.950  0.00  0.00    +0.000 A 
ATOM      7  C   UNL     1      60.933 222.474 327.987  0.00  0.00    +0.000 A 
ATOM      8  C   UNL     1      61.347 223.564 327.183  0.00  0.00    +0.000 A 
ATOM      9  C   UNL     1      62.788 220.806 330.513  0.00  0.00    +0.000 A 
ATOM     10  C   UNL     1      63.531 223.579 328.298  0.00  0.00    +0.000 A 
ATOM     11  C   UNL     1      62.623 224.081 327.360  0.00  0.00    +0.000 A 
ATOM     12  C   UNL     1      65.025 221.946 330.542  0.00  0.00    +0.000 C 
ATOM     13  C   UNL     1      58.886 222.428 326.966  0.00  0.00    +0.000 A 
ATOM     14  C   UNL     1      59.282 223.499 326.172  0.00  0.00    +0.000 A 
ATOM     15  C   UNL     1      57.514 221.840 326.797  0.00  0.00    +0.000 C 
ATOM     16  N   UNL     1      63.052 219.914 331.493  0.00  0.00    +0.000 N 
ATOM     17  H   UNL     1      62.421 219.127 331.609  0.00  0.00    +0.000 HD
ATOM     18  H   UNL     1      64.005 219.759 331.815  0.00  0.00    +0.000 HD
ENDROOT
TORSDOF 0
ENDMDL
MODEL 7
REMARK VINA RESULT:      -4.5     29.126     30.471
REMARK  Name = MeIQx.pdbqt.pdb
REMARK  0 active torsions:
REMARK  status: ('A' for Active; 'I' for Inactive)
REMARK                            x       y       z     vdW  Elec       q    Type
REMARK                         _______ _______ _______ _____ _____    ______ ____
ROOT
ATOM      1  N   UNL     1      45.173 232.144 345.997  0.00  0.00    +0.000 N 
ATOM      2  N   UNL     1      46.895 232.957 347.127  0.00  0.00    +0.000 NA
ATOM      3  N   UNL     1      47.553 235.819 347.179  0.00  0.00    +0.000 NA
ATOM      4  N   UNL     1      45.863 237.561 345.692  0.00  0.00    +0.000 NA
ATOM      5  C   UNL     1      45.133 233.494 345.767  0.00  0.00    +0.000 A 
ATOM      6  C   UNL     1      46.223 233.986 346.484  0.00  0.00    +0.000 A 
ATOM      7  C   UNL     1      46.482 235.379 346.466  0.00  0.00    +0.000 A 
ATOM      8  C   UNL     1      45.633 236.234 345.722  0.00  0.00    +0.000 A 
ATOM      9  C   UNL     1      46.251 231.854 346.818  0.00  0.00    +0.000 A 
ATOM     10  C   UNL     1      44.278 234.313 345.026  0.00  0.00    +0.000 A 
ATOM     11  C   UNL     1      44.564 235.681 345.029  0.00  0.00    +0.000 A 
ATOM     12  C   UNL     1      44.220 231.196 345.497  0.00  0.00    +0.000 C 
ATOM     13  C   UNL     1      47.767 237.149 347.137  0.00  0.00    +0.000 A 
ATOM     14  C   UNL     1      46.939 237.998 346.408  0.00  0.00    +0.000 A 
ATOM     15  C   UNL     1      48.929 237.715 347.902  0.00  0.00    +0.000 C 
ATOM     16  N   UNL     1      46.579 230.611 347.234  0.00  0.00    +0.000 N 
ATOM     17  H   UNL     1      47.255 230.519 347.986  0.00  0.00    +0.000 HD
ATOM     18  H   UNL     1      45.923 229.839 347.141  0.00  0.00    +0.000 HD
ENDROOT
TORSDOF 0
ENDMDL
MODEL 8
REMARK VINA RESULT:      -4.5     30.036     31.520
REMARK  Name = MeIQx.pdbqt.pdb
REMARK  0 active torsions:
REMARK  status: ('A' for Active; 'I' for Inactive)
REMARK                            x       y       z     vdW  Elec       q    Type
REMARK                         _______ _______ _______ _____ _____    ______ ____
ROOT
ATOM      1  N   UNL     1      47.970 239.271 326.071  0.00  0.00    +0.000 N 
ATOM      2  N   UNL     1      49.162 237.565 325.314  0.00  0.00    +0.000 NA
ATOM      3  N   UNL     1      47.944 235.222 324.029  0.00  0.00    +0.000 NA
ATOM      4  N   UNL     1      45.109 235.213 323.780  0.00  0.00    +0.000 NA
ATOM      5  C   UNL     1      47.045 238.403 325.555  0.00  0.00    +0.000 A 
ATOM      6  C   UNL     1      47.813 237.338 325.086  0.00  0.00    +0.000 A 
ATOM      7  C   UNL     1      47.159 236.239 324.475  0.00  0.00    +0.000 A 
ATOM      8  C   UNL     1      45.747 236.248 324.358  0.00  0.00    +0.000 A 
ATOM      9  C   UNL     1      49.237 238.732 325.914  0.00  0.00    +0.000 A 
ATOM     10  C   UNL     1      45.653 238.441 325.451  0.00  0.00    +0.000 A 
ATOM     11  C   UNL     1      45.041 237.339 324.845  0.00  0.00    +0.000 A 
ATOM     12  C   UNL     1      47.668 240.551 326.644  0.00  0.00    +0.000 C 
ATOM     13  C   UNL     1      47.285 234.195 323.455  0.00  0.00    +0.000 A 
ATOM     14  C   UNL     1      45.899 234.193 323.335  0.00  0.00    +0.000 A 
ATOM     15  C   UNL     1      48.082 233.033 322.934  0.00  0.00    +0.000 C 
ATOM     16  N   UNL     1      50.377 239.333 326.322  0.00  0.00    +0.000 N 
ATOM     17  H   UNL     1      51.262 238.962 325.987  0.00  0.00    +0.000 HD
ATOM     18  H   UNL     1      50.386 240.318 326.575  0.00  0.00    +0.000 HD
ENDROOT
TORSDOF 0
ENDMDL
MODEL 9
REMARK VINA RESULT:      -4.3      3.436      6.016
REMARK  Name = MeIQx.pdbqt.pdb
REMARK  0 active torsions:
REMARK  status: ('A' for Active; 'I' for Inactive)
REMARK                            x       y       z     vdW  Elec       q    Type
REMARK                         _______ _______ _______ _____ _____    ______ ____
ROOT
ATOM      1  N   UNL     1      70.491 220.083 342.136  0.00  0.00    +0.000 N 
ATOM      2  N   UNL     1      69.277 219.242 340.486  0.00  0.00    +0.000 NA
ATOM      3  N   UNL     1      69.046 220.541 337.862  0.00  0.00    +0.000 NA
ATOM      4  N   UNL     1      70.467 222.980 337.498  0.00  0.00    +0.000 NA
ATOM      5  C   UNL     1      70.643 220.973 341.106  0.00  0.00    +0.000 A 
ATOM      6  C   UNL     1      69.873 220.427 340.079  0.00  0.00    +0.000 A 
ATOM      7  C   UNL     1      69.806 221.107 338.838  0.00  0.00    +0.000 A 
ATOM      8  C   UNL     1      70.519 222.320 338.670  0.00  0.00    +0.000 A 
ATOM      9  C   UNL     1      69.657 219.054 341.730  0.00  0.00    +0.000 A 
ATOM     10  C   UNL     1      71.357 222.165 340.969  0.00  0.00    +0.000 A 
ATOM     11  C   UNL     1      71.267 222.810 339.732  0.00  0.00    +0.000 A 
ATOM     12  C   UNL     1      71.131 220.190 343.415  0.00  0.00    +0.000 C 
ATOM     13  C   UNL     1      69.007 221.218 336.697  0.00  0.00    +0.000 A 
ATOM     14  C   UNL     1      69.703 222.411 336.522  0.00  0.00    +0.000 A 
ATOM     15  C   UNL     1      68.191 220.657 335.567  0.00  0.00    +0.000 C 
ATOM     16  N   UNL     1      69.297 218.011 342.511  0.00  0.00    +0.000 N 
ATOM     17  H   UNL     1      68.853 217.211 342.070  0.00  0.00    +0.000 HD
ATOM     18  H   UNL     1      69.793 217.812 343.377  0.00  0.00    +0.000 HD
ENDROOT
TORSDOF 0
ENDMDL
