MODEL 1
REMARK VINA RESULT:      -5.1      0.000      0.000
REMARK  Name = Monobenzone.pdbqt.pdb
REMARK  4 active torsions:
REMARK  status: ('A' for Active; 'I' for Inactive)
REMARK    1  A    between atoms: C_1  and  O_7
REMARK    2  A    between atoms: C_6  and  O_15
REMARK    3  A    between atoms: O_7  and  C_8
REMARK    4  A    between atoms: C_8  and  C_9
REMARK                            x       y       z     vdW  Elec       q    Type
REMARK                         _______ _______ _______ _____ _____    ______ ____
ROOT
ATOM      1  C   UNL     1      53.079 243.306 324.764  0.00  0.00    +0.000 A 
ATOM      2  C   UNL     1      53.906 243.818 325.766  0.00  0.00    +0.000 A 
ATOM      3  C   UNL     1      51.940 242.578 325.112  0.00  0.00    +0.000 A 
ATOM      4  C   UNL     1      53.597 243.606 327.107  0.00  0.00    +0.000 A 
ATOM      5  C   UNL     1      51.627 242.362 326.451  0.00  0.00    +0.000 A 
ATOM      6  C   UNL     1      52.459 242.879 327.439  0.00  0.00    +0.000 A 
ENDROOT
BRANCH   6   7
ATOM      7  O   UNL     1      52.132 242.656 328.744  0.00  0.00    +0.000 OA
ATOM      8  H   UNL     1      51.515 241.905 328.781  0.00  0.00    +0.000 HD
ENDBRANCH   6   7
BRANCH   1   9
ATOM      9  O   UNL     1      53.301 243.463 323.418  0.00  0.00    +0.000 OA
BRANCH   9  10
ATOM     10  C   UNL     1      54.161 244.428 323.102  0.00  0.00    +0.000 C 
BRANCH  10  11
ATOM     11  C   UNL     1      55.070 245.474 322.763  0.00  0.00    +0.000 A 
ATOM     12  C   UNL     1      55.046 246.671 323.475  0.00  0.00    +0.000 A 
ATOM     13  C   UNL     1      55.930 247.694 323.140  0.00  0.00    +0.000 A 
ATOM     14  C   UNL     1      56.836 247.518 322.097  0.00  0.00    +0.000 A 
ATOM     15  C   UNL     1      56.859 246.319 321.387  0.00  0.00    +0.000 A 
ATOM     16  C   UNL     1      55.975 245.295 321.720  0.00  0.00    +0.000 A 
ENDBRANCH  10  11
ENDBRANCH   9  10
ENDBRANCH   1   9
TORSDOF 4
ENDMDL
MODEL 2
REMARK VINA RESULT:      -5.0      1.448      2.245
REMARK  Name = Monobenzone.pdbqt.pdb
REMARK  4 active torsions:
REMARK  status: ('A' for Active; 'I' for Inactive)
REMARK    1  A    between atoms: C_1  and  O_7
REMARK    2  A    between atoms: C_6  and  O_15
REMARK    3  A    between atoms: O_7  and  C_8
REMARK    4  A    between atoms: C_8  and  C_9
REMARK                            x       y       z     vdW  Elec       q    Type
REMARK                         _______ _______ _______ _____ _____    ______ ____
ROOT
ATOM      1  C   UNL     1      53.065 245.607 326.035  0.00  0.00    +0.000 A 
ATOM      2  C   UNL     1      53.606 244.368 325.683  0.00  0.00    +0.000 A 
ATOM      3  C   UNL     1      52.346 245.735 327.224  0.00  0.00    +0.000 A 
ATOM      4  C   UNL     1      53.433 243.265 326.514  0.00  0.00    +0.000 A 
ATOM      5  C   UNL     1      52.169 244.634 328.059  0.00  0.00    +0.000 A 
ATOM      6  C   UNL     1      52.715 243.407 327.697  0.00  0.00    +0.000 A 
ENDROOT
BRANCH   6   7
ATOM      7  O   UNL     1      52.529 242.343 328.530  0.00  0.00    +0.000 OA
ATOM      8  H   UNL     1      53.124 241.627 328.248  0.00  0.00    +0.000 HD
ENDBRANCH   6   7
BRANCH   1   9
ATOM      9  O   UNL     1      53.183 246.749 325.282  0.00  0.00    +0.000 OA
BRANCH   9  10
ATOM     10  C   UNL     1      54.112 246.698 324.331  0.00  0.00    +0.000 C 
BRANCH  10  11
ATOM     11  C   UNL     1      55.111 246.627 323.315  0.00  0.00    +0.000 A 
ATOM     12  C   UNL     1      55.236 245.474 322.545  0.00  0.00    +0.000 A 
ATOM     13  C   UNL     1      56.216 245.403 321.556  0.00  0.00    +0.000 A 
ATOM     14  C   UNL     1      57.067 246.485 321.341  0.00  0.00    +0.000 A 
ATOM     15  C   UNL     1      56.939 247.638 322.112  0.00  0.00    +0.000 A 
ATOM     16  C   UNL     1      55.961 247.710 323.101  0.00  0.00    +0.000 A 
ENDBRANCH  10  11
ENDBRANCH   9  10
ENDBRANCH   1   9
TORSDOF 4
ENDMDL
MODEL 3
REMARK VINA RESULT:      -4.5     26.944     28.555
REMARK  Name = Monobenzone.pdbqt.pdb
REMARK  4 active torsions:
REMARK  status: ('A' for Active; 'I' for Inactive)
REMARK    1  A    between atoms: C_1  and  O_7
REMARK    2  A    between atoms: C_6  and  O_15
REMARK    3  A    between atoms: O_7  and  C_8
REMARK    4  A    between atoms: C_8  and  C_9
REMARK                            x       y       z     vdW  Elec       q    Type
REMARK                         _______ _______ _______ _____ _____    ______ ____
ROOT
ATOM      1  C   UNL     1      57.735 217.566 335.409  0.00  0.00    +0.000 A 
ATOM      2  C   UNL     1      56.986 216.828 336.329  0.00  0.00    +0.000 A 
ATOM      3  C   UNL     1      58.361 218.746 335.815  0.00  0.00    +0.000 A 
ATOM      4  C   UNL     1      56.864 217.264 337.645  0.00  0.00    +0.000 A 
ATOM      5  C   UNL     1      58.241 219.187 337.130  0.00  0.00    +0.000 A 
ATOM      6  C   UNL     1      57.493 218.442 338.036  0.00  0.00    +0.000 A 
ENDROOT
BRANCH   6   7
ATOM      7  O   UNL     1      57.390 218.893 339.319  0.00  0.00    +0.000 OA
ATOM      8  H   UNL     1      58.284 218.938 339.700  0.00  0.00    +0.000 HD
ENDBRANCH   6   7
BRANCH   1   9
ATOM      9  O   UNL     1      57.913 217.217 334.093  0.00  0.00    +0.000 OA
BRANCH   9  10
ATOM     10  C   UNL     1      56.939 217.606 333.275  0.00  0.00    +0.000 C 
BRANCH  10  11
ATOM     11  C   UNL     1      55.902 218.036 332.395  0.00  0.00    +0.000 A 
ATOM     12  C   UNL     1      55.923 217.647 331.057  0.00  0.00    +0.000 A 
ATOM     13  C   UNL     1      54.913 218.072 330.196  0.00  0.00    +0.000 A 
ATOM     14  C   UNL     1      53.887 218.884 330.674  0.00  0.00    +0.000 A 
ATOM     15  C   UNL     1      53.868 219.271 332.012  0.00  0.00    +0.000 A 
ATOM     16  C   UNL     1      54.876 218.847 332.874  0.00  0.00    +0.000 A 
ENDBRANCH  10  11
ENDBRANCH   9  10
ENDBRANCH   1   9
TORSDOF 4
ENDMDL
MODEL 4
REMARK VINA RESULT:      -4.2     25.867     28.783
REMARK  Name = Monobenzone.pdbqt.pdb
REMARK  4 active torsions:
REMARK  status: ('A' for Active; 'I' for Inactive)
REMARK    1  A    between atoms: C_1  and  O_7
REMARK    2  A    between atoms: C_6  and  O_15
REMARK    3  A    between atoms: O_7  and  C_8
REMARK    4  A    between atoms: C_8  and  C_9
REMARK                            x       y       z     vdW  Elec       q    Type
REMARK                         _______ _______ _______ _____ _____    ______ ____
ROOT
ATOM      1  C   UNL     1      66.214 233.244 346.115  0.00  0.00    +0.000 A 
ATOM      2  C   UNL     1      66.020 234.467 345.469  0.00  0.00    +0.000 A 
ATOM      3  C   UNL     1      66.179 232.059 345.378  0.00  0.00    +0.000 A 
ATOM      4  C   UNL     1      65.793 234.507 344.096  0.00  0.00    +0.000 A 
ATOM      5  C   UNL     1      65.951 232.093 344.005  0.00  0.00    +0.000 A 
ATOM      6  C   UNL     1      65.760 233.319 343.374  0.00  0.00    +0.000 A 
ENDROOT
BRANCH   6   7
ATOM      7  O   UNL     1      65.540 233.328 342.028  0.00  0.00    +0.000 OA
ATOM      8  H   UNL     1      64.773 232.760 341.840  0.00  0.00    +0.000 HD
ENDBRANCH   6   7
BRANCH   1   9
ATOM      9  O   UNL     1      66.444 233.104 347.461  0.00  0.00    +0.000 OA
BRANCH   9  10
ATOM     10  C   UNL     1      65.903 232.020 348.011  0.00  0.00    +0.000 C 
BRANCH  10  11
ATOM     11  C   UNL     1      65.324 230.850 348.587  0.00  0.00    +0.000 A 
ATOM     12  C   UNL     1      66.123 229.966 349.309  0.00  0.00    +0.000 A 
ATOM     13  C   UNL     1      65.559 228.821 349.867  0.00  0.00    +0.000 A 
ATOM     14  C   UNL     1      64.200 228.563 349.702  0.00  0.00    +0.000 A 
ATOM     15  C   UNL     1      63.404 229.449 348.980  0.00  0.00    +0.000 A 
ATOM     16  C   UNL     1      63.966 230.594 348.422  0.00  0.00    +0.000 A 
ENDBRANCH  10  11
ENDBRANCH   9  10
ENDBRANCH   1   9
TORSDOF 4
ENDMDL
MODEL 5
REMARK VINA RESULT:      -4.2     26.585     28.339
REMARK  Name = Monobenzone.pdbqt.pdb
REMARK  4 active torsions:
REMARK  status: ('A' for Active; 'I' for Inactive)
REMARK    1  A    between atoms: C_1  and  O_7
REMARK    2  A    between atoms: C_6  and  O_15
REMARK    3  A    between atoms: O_7  and  C_8
REMARK    4  A    between atoms: C_8  and  C_9
REMARK                            x       y       z     vdW  Elec       q    Type
REMARK                         _______ _______ _______ _____ _____    ______ ____
ROOT
ATOM      1  C   UNL     1      55.021 217.615 332.524  0.00  0.00    +0.000 A 
ATOM      2  C   UNL     1      54.783 218.829 331.874  0.00  0.00    +0.000 A 
ATOM      3  C   UNL     1      53.948 216.789 332.862  0.00  0.00    +0.000 A 
ATOM      4  C   UNL     1      53.481 219.214 331.563  0.00  0.00    +0.000 A 
ATOM      5  C   UNL     1      52.645 217.170 332.555  0.00  0.00    +0.000 A 
ATOM      6  C   UNL     1      52.422 218.381 331.907  0.00  0.00    +0.000 A 
ENDROOT
BRANCH   6   7
ATOM      7  O   UNL     1      51.137 218.733 331.615  0.00  0.00    +0.000 OA
ATOM      8  H   UNL     1      50.702 219.014 332.439  0.00  0.00    +0.000 HD
ENDBRANCH   6   7
BRANCH   1   9
ATOM      9  O   UNL     1      56.266 217.151 332.870  0.00  0.00    +0.000 OA
BRANCH   9  10
ATOM     10  C   UNL     1      56.768 217.675 333.985  0.00  0.00    +0.000 C 
BRANCH  10  11
ATOM     11  C   UNL     1      57.299 218.225 335.189  0.00  0.00    +0.000 A 
ATOM     12  C   UNL     1      56.552 219.149 335.917  0.00  0.00    +0.000 A 
ATOM     13  C   UNL     1      57.073 219.691 337.090  0.00  0.00    +0.000 A 
ATOM     14  C   UNL     1      58.337 219.307 337.533  0.00  0.00    +0.000 A 
ATOM     15  C   UNL     1      59.081 218.382 336.804  0.00  0.00    +0.000 A 
ATOM     16  C   UNL     1      58.562 217.840 335.631  0.00  0.00    +0.000 A 
ENDBRANCH  10  11
ENDBRANCH   9  10
ENDBRANCH   1   9
TORSDOF 4
ENDMDL
MODEL 6
REMARK VINA RESULT:      -4.1      2.405      6.463
REMARK  Name = Monobenzone.pdbqt.pdb
REMARK  4 active torsions:
REMARK  status: ('A' for Active; 'I' for Inactive)
REMARK    1  A    between atoms: C_1  and  O_7
REMARK    2  A    between atoms: C_6  and  O_15
REMARK    3  A    between atoms: O_7  and  C_8
REMARK    4  A    between atoms: C_8  and  C_9
REMARK                            x       y       z     vdW  Elec       q    Type
REMARK                         _______ _______ _______ _____ _____    ______ ____
ROOT
ATOM      1  C   UNL     1      55.968 245.509 321.952  0.00  0.00    +0.000 A 
ATOM      2  C   UNL     1      56.979 245.392 320.995  0.00  0.00    +0.000 A 
ATOM      3  C   UNL     1      55.803 246.712 322.640  0.00  0.00    +0.000 A 
ATOM      4  C   UNL     1      57.818 246.470 320.725  0.00  0.00    +0.000 A 
ATOM      5  C   UNL     1      56.640 247.793 322.376  0.00  0.00    +0.000 A 
ATOM      6  C   UNL     1      57.642 247.663 321.419  0.00  0.00    +0.000 A 
ENDROOT
BRANCH   6   7
ATOM      7  O   UNL     1      58.450 248.735 321.176  0.00  0.00    +0.000 OA
ATOM      8  H   UNL     1      58.401 249.334 321.941  0.00  0.00    +0.000 HD
ENDBRANCH   6   7
BRANCH   1   9
ATOM      9  O   UNL     1      55.094 244.504 322.285  0.00  0.00    +0.000 OA
BRANCH   9  10
ATOM     10  C   UNL     1      54.533 244.626 323.486  0.00  0.00    +0.000 C 
BRANCH  10  11
ATOM     11  C   UNL     1      53.936 244.741 324.776  0.00  0.00    +0.000 A 
ATOM     12  C   UNL     1      53.925 243.645 325.635  0.00  0.00    +0.000 A 
ATOM     13  C   UNL     1      53.336 243.756 326.893  0.00  0.00    +0.000 A 
ATOM     14  C   UNL     1      52.761 244.961 327.288  0.00  0.00    +0.000 A 
ATOM     15  C   UNL     1      52.773 246.056 326.427  0.00  0.00    +0.000 A 
ATOM     16  C   UNL     1      53.361 245.947 325.170  0.00  0.00    +0.000 A 
ENDBRANCH  10  11
ENDBRANCH   9  10
ENDBRANCH   1   9
TORSDOF 4
ENDMDL
MODEL 7
REMARK VINA RESULT:      -4.1     29.516     32.807
REMARK  Name = Monobenzone.pdbqt.pdb
REMARK  4 active torsions:
REMARK  status: ('A' for Active; 'I' for Inactive)
REMARK    1  A    between atoms: C_1  and  O_7
REMARK    2  A    between atoms: C_6  and  O_15
REMARK    3  A    between atoms: O_7  and  C_8
REMARK    4  A    between atoms: C_8  and  C_9
REMARK                            x       y       z     vdW  Elec       q    Type
REMARK                         _______ _______ _______ _____ _____    ______ ____
ROOT
ATOM      1  C   UNL     1      60.953 230.135 350.854  0.00  0.00    +0.000 A 
ATOM      2  C   UNL     1      60.985 230.660 349.560  0.00  0.00    +0.000 A 
ATOM      3  C   UNL     1      62.114 229.597 351.411  0.00  0.00    +0.000 A 
ATOM      4  C   UNL     1      62.169 230.648 348.827  0.00  0.00    +0.000 A 
ATOM      5  C   UNL     1      63.301 229.582 350.683  0.00  0.00    +0.000 A 
ATOM      6  C   UNL     1      63.318 230.109 349.396  0.00  0.00    +0.000 A 
ENDROOT
BRANCH   6   7
ATOM      7  O   UNL     1      64.492 230.085 348.701  0.00  0.00    +0.000 OA
ATOM      8  H   UNL     1      65.166 229.653 349.254  0.00  0.00    +0.000 HD
ENDBRANCH   6   7
BRANCH   1   9
ATOM      9  O   UNL     1      59.836 230.102 351.652  0.00  0.00    +0.000 OA
BRANCH   9  10
ATOM     10  C   UNL     1      59.583 228.922 352.212  0.00  0.00    +0.000 C 
BRANCH  10  11
ATOM     11  C   UNL     1      59.303 227.665 352.824  0.00  0.00    +0.000 A 
ATOM     12  C   UNL     1      60.308 226.991 353.514  0.00  0.00    +0.000 A 
ATOM     13  C   UNL     1      60.036 225.760 354.107  0.00  0.00    +0.000 A 
ATOM     14  C   UNL     1      58.762 225.206 354.009  0.00  0.00    +0.000 A 
ATOM     15  C   UNL     1      57.758 225.883 353.319  0.00  0.00    +0.000 A 
ATOM     16  C   UNL     1      58.028 227.113 352.725  0.00  0.00    +0.000 A 
ENDBRANCH  10  11
ENDBRANCH   9  10
ENDBRANCH   1   9
TORSDOF 4
ENDMDL
MODEL 8
REMARK VINA RESULT:      -4.0      9.694     13.390
REMARK  Name = Monobenzone.pdbqt.pdb
REMARK  4 active torsions:
REMARK  status: ('A' for Active; 'I' for Inactive)
REMARK    1  A    between atoms: C_1  and  O_7
REMARK    2  A    between atoms: C_6  and  O_15
REMARK    3  A    between atoms: O_7  and  C_8
REMARK    4  A    between atoms: C_8  and  C_9
REMARK                            x       y       z     vdW  Elec       q    Type
REMARK                         _______ _______ _______ _____ _____    ______ ____
ROOT
ATOM      1  C   UNL     1      46.855 236.634 324.425  0.00  0.00    +0.000 A 
ATOM      2  C   UNL     1      48.127 236.320 323.941  0.00  0.00    +0.000 A 
ATOM      3  C   UNL     1      46.716 237.587 325.436  0.00  0.00    +0.000 A 
ATOM      4  C   UNL     1      49.253 236.953 324.462  0.00  0.00    +0.000 A 
ATOM      5  C   UNL     1      47.838 238.223 325.961  0.00  0.00    +0.000 A 
ATOM      6  C   UNL     1      49.099 237.900 325.468  0.00  0.00    +0.000 A 
ENDROOT
BRANCH   6   7
ATOM      7  O   UNL     1      50.184 238.536 325.997  0.00  0.00    +0.000 OA
ATOM      8  H   UNL     1      50.977 238.015 325.786  0.00  0.00    +0.000 HD
ENDBRANCH   6   7
BRANCH   1   9
ATOM      9  O   UNL     1      45.690 236.065 323.975  0.00  0.00    +0.000 OA
BRANCH   9  10
ATOM     10  C   UNL     1      45.584 234.757 324.198  0.00  0.00    +0.000 C 
BRANCH  10  11
ATOM     11  C   UNL     1      45.470 233.353 324.421  0.00  0.00    +0.000 A 
ATOM     12  C   UNL     1      46.215 232.466 323.648  0.00  0.00    +0.000 A 
ATOM     13  C   UNL     1      46.100 231.094 323.863  0.00  0.00    +0.000 A 
ATOM     14  C   UNL     1      45.241 230.614 324.848  0.00  0.00    +0.000 A 
ATOM     15  C   UNL     1      44.497 231.503 325.620  0.00  0.00    +0.000 A 
ATOM     16  C   UNL     1      44.611 232.874 325.407  0.00  0.00    +0.000 A 
ENDBRANCH  10  11
ENDBRANCH   9  10
ENDBRANCH   1   9
TORSDOF 4
ENDMDL
MODEL 9
REMARK VINA RESULT:      -4.0      9.682     12.688
REMARK  Name = Monobenzone.pdbqt.pdb
REMARK  4 active torsions:
REMARK  status: ('A' for Active; 'I' for Inactive)
REMARK    1  A    between atoms: C_1  and  O_7
REMARK    2  A    between atoms: C_6  and  O_15
REMARK    3  A    between atoms: O_7  and  C_8
REMARK    4  A    between atoms: C_8  and  C_9
REMARK                            x       y       z     vdW  Elec       q    Type
REMARK                         _______ _______ _______ _____ _____    ______ ____
ROOT
ATOM      1  C   UNL     1      47.055 236.139 324.263  0.00  0.00    +0.000 A 
ATOM      2  C   UNL     1      48.379 235.940 323.865  0.00  0.00    +0.000 A 
ATOM      3  C   UNL     1      46.756 237.127 325.203  0.00  0.00    +0.000 A 
ATOM      4  C   UNL     1      49.398 236.723 324.401  0.00  0.00    +0.000 A 
ATOM      5  C   UNL     1      47.772 237.912 325.743  0.00  0.00    +0.000 A 
ATOM      6  C   UNL     1      49.086 237.703 325.337  0.00  0.00    +0.000 A 
ENDROOT
BRANCH   6   7
ATOM      7  O   UNL     1      50.064 238.485 325.879  0.00  0.00    +0.000 OA
ATOM      8  H   UNL     1      49.842 238.648 326.812  0.00  0.00    +0.000 HD
ENDBRANCH   6   7
BRANCH   1   9
ATOM      9  O   UNL     1      45.985 235.420 323.791  0.00  0.00    +0.000 OA
BRANCH   9  10
ATOM     10  C   UNL     1      46.299 234.440 322.947  0.00  0.00    +0.000 C 
BRANCH  10  11
ATOM     11  C   UNL     1      46.635 233.401 322.029  0.00  0.00    +0.000 A 
ATOM     12  C   UNL     1      47.568 232.432 322.390  0.00  0.00    +0.000 A 
ATOM     13  C   UNL     1      47.899 231.420 321.491  0.00  0.00    +0.000 A 
ATOM     14  C   UNL     1      47.297 231.379 320.236  0.00  0.00    +0.000 A 
ATOM     15  C   UNL     1      46.364 232.349 319.878  0.00  0.00    +0.000 A 
ATOM     16  C   UNL     1      46.031 233.361 320.774  0.00  0.00    +0.000 A 
ENDBRANCH  10  11
ENDBRANCH   9  10
ENDBRANCH   1   9
TORSDOF 4
ENDMDL
