MODEL 1
REMARK VINA RESULT:      -4.8      0.000      0.000
REMARK  Name = 
REMARK  5 active torsions:
REMARK  status: ('A' for Active; 'I' for Inactive)
REMARK    1  A    between atoms: O_4  and  C_15
REMARK    2  A    between atoms: C_6  and  C_13
REMARK    3  A    between atoms: C_7  and  C_12
REMARK    4  A    between atoms: C_8  and  C_14
REMARK    5  A    between atoms: C_12  and  C_15
REMARK                            x       y       z     vdW  Elec       q    Type
REMARK                         _______ _______ _______ _____ _____    ______ ____
ROOT
ATOM      1  C   UNL     1      48.203 235.942 324.013  0.00  0.00    +0.000 A 
ATOM      2  C   UNL     1      48.274 238.311 324.639  0.00  0.00    +0.000 A 
ATOM      3  C   UNL     1      46.813 235.922 324.259  0.00  0.00    +0.000 A 
ATOM      4  C   UNL     1      48.916 237.143 324.208  0.00  0.00    +0.000 A 
ATOM      5  C   UNL     1      46.899 238.273 324.890  0.00  0.00    +0.000 A 
ATOM      6  C   UNL     1      46.178 237.093 324.700  0.00  0.00    +0.000 A 
ATOM      7  C   UNL     1      45.999 234.670 324.075  0.00  0.00    +0.000 C 
ENDROOT
BRANCH   1  11
ATOM      8  F   UNL     1      50.281 234.918 323.399  0.00  0.00    +0.000 F 
ATOM      9  F   UNL     1      48.835 233.650 324.401  0.00  0.00    +0.000 F 
ATOM     10  F   UNL     1      48.502 234.248 322.340  0.00  0.00    +0.000 F 
ATOM     11  C   UNL     1      48.942 234.707 323.545  0.00  0.00    +0.000 C 
ENDBRANCH   1  11
BRANCH   2  12
ATOM     12  C   UNL     1      49.058 239.583 324.859  0.00  0.00    +0.000 C 
BRANCH  12  14
ATOM     13  O   UNL     1      48.790 240.520 327.118  0.00  0.00    +0.000 OA
ATOM     14  C   UNL     1      49.401 239.847 326.305  0.00  0.00    +0.000 C 
BRANCH  14  15
ATOM     15  O   UNL     1      50.532 239.207 326.676  0.00  0.00    +0.000 OA
ATOM     16  H   UNL     1      50.209 238.478 327.248  0.00  0.00    +0.000 HD
ENDBRANCH  14  15
ENDBRANCH  12  14
ENDBRANCH   2  12
TORSDOF 4
ENDMDL
MODEL 2
REMARK VINA RESULT:      -4.6     23.401     24.376
REMARK  Name = 
REMARK  5 active torsions:
REMARK  status: ('A' for Active; 'I' for Inactive)
REMARK    1  A    between atoms: O_4  and  C_15
REMARK    2  A    between atoms: C_6  and  C_13
REMARK    3  A    between atoms: C_7  and  C_12
REMARK    4  A    between atoms: C_8  and  C_14
REMARK    5  A    between atoms: C_12  and  C_15
REMARK                            x       y       z     vdW  Elec       q    Type
REMARK                         _______ _______ _______ _____ _____    ______ ____
ROOT
ATOM      1  C   UNL     1      54.955 240.747 348.032  0.00  0.00    +0.000 A 
ATOM      2  C   UNL     1      55.399 243.008 347.198  0.00  0.00    +0.000 A 
ATOM      3  C   UNL     1      53.790 240.687 347.237  0.00  0.00    +0.000 A 
ATOM      4  C   UNL     1      55.745 241.913 348.001  0.00  0.00    +0.000 A 
ATOM      5  C   UNL     1      54.237 242.939 346.425  0.00  0.00    +0.000 A 
ATOM      6  C   UNL     1      53.443 241.790 346.443  0.00  0.00    +0.000 A 
ATOM      7  C   UNL     1      52.902 239.471 347.232  0.00  0.00    +0.000 C 
ENDROOT
BRANCH   1  11
ATOM      8  F   UNL     1      56.505 239.853 349.626  0.00  0.00    +0.000 F 
ATOM      9  F   UNL     1      54.434 239.246 349.844  0.00  0.00    +0.000 F 
ATOM     10  F   UNL     1      55.626 238.450 348.213  0.00  0.00    +0.000 F 
ATOM     11  C   UNL     1      55.372 239.590 348.915  0.00  0.00    +0.000 C 
ENDBRANCH   1  11
BRANCH   2  12
ATOM     12  C   UNL     1      56.250 244.257 347.192  0.00  0.00    +0.000 C 
BRANCH  12  14
ATOM     13  O   UNL     1      55.973 245.899 345.382  0.00  0.00    +0.000 OA
ATOM     14  C   UNL     1      56.438 244.862 345.823  0.00  0.00    +0.000 C 
BRANCH  14  15
ATOM     15  O   UNL     1      57.253 244.110 345.051  0.00  0.00    +0.000 OA
ATOM     16  H   UNL     1      57.445 243.327 345.612  0.00  0.00    +0.000 HD
ENDBRANCH  14  15
ENDBRANCH  12  14
ENDBRANCH   2  12
TORSDOF 4
ENDMDL
MODEL 3
REMARK VINA RESULT:      -4.6      9.700     11.531
REMARK  Name = 
REMARK  5 active torsions:
REMARK  status: ('A' for Active; 'I' for Inactive)
REMARK    1  A    between atoms: O_4  and  C_15
REMARK    2  A    between atoms: C_6  and  C_13
REMARK    3  A    between atoms: C_7  and  C_12
REMARK    4  A    between atoms: C_8  and  C_14
REMARK    5  A    between atoms: C_12  and  C_15
REMARK                            x       y       z     vdW  Elec       q    Type
REMARK                         _______ _______ _______ _____ _____    ______ ____
ROOT
ATOM      1  C   UNL     1      54.261 246.744 324.364  0.00  0.00    +0.000 A 
ATOM      2  C   UNL     1      53.151 244.612 324.842  0.00  0.00    +0.000 A 
ATOM      3  C   UNL     1      54.994 246.126 323.328  0.00  0.00    +0.000 A 
ATOM      4  C   UNL     1      53.346 245.973 325.109  0.00  0.00    +0.000 A 
ATOM      5  C   UNL     1      53.893 244.011 323.821  0.00  0.00    +0.000 A 
ATOM      6  C   UNL     1      54.802 244.761 323.072  0.00  0.00    +0.000 A 
ATOM      7  C   UNL     1      55.990 246.895 322.502  0.00  0.00    +0.000 C 
ENDROOT
BRANCH   1  11
ATOM      8  F   UNL     1      55.723 248.531 325.007  0.00  0.00    +0.000 F 
ATOM      9  F   UNL     1      54.098 249.045 323.665  0.00  0.00    +0.000 F 
ATOM     10  F   UNL     1      53.679 248.614 325.751  0.00  0.00    +0.000 F 
ATOM     11  C   UNL     1      54.435 248.212 324.691  0.00  0.00    +0.000 C 
ENDBRANCH   1  11
BRANCH   2  12
ATOM     12  C   UNL     1      52.179 243.799 325.664  0.00  0.00    +0.000 C 
BRANCH  12  14
ATOM     13  O   UNL     1      53.822 243.410 327.453  0.00  0.00    +0.000 OA
ATOM     14  C   UNL     1      52.810 243.104 326.846  0.00  0.00    +0.000 C 
BRANCH  14  15
ATOM     15  O   UNL     1      52.093 242.026 327.233  0.00  0.00    +0.000 OA
ATOM     16  H   UNL     1      52.217 241.389 326.497  0.00  0.00    +0.000 HD
ENDBRANCH  14  15
ENDBRANCH  12  14
ENDBRANCH   2  12
TORSDOF 4
ENDMDL
MODEL 4
REMARK VINA RESULT:      -4.4      8.674      9.720
REMARK  Name = 
REMARK  5 active torsions:
REMARK  status: ('A' for Active; 'I' for Inactive)
REMARK    1  A    between atoms: O_4  and  C_15
REMARK    2  A    between atoms: C_6  and  C_13
REMARK    3  A    between atoms: C_7  and  C_12
REMARK    4  A    between atoms: C_8  and  C_14
REMARK    5  A    between atoms: C_12  and  C_15
REMARK                            x       y       z     vdW  Elec       q    Type
REMARK                         _______ _______ _______ _____ _____    ______ ____
ROOT
ATOM      1  C   UNL     1      54.253 244.635 323.364  0.00  0.00    +0.000 A 
ATOM      2  C   UNL     1      53.242 244.065 325.523  0.00  0.00    +0.000 A 
ATOM      3  C   UNL     1      53.532 243.586 322.754  0.00  0.00    +0.000 A 
ATOM      4  C   UNL     1      54.097 244.859 324.747  0.00  0.00    +0.000 A 
ATOM      5  C   UNL     1      52.543 243.022 324.907  0.00  0.00    +0.000 A 
ATOM      6  C   UNL     1      52.685 242.788 323.538  0.00  0.00    +0.000 A 
ATOM      7  C   UNL     1      53.661 243.294 321.283  0.00  0.00    +0.000 C 
ENDROOT
BRANCH   1  11
ATOM      8  F   UNL     1      55.717 246.531 323.316  0.00  0.00    +0.000 F 
ATOM      9  F   UNL     1      56.260 244.856 322.049  0.00  0.00    +0.000 F 
ATOM     10  F   UNL     1      54.579 246.119 321.507  0.00  0.00    +0.000 F 
ATOM     11  C   UNL     1      55.188 245.521 322.569  0.00  0.00    +0.000 C 
ENDBRANCH   1  11
BRANCH   2  12
ATOM     12  C   UNL     1      53.101 244.309 327.007  0.00  0.00    +0.000 C 
BRANCH  12  14
ATOM     13  O   UNL     1      50.871 243.654 327.810  0.00  0.00    +0.000 OA
ATOM     14  C   UNL     1      52.063 243.440 327.674  0.00  0.00    +0.000 C 
BRANCH  14  15
ATOM     15  O   UNL     1      52.598 242.290 328.138  0.00  0.00    +0.000 OA
ATOM     16  H   UNL     1      52.094 242.116 328.963  0.00  0.00    +0.000 HD
ENDBRANCH  14  15
ENDBRANCH  12  14
ENDBRANCH   2  12
TORSDOF 4
ENDMDL
MODEL 5
REMARK VINA RESULT:      -4.4     29.281     30.297
REMARK  Name = 
REMARK  5 active torsions:
REMARK  status: ('A' for Active; 'I' for Inactive)
REMARK    1  A    between atoms: O_4  and  C_15
REMARK    2  A    between atoms: C_6  and  C_13
REMARK    3  A    between atoms: C_7  and  C_12
REMARK    4  A    between atoms: C_8  and  C_14
REMARK    5  A    between atoms: C_12  and  C_15
REMARK                            x       y       z     vdW  Elec       q    Type
REMARK                         _______ _______ _______ _____ _____    ______ ____
ROOT
ATOM      1  C   UNL     1      71.061 222.567 338.221  0.00  0.00    +0.000 A 
ATOM      2  C   UNL     1      72.747 222.630 336.444  0.00  0.00    +0.000 A 
ATOM      3  C   UNL     1      70.223 221.787 337.394  0.00  0.00    +0.000 A 
ATOM      4  C   UNL     1      72.316 222.979 337.730  0.00  0.00    +0.000 A 
ATOM      5  C   UNL     1      71.903 221.867 335.632  0.00  0.00    +0.000 A 
ATOM      6  C   UNL     1      70.657 221.449 336.103  0.00  0.00    +0.000 A 
ATOM      7  C   UNL     1      68.870 221.322 337.858  0.00  0.00    +0.000 C 
ENDROOT
BRANCH   1  11
ATOM      8  F   UNL     1      69.566 223.809 339.623  0.00  0.00    +0.000 F 
ATOM      9  F   UNL     1      70.278 221.915 340.405  0.00  0.00    +0.000 F 
ATOM     10  F   UNL     1      71.624 223.616 340.304  0.00  0.00    +0.000 F 
ATOM     11  C   UNL     1      70.640 222.970 339.618  0.00  0.00    +0.000 C 
ENDBRANCH   1  11
BRANCH   2  12
ATOM     12  C   UNL     1      74.088 223.097 335.929  0.00  0.00    +0.000 C 
BRANCH  12  14
ATOM     13  O   UNL     1      73.956 224.296 333.785  0.00  0.00    +0.000 OA
ATOM     14  C   UNL     1      74.008 224.286 335.004  0.00  0.00    +0.000 C 
BRANCH  14  15
ATOM     15  O   UNL     1      73.977 225.451 335.687  0.00  0.00    +0.000 OA
ATOM     16  H   UNL     1      73.182 225.365 336.256  0.00  0.00    +0.000 HD
ENDBRANCH  14  15
ENDBRANCH  12  14
ENDBRANCH   2  12
TORSDOF 4
ENDMDL
MODEL 6
REMARK VINA RESULT:      -4.4     17.719     19.015
REMARK  Name = 
REMARK  5 active torsions:
REMARK  status: ('A' for Active; 'I' for Inactive)
REMARK    1  A    between atoms: O_4  and  C_15
REMARK    2  A    between atoms: C_6  and  C_13
REMARK    3  A    between atoms: C_7  and  C_12
REMARK    4  A    between atoms: C_8  and  C_14
REMARK    5  A    between atoms: C_12  and  C_15
REMARK                            x       y       z     vdW  Elec       q    Type
REMARK                         _______ _______ _______ _____ _____    ______ ____
ROOT
ATOM      1  C   UNL     1      47.049 241.657 342.690  0.00  0.00    +0.000 A 
ATOM      2  C   UNL     1      47.961 243.930 342.584  0.00  0.00    +0.000 A 
ATOM      3  C   UNL     1      46.474 241.951 343.945  0.00  0.00    +0.000 A 
ATOM      4  C   UNL     1      47.788 242.657 342.025  0.00  0.00    +0.000 A 
ATOM      5  C   UNL     1      47.395 244.202 343.832  0.00  0.00    +0.000 A 
ATOM      6  C   UNL     1      46.659 243.225 344.503  0.00  0.00    +0.000 A 
ATOM      7  C   UNL     1      45.679 240.924 344.706  0.00  0.00    +0.000 C 
ENDROOT
BRANCH   1  11
ATOM      8  F   UNL     1      47.205 239.274 342.890  0.00  0.00    +0.000 F 
ATOM      9  F   UNL     1      45.621 240.038 341.621  0.00  0.00    +0.000 F 
ATOM     10  F   UNL     1      47.683 240.133 340.948  0.00  0.00    +0.000 F 
ATOM     11  C   UNL     1      46.891 240.297 342.044  0.00  0.00    +0.000 C 
ENDBRANCH   1  11
BRANCH   2  12
ATOM     12  C   UNL     1      48.772 244.981 341.864  0.00  0.00    +0.000 C 
BRANCH  12  14
ATOM     13  O   UNL     1      50.854 244.856 343.167  0.00  0.00    +0.000 OA
ATOM     14  C   UNL     1      50.258 244.878 342.104  0.00  0.00    +0.000 C 
BRANCH  14  15
ATOM     15  O   UNL     1      50.946 244.782 340.945  0.00  0.00    +0.000 OA
ATOM     16  H   UNL     1      51.090 245.718 340.683  0.00  0.00    +0.000 HD
ENDBRANCH  14  15
ENDBRANCH  12  14
ENDBRANCH   2  12
TORSDOF 4
ENDMDL
MODEL 7
REMARK VINA RESULT:      -4.4     24.078     25.302
REMARK  Name = 
REMARK  5 active torsions:
REMARK  status: ('A' for Active; 'I' for Inactive)
REMARK    1  A    between atoms: O_4  and  C_15
REMARK    2  A    between atoms: C_6  and  C_13
REMARK    3  A    between atoms: C_7  and  C_12
REMARK    4  A    between atoms: C_8  and  C_14
REMARK    5  A    between atoms: C_12  and  C_15
REMARK                            x       y       z     vdW  Elec       q    Type
REMARK                         _______ _______ _______ _____ _____    ______ ____
ROOT
ATOM      1  C   UNL     1      55.755 241.205 348.523  0.00  0.00    +0.000 A 
ATOM      2  C   UNL     1      53.790 240.272 347.394  0.00  0.00    +0.000 A 
ATOM      3  C   UNL     1      55.559 242.428 347.845  0.00  0.00    +0.000 A 
ATOM      4  C   UNL     1      54.863 240.140 348.285  0.00  0.00    +0.000 A 
ATOM      5  C   UNL     1      53.615 241.485 346.722  0.00  0.00    +0.000 A 
ATOM      6  C   UNL     1      54.489 242.550 346.947  0.00  0.00    +0.000 A 
ATOM      7  C   UNL     1      56.481 243.599 348.053  0.00  0.00    +0.000 C 
ENDROOT
BRANCH   1  11
ATOM      8  F   UNL     1      56.956 239.747 349.998  0.00  0.00    +0.000 F 
ATOM      9  F   UNL     1      58.127 241.239 348.946  0.00  0.00    +0.000 F 
ATOM     10  F   UNL     1      56.825 241.841 350.575  0.00  0.00    +0.000 F 
ATOM     11  C   UNL     1      56.900 241.013 349.496  0.00  0.00    +0.000 C 
ENDBRANCH   1  11
BRANCH   2  12
ATOM     12  C   UNL     1      52.856 239.113 347.139  0.00  0.00    +0.000 C 
BRANCH  12  14
ATOM     13  O   UNL     1      51.428 239.706 349.053  0.00  0.00    +0.000 OA
ATOM     14  C   UNL     1      51.828 238.905 348.224  0.00  0.00    +0.000 C 
BRANCH  14  15
ATOM     15  O   UNL     1      51.319 237.654 348.199  0.00  0.00    +0.000 OA
ATOM     16  H   UNL     1      50.472 237.758 347.713  0.00  0.00    +0.000 HD
ENDBRANCH  14  15
ENDBRANCH  12  14
ENDBRANCH   2  12
TORSDOF 4
ENDMDL
MODEL 8
REMARK VINA RESULT:      -4.3     30.240     31.429
REMARK  Name = 
REMARK  5 active torsions:
REMARK  status: ('A' for Active; 'I' for Inactive)
REMARK    1  A    between atoms: O_4  and  C_15
REMARK    2  A    between atoms: C_6  and  C_13
REMARK    3  A    between atoms: C_7  and  C_12
REMARK    4  A    between atoms: C_8  and  C_14
REMARK    5  A    between atoms: C_12  and  C_15
REMARK                            x       y       z     vdW  Elec       q    Type
REMARK                         _______ _______ _______ _____ _____    ______ ____
ROOT
ATOM      1  C   UNL     1      62.634 229.706 350.279  0.00  0.00    +0.000 A 
ATOM      2  C   UNL     1      64.414 228.071 350.685  0.00  0.00    +0.000 A 
ATOM      3  C   UNL     1      62.160 229.511 351.594  0.00  0.00    +0.000 A 
ATOM      4  C   UNL     1      63.759 228.979 349.842  0.00  0.00    +0.000 A 
ATOM      5  C   UNL     1      63.926 227.879 351.981  0.00  0.00    +0.000 A 
ATOM      6  C   UNL     1      62.813 228.593 352.430  0.00  0.00    +0.000 A 
ATOM      7  C   UNL     1      60.960 230.254 352.117  0.00  0.00    +0.000 C 
ENDROOT
BRANCH   1  11
ATOM      8  F   UNL     1      62.100 231.975 349.722  0.00  0.00    +0.000 F 
ATOM      9  F   UNL     1      62.454 230.627 348.059  0.00  0.00    +0.000 F 
ATOM     10  F   UNL     1      60.622 230.461 349.212  0.00  0.00    +0.000 F 
ATOM     11  C   UNL     1      61.962 230.676 349.330  0.00  0.00    +0.000 C 
ENDBRANCH   1  11
BRANCH   2  12
ATOM     12  C   UNL     1      65.607 227.287 350.192  0.00  0.00    +0.000 C 
BRANCH  12  14
ATOM     13  O   UNL     1      67.546 228.597 350.949  0.00  0.00    +0.000 OA
ATOM     14  C   UNL     1      66.882 227.575 350.946  0.00  0.00    +0.000 C 
BRANCH  14  15
ATOM     15  O   UNL     1      67.261 226.524 351.706  0.00  0.00    +0.000 OA
ATOM     16  H   UNL     1      66.769 225.768 351.319  0.00  0.00    +0.000 HD
ENDBRANCH  14  15
ENDBRANCH  12  14
ENDBRANCH   2  12
TORSDOF 4
ENDMDL
MODEL 9
REMARK VINA RESULT:      -4.2     29.944     31.154
REMARK  Name = 
REMARK  5 active torsions:
REMARK  status: ('A' for Active; 'I' for Inactive)
REMARK    1  A    between atoms: O_4  and  C_15
REMARK    2  A    between atoms: C_6  and  C_13
REMARK    3  A    between atoms: C_7  and  C_12
REMARK    4  A    between atoms: C_8  and  C_14
REMARK    5  A    between atoms: C_12  and  C_15
REMARK                            x       y       z     vdW  Elec       q    Type
REMARK                         _______ _______ _______ _____ _____    ______ ____
ROOT
ATOM      1  C   UNL     1      69.868 221.766 338.964  0.00  0.00    +0.000 A 
ATOM      2  C   UNL     1      70.672 220.803 341.070  0.00  0.00    +0.000 A 
ATOM      3  C   UNL     1      69.005 220.662 338.793  0.00  0.00    +0.000 A 
ATOM      4  C   UNL     1      70.693 221.819 340.106  0.00  0.00    +0.000 A 
ATOM      5  C   UNL     1      69.820 219.711 340.881  0.00  0.00    +0.000 A 
ATOM      6  C   UNL     1      68.995 219.643 339.758  0.00  0.00    +0.000 A 
ATOM      7  C   UNL     1      68.104 220.546 337.593  0.00  0.00    +0.000 C 
ENDROOT
BRANCH   1  11
ATOM      8  F   UNL     1      69.809 222.446 336.667  0.00  0.00    +0.000 F 
ATOM      9  F   UNL     1      68.939 223.817 338.106  0.00  0.00    +0.000 F 
ATOM     10  F   UNL     1      71.096 223.588 338.000  0.00  0.00    +0.000 F 
ATOM     11  C   UNL     1      69.927 222.890 337.951  0.00  0.00    +0.000 C 
ENDBRANCH   1  11
BRANCH   2  12
ATOM     12  C   UNL     1      71.577 220.870 342.277  0.00  0.00    +0.000 C 
BRANCH  12  14
ATOM     13  O   UNL     1      71.279 219.071 343.929  0.00  0.00    +0.000 OA
ATOM     14  C   UNL     1      71.018 220.182 343.499  0.00  0.00    +0.000 C 
BRANCH  14  15
ATOM     15  O   UNL     1      70.139 220.968 344.157  0.00  0.00    +0.000 OA
ATOM     16  H   UNL     1      70.112 221.788 343.618  0.00  0.00    +0.000 HD
ENDBRANCH  14  15
ENDBRANCH  12  14
ENDBRANCH   2  12
TORSDOF 4
ENDMDL
