MODEL 1
REMARK VINA RESULT:      -6.0      0.000      0.000
REMARK  Name = OTSSP167.pdbqt.pdb
REMARK  7 active torsions:
REMARK  status: ('A' for Active; 'I' for Inactive)
REMARK    1  A    between atoms: C_5  and  N_19
REMARK    2  A    between atoms: C_7  and  C_31
REMARK    3  A    between atoms: C_11  and  C_13
REMARK    4  A    between atoms: C_18  and  O_34
REMARK    5  A    between atoms: N_19  and  C_21
REMARK    6  A    between atoms: C_24  and  C_27
REMARK    7  A    between atoms: C_27  and  N_28
REMARK                            x       y       z     vdW  Elec       q    Type
REMARK                         _______ _______ _______ _____ _____    ______ ____
ROOT
ATOM      1  N   UNL     1      71.212 221.221 341.980  0.00  0.00    +0.000 NA
ATOM      2  N   UNL     1      69.184 220.031 339.183  0.00  0.00    +0.000 NA
ATOM      3  C   UNL     1      70.868 222.207 339.780  0.00  0.00    +0.000 A 
ATOM      4  C   UNL     1      70.653 221.187 340.745  0.00  0.00    +0.000 A 
ATOM      5  C   UNL     1      70.216 222.097 338.535  0.00  0.00    +0.000 A 
ATOM      6  C   UNL     1      69.794 220.130 340.375  0.00  0.00    +0.000 A 
ATOM      7  C   UNL     1      69.403 221.013 338.289  0.00  0.00    +0.000 A 
ATOM      8  C   UNL     1      69.568 219.137 341.312  0.00  0.00    +0.000 A 
ATOM      9  C   UNL     1      70.981 220.229 342.875  0.00  0.00    +0.000 A 
ATOM     10  C   UNL     1      70.155 219.166 342.568  0.00  0.00    +0.000 A 
ENDROOT
BRANCH   9  13
ATOM     11 CL   UNL     1      70.679 221.348 347.910  0.00  0.00    +0.000 Cl
ATOM     12 CL   UNL     1      75.386 219.923 345.563  0.00  0.00    +0.000 Cl
ATOM     13  C   UNL     1      71.669 220.350 344.163  0.00  0.00    +0.000 A 
ATOM     14  C   UNL     1      73.043 220.112 344.290  0.00  0.00    +0.000 A 
ATOM     15  C   UNL     1      70.970 220.724 345.318  0.00  0.00    +0.000 A 
ATOM     16  C   UNL     1      71.611 220.861 346.547  0.00  0.00    +0.000 A 
ATOM     17  C   UNL     1      73.694 220.240 345.518  0.00  0.00    +0.000 A 
ATOM     18  C   UNL     1      72.979 220.618 346.654  0.00  0.00    +0.000 A 
BRANCH  18  19
ATOM     19  O   UNL     1      73.624 220.746 347.856  0.00  0.00    +0.000 OA
ATOM     20  H   UNL     1      74.548 221.004 347.682  0.00  0.00    +0.000 HD
ENDBRANCH  18  19
ENDBRANCH   9  13
BRANCH   5  21
ATOM     21  C   UNL     1      70.326 223.107 337.485  0.00  0.00    +0.000 C 
ATOM     22  O   UNL     1      71.183 223.124 336.617  0.00  0.00    +0.000 OA
ATOM     23  C   UNL     1      69.418 224.293 337.367  0.00  0.00    +0.000 C 
ENDBRANCH   5  21
BRANCH   3  24
ATOM     24  N   UNL     1      71.793 223.282 339.976  0.00  0.00    +0.000 N 
ATOM     25  H   UNL     1      71.490 223.984 340.658  0.00  0.00    +0.000 HD
BRANCH  24  26
ATOM     26  C   UNL     1      73.144 223.276 339.767  0.00  0.00    +0.000 A 
ATOM     27  C   UNL     1      73.999 223.280 340.927  0.00  0.00    +0.000 A 
ATOM     28  C   UNL     1      75.308 224.095 341.095  0.00  0.00    +0.000 A 
ATOM     29  C   UNL     1      75.859 224.986 340.102  0.00  0.00    +0.000 A 
ATOM     30  C   UNL     1      74.992 225.003 338.951  0.00  0.00    +0.000 A 
ATOM     31  C   UNL     1      73.685 224.188 338.789  0.00  0.00    +0.000 A 
BRANCH  29  32
ATOM     32  C   UNL     1      77.115 225.626 340.185  0.00  0.00    +0.000 C 
BRANCH  32  33
ATOM     33  N   UNL     1      78.414 226.269 340.275  0.00  0.00    +0.000 NA
ATOM     34  C   UNL     1      78.472 226.956 341.555  0.00  0.00    +0.000 C 
ATOM     35  C   UNL     1      78.467 227.289 339.242  0.00  0.00    +0.000 C 
ENDBRANCH  32  33
ENDBRANCH  29  32
ENDBRANCH  24  26
ENDBRANCH   3  24
TORSDOF 7
ENDMDL
MODEL 2
REMARK VINA RESULT:      -6.0      4.494      7.700
REMARK  Name = OTSSP167.pdbqt.pdb
REMARK  7 active torsions:
REMARK  status: ('A' for Active; 'I' for Inactive)
REMARK    1  A    between atoms: C_5  and  N_19
REMARK    2  A    between atoms: C_7  and  C_31
REMARK    3  A    between atoms: C_11  and  C_13
REMARK    4  A    between atoms: C_18  and  O_34
REMARK    5  A    between atoms: N_19  and  C_21
REMARK    6  A    between atoms: C_24  and  C_27
REMARK    7  A    between atoms: C_27  and  N_28
REMARK                            x       y       z     vdW  Elec       q    Type
REMARK                         _______ _______ _______ _____ _____    ______ ____
ROOT
ATOM      1  N   UNL     1      71.636 222.242 336.197  0.00  0.00    +0.000 NA
ATOM      2  N   UNL     1      69.837 219.318 334.944  0.00  0.00    +0.000 NA
ATOM      3  C   UNL     1      69.583 221.214 337.010  0.00  0.00    +0.000 A 
ATOM      4  C   UNL     1      70.673 221.291 336.102  0.00  0.00    +0.000 A 
ATOM      5  C   UNL     1      68.651 220.169 336.846  0.00  0.00    +0.000 A 
ATOM      6  C   UNL     1      70.736 220.305 335.095  0.00  0.00    +0.000 A 
ATOM      7  C   UNL     1      68.817 219.267 335.820  0.00  0.00    +0.000 A 
ATOM      8  C   UNL     1      71.799 220.364 334.211  0.00  0.00    +0.000 A 
ATOM      9  C   UNL     1      72.662 222.282 335.312  0.00  0.00    +0.000 A 
ATOM     10  C   UNL     1      72.773 221.348 334.301  0.00  0.00    +0.000 A 
ENDROOT
BRANCH   9  13
ATOM     11 CL   UNL     1      76.671 224.930 333.412  0.00  0.00    +0.000 Cl
ATOM     12 CL   UNL     1      74.473 226.128 338.252  0.00  0.00    +0.000 Cl
ATOM     13  C   UNL     1      73.621 223.376 335.485  0.00  0.00    +0.000 A 
ATOM     14  C   UNL     1      73.629 224.174 336.636  0.00  0.00    +0.000 A 
ATOM     15  C   UNL     1      74.580 223.652 334.503  0.00  0.00    +0.000 A 
ATOM     16  C   UNL     1      75.512 224.676 334.659  0.00  0.00    +0.000 A 
ATOM     17  C   UNL     1      74.553 225.206 336.800  0.00  0.00    +0.000 A 
ATOM     18  C   UNL     1      75.502 225.462 335.811  0.00  0.00    +0.000 A 
BRANCH  18  19
ATOM     19  O   UNL     1      76.410 226.474 335.980  0.00  0.00    +0.000 OA
ATOM     20  H   UNL     1      76.555 226.599 336.936  0.00  0.00    +0.000 HD
ENDBRANCH  18  19
ENDBRANCH   9  13
BRANCH   5  21
ATOM     21  C   UNL     1      67.518 219.963 337.746  0.00  0.00    +0.000 C 
ATOM     22  O   UNL     1      66.521 220.663 337.788  0.00  0.00    +0.000 OA
ATOM     23  C   UNL     1      67.458 218.879 338.780  0.00  0.00    +0.000 C 
ENDBRANCH   5  21
BRANCH   3  24
ATOM     24  N   UNL     1      69.334 222.204 338.014  0.00  0.00    +0.000 N 
ATOM     25  H   UNL     1      68.412 222.644 337.956  0.00  0.00    +0.000 HD
BRANCH  24  26
ATOM     26  C   UNL     1      69.911 222.310 339.249  0.00  0.00    +0.000 A 
ATOM     27  C   UNL     1      70.948 223.296 339.419  0.00  0.00    +0.000 A 
ATOM     28  C   UNL     1      72.263 223.111 340.219  0.00  0.00    +0.000 A 
ATOM     29  C   UNL     1      72.647 221.903 340.909  0.00  0.00    +0.000 A 
ATOM     30  C   UNL     1      71.623 220.906 340.720  0.00  0.00    +0.000 A 
ATOM     31  C   UNL     1      70.312 221.095 339.918  0.00  0.00    +0.000 A 
BRANCH  29  32
ATOM     32  C   UNL     1      73.771 221.765 341.753  0.00  0.00    +0.000 C 
BRANCH  32  33
ATOM     33  N   UNL     1      74.925 221.603 342.620  0.00  0.00    +0.000 NA
ATOM     34  C   UNL     1      74.448 221.066 343.883  0.00  0.00    +0.000 C 
ATOM     35  C   UNL     1      75.451 222.930 342.893  0.00  0.00    +0.000 C 
ENDBRANCH  32  33
ENDBRANCH  29  32
ENDBRANCH  24  26
ENDBRANCH   3  24
TORSDOF 7
ENDMDL
MODEL 3
REMARK VINA RESULT:      -6.0     13.130     14.333
REMARK  Name = OTSSP167.pdbqt.pdb
REMARK  7 active torsions:
REMARK  status: ('A' for Active; 'I' for Inactive)
REMARK    1  A    between atoms: C_5  and  N_19
REMARK    2  A    between atoms: C_7  and  C_31
REMARK    3  A    between atoms: C_11  and  C_13
REMARK    4  A    between atoms: C_18  and  O_34
REMARK    5  A    between atoms: N_19  and  C_21
REMARK    6  A    between atoms: C_24  and  C_27
REMARK    7  A    between atoms: C_27  and  N_28
REMARK                            x       y       z     vdW  Elec       q    Type
REMARK                         _______ _______ _______ _____ _____    ______ ____
ROOT
ATOM      1  N   UNL     1      65.802 232.796 346.743  0.00  0.00    +0.000 NA
ATOM      2  N   UNL     1      66.468 233.439 343.209  0.00  0.00    +0.000 NA
ATOM      3  C   UNL     1      66.149 234.911 345.587  0.00  0.00    +0.000 A 
ATOM      4  C   UNL     1      66.062 233.493 345.609  0.00  0.00    +0.000 A 
ATOM      5  C   UNL     1      66.392 235.545 344.352  0.00  0.00    +0.000 A 
ATOM      6  C   UNL     1      66.230 232.824 344.378  0.00  0.00    +0.000 A 
ATOM      7  C   UNL     1      66.543 234.782 343.216  0.00  0.00    +0.000 A 
ATOM      8  C   UNL     1      66.137 231.444 344.387  0.00  0.00    +0.000 A 
ATOM      9  C   UNL     1      65.725 231.443 346.724  0.00  0.00    +0.000 A 
ATOM     10  C   UNL     1      65.887 230.732 345.551  0.00  0.00    +0.000 A 
ENDROOT
BRANCH   9  13
ATOM     11 CL   UNL     1      62.289 229.561 350.093  0.00  0.00    +0.000 Cl
ATOM     12 CL   UNL     1      67.642 229.500 351.115  0.00  0.00    +0.000 Cl
ATOM     13  C   UNL     1      65.480 230.792 348.014  0.00  0.00    +0.000 A 
ATOM     14  C   UNL     1      66.525 230.467 348.887  0.00  0.00    +0.000 A 
ATOM     15  C   UNL     1      64.177 230.484 348.426  0.00  0.00    +0.000 A 
ATOM     16  C   UNL     1      63.923 229.883 349.656  0.00  0.00    +0.000 A 
ATOM     17  C   UNL     1      66.283 229.859 350.119  0.00  0.00    +0.000 A 
ATOM     18  C   UNL     1      64.977 229.564 350.511  0.00  0.00    +0.000 A 
BRANCH  18  19
ATOM     19  O   UNL     1      64.746 228.971 351.724  0.00  0.00    +0.000 OA
ATOM     20  H   UNL     1      65.389 228.247 351.839  0.00  0.00    +0.000 HD
ENDBRANCH  18  19
ENDBRANCH   9  13
BRANCH   5  21
ATOM     21  C   UNL     1      66.455 236.997 344.200  0.00  0.00    +0.000 C 
ATOM     22  O   UNL     1      65.532 237.765 344.418  0.00  0.00    +0.000 OA
ATOM     23  C   UNL     1      67.661 237.735 343.703  0.00  0.00    +0.000 C 
ENDBRANCH   5  21
BRANCH   3  24
ATOM     24  N   UNL     1      66.103 235.713 346.772  0.00  0.00    +0.000 N 
ATOM     25  H   UNL     1      65.185 236.117 346.976  0.00  0.00    +0.000 HD
BRANCH  24  26
ATOM     26  C   UNL     1      66.921 235.641 347.866  0.00  0.00    +0.000 A 
ATOM     27  C   UNL     1      68.276 235.197 347.658  0.00  0.00    +0.000 A 
ATOM     28  C   UNL     1      69.075 234.238 348.577  0.00  0.00    +0.000 A 
ATOM     29  C   UNL     1      68.564 233.635 349.785  0.00  0.00    +0.000 A 
ATOM     30  C   UNL     1      67.200 234.058 349.982  0.00  0.00    +0.000 A 
ATOM     31  C   UNL     1      66.406 235.015 349.060  0.00  0.00    +0.000 A 
BRANCH  29  32
ATOM     32  C   UNL     1      69.320 232.872 350.702  0.00  0.00    +0.000 C 
BRANCH  32  33
ATOM     33  N   UNL     1      70.090 232.071 351.637  0.00  0.00    +0.000 NA
ATOM     34  C   UNL     1      69.419 232.140 352.925  0.00  0.00    +0.000 C 
ATOM     35  C   UNL     1      71.384 232.715 351.796  0.00  0.00    +0.000 C 
ENDBRANCH  32  33
ENDBRANCH  29  32
ENDBRANCH  24  26
ENDBRANCH   3  24
TORSDOF 7
ENDMDL
MODEL 4
REMARK VINA RESULT:      -5.8     33.170     34.331
REMARK  Name = OTSSP167.pdbqt.pdb
REMARK  7 active torsions:
REMARK  status: ('A' for Active; 'I' for Inactive)
REMARK    1  A    between atoms: C_5  and  N_19
REMARK    2  A    between atoms: C_7  and  C_31
REMARK    3  A    between atoms: C_11  and  C_13
REMARK    4  A    between atoms: C_18  and  O_34
REMARK    5  A    between atoms: N_19  and  C_21
REMARK    6  A    between atoms: C_24  and  C_27
REMARK    7  A    between atoms: C_27  and  N_28
REMARK                            x       y       z     vdW  Elec       q    Type
REMARK                         _______ _______ _______ _____ _____    ______ ____
ROOT
ATOM      1  N   UNL     1      49.925 240.860 325.189  0.00  0.00    +0.000 NA
ATOM      2  N   UNL     1      48.607 242.822 327.976  0.00  0.00    +0.000 NA
ATOM      3  C   UNL     1      50.944 242.704 326.410  0.00  0.00    +0.000 A 
ATOM      4  C   UNL     1      49.870 241.810 326.157  0.00  0.00    +0.000 A 
ATOM      5  C   UNL     1      50.803 243.635 327.459  0.00  0.00    +0.000 A 
ATOM      6  C   UNL     1      48.733 241.925 326.984  0.00  0.00    +0.000 A 
ATOM      7  C   UNL     1      49.640 243.655 328.197  0.00  0.00    +0.000 A 
ATOM      8  C   UNL     1      47.686 241.052 326.753  0.00  0.00    +0.000 A 
ATOM      9  C   UNL     1      48.880 240.023 324.978  0.00  0.00    +0.000 A 
ATOM     10  C   UNL     1      47.738 240.092 325.752  0.00  0.00    +0.000 A 
ENDROOT
BRANCH   9  13
ATOM     11 CL   UNL     1      48.944 239.177 319.882  0.00  0.00    +0.000 Cl
ATOM     12 CL   UNL     1      49.647 235.138 323.471  0.00  0.00    +0.000 Cl
ATOM     13  C   UNL     1      49.033 239.064 323.881  0.00  0.00    +0.000 A 
ATOM     14  C   UNL     1      49.249 237.701 324.118  0.00  0.00    +0.000 A 
ATOM     15  C   UNL     1      48.954 239.482 322.546  0.00  0.00    +0.000 A 
ATOM     16  C   UNL     1      49.078 238.581 321.491  0.00  0.00    +0.000 A 
ATOM     17  C   UNL     1      49.382 236.791 323.068  0.00  0.00    +0.000 A 
ATOM     18  C   UNL     1      49.296 237.228 321.747  0.00  0.00    +0.000 A 
BRANCH  18  19
ATOM     19  O   UNL     1      49.423 236.330 320.720  0.00  0.00    +0.000 OA
ATOM     20  H   UNL     1      49.208 236.785 319.885  0.00  0.00    +0.000 HD
ENDBRANCH  18  19
ENDBRANCH   9  13
BRANCH   5  21
ATOM     21  C   UNL     1      51.857 244.572 327.841  0.00  0.00    +0.000 C 
ATOM     22  O   UNL     1      53.043 244.298 327.919  0.00  0.00    +0.000 OA
ATOM     23  C   UNL     1      51.608 245.995 328.239  0.00  0.00    +0.000 C 
ENDBRANCH   5  21
BRANCH   3  24
ATOM     24  N   UNL     1      52.114 242.771 325.587  0.00  0.00    +0.000 N 
ATOM     25  H   UNL     1      52.730 241.957 325.658  0.00  0.00    +0.000 HD
BRANCH  24  26
ATOM     26  C   UNL     1      52.289 243.488 324.436  0.00  0.00    +0.000 A 
ATOM     27  C   UNL     1      52.580 242.754 323.231  0.00  0.00    +0.000 A 
ATOM     28  C   UNL     1      53.604 243.159 322.138  0.00  0.00    +0.000 A 
ATOM     29  C   UNL     1      54.430 244.341 322.179  0.00  0.00    +0.000 A 
ATOM     30  C   UNL     1      54.159 245.064 323.396  0.00  0.00    +0.000 A 
ATOM     31  C   UNL     1      53.137 244.655 324.485  0.00  0.00    +0.000 A 
BRANCH  29  32
ATOM     32  C   UNL     1      55.263 244.794 321.132  0.00  0.00    +0.000 C 
BRANCH  32  33
ATOM     33  N   UNL     1      56.134 245.248 320.062  0.00  0.00    +0.000 NA
ATOM     34  C   UNL     1      57.454 245.459 320.636  0.00  0.00    +0.000 C 
ATOM     35  C   UNL     1      55.646 246.546 319.627  0.00  0.00    +0.000 C 
ENDBRANCH  32  33
ENDBRANCH  29  32
ENDBRANCH  24  26
ENDBRANCH   3  24
TORSDOF 7
ENDMDL
MODEL 5
REMARK VINA RESULT:      -5.8     33.206     34.886
REMARK  Name = OTSSP167.pdbqt.pdb
REMARK  7 active torsions:
REMARK  status: ('A' for Active; 'I' for Inactive)
REMARK    1  A    between atoms: C_5  and  N_19
REMARK    2  A    between atoms: C_7  and  C_31
REMARK    3  A    between atoms: C_11  and  C_13
REMARK    4  A    between atoms: C_18  and  O_34
REMARK    5  A    between atoms: N_19  and  C_21
REMARK    6  A    between atoms: C_24  and  C_27
REMARK    7  A    between atoms: C_27  and  N_28
REMARK                            x       y       z     vdW  Elec       q    Type
REMARK                         _______ _______ _______ _____ _____    ______ ____
ROOT
ATOM      1  N   UNL     1      53.105 245.923 326.193  0.00  0.00    +0.000 NA
ATOM      2  N   UNL     1      51.754 243.222 328.251  0.00  0.00    +0.000 NA
ATOM      3  C   UNL     1      51.749 246.038 328.212  0.00  0.00    +0.000 A 
ATOM      4  C   UNL     1      52.424 245.312 327.195  0.00  0.00    +0.000 A 
ATOM      5  C   UNL     1      51.096 245.311 329.229  0.00  0.00    +0.000 A 
ATOM      6  C   UNL     1      52.386 243.904 327.282  0.00  0.00    +0.000 A 
ATOM      7  C   UNL     1      51.126 243.934 329.204  0.00  0.00    +0.000 A 
ATOM      8  C   UNL     1      53.050 243.188 326.302  0.00  0.00    +0.000 A 
ATOM      9  C   UNL     1      53.738 245.196 325.240  0.00  0.00    +0.000 A 
ATOM     10  C   UNL     1      53.731 243.815 325.270  0.00  0.00    +0.000 A 
ENDROOT
BRANCH   9  13
ATOM     11 CL   UNL     1      56.054 245.178 320.622  0.00  0.00    +0.000 Cl
ATOM     12 CL   UNL     1      55.513 249.745 323.544  0.00  0.00    +0.000 Cl
ATOM     13  C   UNL     1      54.408 245.960 324.185  0.00  0.00    +0.000 A 
ATOM     14  C   UNL     1      54.636 247.336 324.303  0.00  0.00    +0.000 A 
ATOM     15  C   UNL     1      54.858 245.330 323.018  0.00  0.00    +0.000 A 
ATOM     16  C   UNL     1      55.513 246.037 322.012  0.00  0.00    +0.000 A 
ATOM     17  C   UNL     1      55.285 248.056 323.299  0.00  0.00    +0.000 A 
ATOM     18  C   UNL     1      55.728 247.408 322.146  0.00  0.00    +0.000 A 
BRANCH  18  19
ATOM     19  O   UNL     1      56.369 248.119 321.166  0.00  0.00    +0.000 OA
ATOM     20  H   UNL     1      55.928 248.984 321.077  0.00  0.00    +0.000 HD
ENDBRANCH  18  19
ENDBRANCH   9  13
BRANCH   5  21
ATOM     21  C   UNL     1      50.410 245.948 330.350  0.00  0.00    +0.000 C 
ATOM     22  O   UNL     1      49.438 246.679 330.252  0.00  0.00    +0.000 OA
ATOM     23  C   UNL     1      50.847 245.823 331.779  0.00  0.00    +0.000 C 
ENDBRANCH   5  21
BRANCH   3  24
ATOM     24  N   UNL     1      51.615 247.463 328.195  0.00  0.00    +0.000 N 
ATOM     25  H   UNL     1      50.652 247.800 328.280  0.00  0.00    +0.000 HD
BRANCH  24  26
ATOM     26  C   UNL     1      52.551 248.398 328.542  0.00  0.00    +0.000 A 
ATOM     27  C   UNL     1      53.161 249.157 327.480  0.00  0.00    +0.000 A 
ATOM     28  C   UNL     1      54.659 249.543 327.377  0.00  0.00    +0.000 A 
ATOM     29  C   UNL     1      55.673 249.184 328.340  0.00  0.00    +0.000 A 
ATOM     30  C   UNL     1      55.069 248.403 329.390  0.00  0.00    +0.000 A 
ATOM     31  C   UNL     1      53.572 248.018 329.488  0.00  0.00    +0.000 A 
BRANCH  29  32
ATOM     32  C   UNL     1      57.008 249.642 328.331  0.00  0.00    +0.000 C 
BRANCH  32  33
ATOM     33  N   UNL     1      58.379 250.123 328.339  0.00  0.00    +0.000 NA
ATOM     34  C   UNL     1      58.459 251.193 329.320  0.00  0.00    +0.000 C 
ATOM     35  C   UNL     1      58.637 250.718 327.038  0.00  0.00    +0.000 C 
ENDBRANCH  32  33
ENDBRANCH  29  32
ENDBRANCH  24  26
ENDBRANCH   3  24
TORSDOF 7
ENDMDL
MODEL 6
REMARK VINA RESULT:      -5.7      4.945      9.530
REMARK  Name = OTSSP167.pdbqt.pdb
REMARK  7 active torsions:
REMARK  status: ('A' for Active; 'I' for Inactive)
REMARK    1  A    between atoms: C_5  and  N_19
REMARK    2  A    between atoms: C_7  and  C_31
REMARK    3  A    between atoms: C_11  and  C_13
REMARK    4  A    between atoms: C_18  and  O_34
REMARK    5  A    between atoms: N_19  and  C_21
REMARK    6  A    between atoms: C_24  and  C_27
REMARK    7  A    between atoms: C_27  and  N_28
REMARK                            x       y       z     vdW  Elec       q    Type
REMARK                         _______ _______ _______ _____ _____    ______ ____
ROOT
ATOM      1  N   UNL     1      71.590 221.795 337.963  0.00  0.00    +0.000 NA
ATOM      2  N   UNL     1      69.897 220.318 340.845  0.00  0.00    +0.000 NA
ATOM      3  C   UNL     1      70.013 219.942 338.057  0.00  0.00    +0.000 A 
ATOM      4  C   UNL     1      70.791 220.958 338.672  0.00  0.00    +0.000 A 
ATOM      5  C   UNL     1      69.189 219.144 338.877  0.00  0.00    +0.000 A 
ATOM      6  C   UNL     1      70.679 221.089 340.073  0.00  0.00    +0.000 A 
ATOM      7  C   UNL     1      69.168 219.365 340.236  0.00  0.00    +0.000 A 
ATOM      8  C   UNL     1      71.425 222.083 340.680  0.00  0.00    +0.000 A 
ATOM      9  C   UNL     1      72.317 222.755 338.586  0.00  0.00    +0.000 A 
ATOM     10  C   UNL     1      72.253 222.926 339.955  0.00  0.00    +0.000 A 
ENDROOT
BRANCH   9  13
ATOM     11 CL   UNL     1      75.510 226.795 338.164  0.00  0.00    +0.000 Cl
ATOM     12 CL   UNL     1      74.211 223.701 333.870  0.00  0.00    +0.000 Cl
ATOM     13  C   UNL     1      73.175 223.574 337.726  0.00  0.00    +0.000 A 
ATOM     14  C   UNL     1      73.308 223.316 336.357  0.00  0.00    +0.000 A 
ATOM     15  C   UNL     1      73.885 224.662 338.249  0.00  0.00    +0.000 A 
ATOM     16  C   UNL     1      74.691 225.463 337.443  0.00  0.00    +0.000 A 
ATOM     17  C   UNL     1      74.117 224.108 335.541  0.00  0.00    +0.000 A 
ATOM     18  C   UNL     1      74.813 225.189 336.082  0.00  0.00    +0.000 A 
BRANCH  18  19
ATOM     19  O   UNL     1      75.602 225.965 335.275  0.00  0.00    +0.000 OA
ATOM     20  H   UNL     1      75.057 226.291 334.535  0.00  0.00    +0.000 HD
ENDBRANCH  18  19
ENDBRANCH   9  13
BRANCH   5  21
ATOM     21  C   UNL     1      68.311 218.101 338.351  0.00  0.00    +0.000 C 
ATOM     22  O   UNL     1      68.645 217.241 337.554  0.00  0.00    +0.000 OA
ATOM     23  C   UNL     1      66.857 217.982 338.692  0.00  0.00    +0.000 C 
ENDBRANCH   5  21
BRANCH   3  24
ATOM     24  N   UNL     1      70.104 219.627 336.663  0.00  0.00    +0.000 N 
ATOM     25  H   UNL     1      70.322 218.646 336.463  0.00  0.00    +0.000 HD
BRANCH  24  26
ATOM     26  C   UNL     1      69.514 220.277 335.615  0.00  0.00    +0.000 A 
ATOM     27  C   UNL     1      68.142 220.689 335.773  0.00  0.00    +0.000 A 
ATOM     28  C   UNL     1      67.031 220.600 334.695  0.00  0.00    +0.000 A 
ATOM     29  C   UNL     1      67.213 220.074 333.363  0.00  0.00    +0.000 A 
ATOM     30  C   UNL     1      68.578 219.638 333.211  0.00  0.00    +0.000 A 
ATOM     31  C   UNL     1      69.684 219.728 334.292  0.00  0.00    +0.000 A 
BRANCH  29  32
ATOM     32  C   UNL     1      66.251 220.112 332.330  0.00  0.00    +0.000 C 
BRANCH  32  33
ATOM     33  N   UNL     1      65.249 220.143 331.279  0.00  0.00    +0.000 NA
ATOM     34  C   UNL     1      65.052 221.535 330.907  0.00  0.00    +0.000 C 
ATOM     35  C   UNL     1      64.000 219.675 331.856  0.00  0.00    +0.000 C 
ENDBRANCH  32  33
ENDBRANCH  29  32
ENDBRANCH  24  26
ENDBRANCH   3  24
TORSDOF 7
ENDMDL
MODEL 7
REMARK VINA RESULT:      -5.6     15.013     16.154
REMARK  Name = OTSSP167.pdbqt.pdb
REMARK  7 active torsions:
REMARK  status: ('A' for Active; 'I' for Inactive)
REMARK    1  A    between atoms: C_5  and  N_19
REMARK    2  A    between atoms: C_7  and  C_31
REMARK    3  A    between atoms: C_11  and  C_13
REMARK    4  A    between atoms: C_18  and  O_34
REMARK    5  A    between atoms: N_19  and  C_21
REMARK    6  A    between atoms: C_24  and  C_27
REMARK    7  A    between atoms: C_27  and  N_28
REMARK                            x       y       z     vdW  Elec       q    Type
REMARK                         _______ _______ _______ _____ _____    ______ ____
ROOT
ATOM      1  N   UNL     1      65.805 232.525 346.943  0.00  0.00    +0.000 NA
ATOM      2  N   UNL     1      66.913 233.426 343.580  0.00  0.00    +0.000 NA
ATOM      3  C   UNL     1      66.571 234.670 346.082  0.00  0.00    +0.000 A 
ATOM      4  C   UNL     1      66.278 233.289 345.927  0.00  0.00    +0.000 A 
ATOM      5  C   UNL     1      67.028 235.386 344.956  0.00  0.00    +0.000 A 
ATOM      6  C   UNL     1      66.470 232.735 344.643  0.00  0.00    +0.000 A 
ATOM      7  C   UNL     1      67.181 234.732 343.754  0.00  0.00    +0.000 A 
ATOM      8  C   UNL     1      66.176 231.394 344.478  0.00  0.00    +0.000 A 
ATOM      9  C   UNL     1      65.534 231.210 346.756  0.00  0.00    +0.000 A 
ATOM     10  C   UNL     1      65.708 230.611 345.524  0.00  0.00    +0.000 A 
ENDROOT
BRANCH   9  13
ATOM     11 CL   UNL     1      61.578 229.886 349.804  0.00  0.00    +0.000 Cl
ATOM     12 CL   UNL     1      66.663 228.200 350.804  0.00  0.00    +0.000 Cl
ATOM     13  C   UNL     1      65.067 230.474 347.933  0.00  0.00    +0.000 A 
ATOM     14  C   UNL     1      65.946 229.750 348.747  0.00  0.00    +0.000 A 
ATOM     15  C   UNL     1      63.713 230.482 348.294  0.00  0.00    +0.000 A 
ATOM     16  C   UNL     1      63.254 229.803 349.420  0.00  0.00    +0.000 A 
ATOM     17  C   UNL     1      65.497 229.061 349.873  0.00  0.00    +0.000 A 
ATOM     18  C   UNL     1      64.145 229.085 350.217  0.00  0.00    +0.000 A 
BRANCH  18  19
ATOM     19  O   UNL     1      63.710 228.410 351.327  0.00  0.00    +0.000 OA
ATOM     20  H   UNL     1      63.948 227.469 351.227  0.00  0.00    +0.000 HD
ENDBRANCH  18  19
ENDBRANCH   9  13
BRANCH   5  21
ATOM     21  C   UNL     1      67.317 236.818 344.985  0.00  0.00    +0.000 C 
ATOM     22  O   UNL     1      68.176 237.345 345.672  0.00  0.00    +0.000 OA
ATOM     23  C   UNL     1      66.553 237.841 344.201  0.00  0.00    +0.000 C 
ENDBRANCH   5  21
BRANCH   3  24
ATOM     24  N   UNL     1      66.523 235.340 347.347  0.00  0.00    +0.000 N 
ATOM     25  H   UNL     1      67.412 235.752 347.643  0.00  0.00    +0.000 HD
BRANCH  24  26
ATOM     26  C   UNL     1      65.435 235.894 347.961  0.00  0.00    +0.000 A 
ATOM     27  C   UNL     1      65.143 237.277 347.681  0.00  0.00    +0.000 A 
ATOM     28  C   UNL     1      64.678 238.340 348.710  0.00  0.00    +0.000 A 
ATOM     29  C   UNL     1      64.479 238.094 350.118  0.00  0.00    +0.000 A 
ATOM     30  C   UNL     1      64.796 236.718 350.406  0.00  0.00    +0.000 A 
ATOM     31  C   UNL     1      65.261 235.660 349.375  0.00  0.00    +0.000 A 
BRANCH  29  32
ATOM     32  C   UNL     1      63.928 239.012 351.039  0.00  0.00    +0.000 C 
BRANCH  32  33
ATOM     33  N   UNL     1      63.360 239.969 351.972  0.00  0.00    +0.000 NA
ATOM     34  C   UNL     1      62.053 239.469 352.367  0.00  0.00    +0.000 C 
ATOM     35  C   UNL     1      63.139 241.207 351.243  0.00  0.00    +0.000 C 
ENDBRANCH  32  33
ENDBRANCH  29  32
ENDBRANCH  24  26
ENDBRANCH   3  24
TORSDOF 7
ENDMDL
MODEL 8
REMARK VINA RESULT:      -5.6     33.569     34.617
REMARK  Name = OTSSP167.pdbqt.pdb
REMARK  7 active torsions:
REMARK  status: ('A' for Active; 'I' for Inactive)
REMARK    1  A    between atoms: C_5  and  N_19
REMARK    2  A    between atoms: C_7  and  C_31
REMARK    3  A    between atoms: C_11  and  C_13
REMARK    4  A    between atoms: C_18  and  O_34
REMARK    5  A    between atoms: N_19  and  C_21
REMARK    6  A    between atoms: C_24  and  C_27
REMARK    7  A    between atoms: C_27  and  N_28
REMARK                            x       y       z     vdW  Elec       q    Type
REMARK                         _______ _______ _______ _____ _____    ______ ____
ROOT
ATOM      1  N   UNL     1      52.230 244.740 326.430  0.00  0.00    +0.000 NA
ATOM      2  N   UNL     1      50.173 243.359 329.115  0.00  0.00    +0.000 NA
ATOM      3  C   UNL     1      51.489 245.772 328.507  0.00  0.00    +0.000 A 
ATOM      4  C   UNL     1      51.540 244.683 327.596  0.00  0.00    +0.000 A 
ATOM      5  C   UNL     1      50.772 245.604 329.709  0.00  0.00    +0.000 A 
ATOM      6  C   UNL     1      50.860 243.505 327.971  0.00  0.00    +0.000 A 
ATOM      7  C   UNL     1      50.143 244.405 329.961  0.00  0.00    +0.000 A 
ATOM      8  C   UNL     1      50.912 242.435 327.096  0.00  0.00    +0.000 A 
ATOM      9  C   UNL     1      52.257 243.679 325.587  0.00  0.00    +0.000 A 
ATOM     10  C   UNL     1      51.605 242.501 325.896  0.00  0.00    +0.000 A 
ENDROOT
BRANCH   9  13
ATOM     11 CL   UNL     1      53.360 241.938 320.849  0.00  0.00    +0.000 Cl
ATOM     12 CL   UNL     1      55.646 246.461 322.850  0.00  0.00    +0.000 Cl
ATOM     13  C   UNL     1      52.999 243.866 324.337  0.00  0.00    +0.000 A 
ATOM     14  C   UNL     1      53.879 244.939 324.156  0.00  0.00    +0.000 A 
ATOM     15  C   UNL     1      52.861 242.960 323.278  0.00  0.00    +0.000 A 
ATOM     16  C   UNL     1      53.572 243.112 322.090  0.00  0.00    +0.000 A 
ATOM     17  C   UNL     1      54.592 245.105 322.969  0.00  0.00    +0.000 A 
ATOM     18  C   UNL     1      54.442 244.189 321.927  0.00  0.00    +0.000 A 
BRANCH  18  19
ATOM     19  O   UNL     1      55.148 244.354 320.765  0.00  0.00    +0.000 OA
ATOM     20  H   UNL     1      54.536 244.682 320.079  0.00  0.00    +0.000 HD
ENDBRANCH  18  19
ENDBRANCH   9  13
BRANCH   5  21
ATOM     21  C   UNL     1      50.689 246.636 330.740  0.00  0.00    +0.000 C 
ATOM     22  O   UNL     1      50.131 247.713 330.609  0.00  0.00    +0.000 OA
ATOM     23  C   UNL     1      51.329 246.523 332.090  0.00  0.00    +0.000 C 
ENDBRANCH   5  21
BRANCH   3  24
ATOM     24  N   UNL     1      52.043 247.059 328.214  0.00  0.00    +0.000 N 
ATOM     25  H   UNL     1      51.412 247.845 328.398  0.00  0.00    +0.000 HD
BRANCH  24  26
ATOM     26  C   UNL     1      53.362 247.418 328.182  0.00  0.00    +0.000 A 
ATOM     27  C   UNL     1      53.946 247.925 329.398  0.00  0.00    +0.000 A 
ATOM     28  C   UNL     1      54.935 249.113 329.511  0.00  0.00    +0.000 A 
ATOM     29  C   UNL     1      55.412 249.899 328.398  0.00  0.00    +0.000 A 
ATOM     30  C   UNL     1      54.810 249.410 327.183  0.00  0.00    +0.000 A 
ATOM     31  C   UNL     1      53.821 248.223 327.076  0.00  0.00    +0.000 A 
BRANCH  29  32
ATOM     32  C   UNL     1      56.414 250.892 328.468  0.00  0.00    +0.000 C 
BRANCH  32  33
ATOM     33  N   UNL     1      57.458 251.899 328.540  0.00  0.00    +0.000 NA
ATOM     34  C   UNL     1      58.391 251.638 327.456  0.00  0.00    +0.000 C 
ATOM     35  C   UNL     1      58.180 251.686 329.783  0.00  0.00    +0.000 C 
ENDBRANCH  32  33
ENDBRANCH  29  32
ENDBRANCH  24  26
ENDBRANCH   3  24
TORSDOF 7
ENDMDL
MODEL 9
REMARK VINA RESULT:      -5.5     32.831     35.004
REMARK  Name = OTSSP167.pdbqt.pdb
REMARK  7 active torsions:
REMARK  status: ('A' for Active; 'I' for Inactive)
REMARK    1  A    between atoms: C_5  and  N_19
REMARK    2  A    between atoms: C_7  and  C_31
REMARK    3  A    between atoms: C_11  and  C_13
REMARK    4  A    between atoms: C_18  and  O_34
REMARK    5  A    between atoms: N_19  and  C_21
REMARK    6  A    between atoms: C_24  and  C_27
REMARK    7  A    between atoms: C_27  and  N_28
REMARK                            x       y       z     vdW  Elec       q    Type
REMARK                         _______ _______ _______ _____ _____    ______ ____
ROOT
ATOM      1  N   UNL     1      51.606 243.448 323.903  0.00  0.00    +0.000 NA
ATOM      2  N   UNL     1      48.298 242.142 323.064  0.00  0.00    +0.000 NA
ATOM      3  C   UNL     1      50.306 241.698 324.987  0.00  0.00    +0.000 A 
ATOM      4  C   UNL     1      50.480 242.696 323.991  0.00  0.00    +0.000 A 
ATOM      5  C   UNL     1      49.112 240.946 324.976  0.00  0.00    +0.000 A 
ATOM      6  C   UNL     1      49.433 242.859 323.060  0.00  0.00    +0.000 A 
ATOM      7  C   UNL     1      48.159 241.202 324.015  0.00  0.00    +0.000 A 
ATOM      8  C   UNL     1      49.598 243.821 322.079  0.00  0.00    +0.000 A 
ATOM      9  C   UNL     1      51.737 244.391 322.937  0.00  0.00    +0.000 A 
ATOM     10  C   UNL     1      50.743 244.601 322.001  0.00  0.00    +0.000 A 
ENDROOT
BRANCH   9  13
ATOM     11 CL   UNL     1      54.410 248.296 325.010  0.00  0.00    +0.000 Cl
ATOM     12 CL   UNL     1      56.447 245.239 320.985  0.00  0.00    +0.000 Cl
ATOM     13  C   UNL     1      52.976 245.171 322.962  0.00  0.00    +0.000 A 
ATOM     14  C   UNL     1      54.034 244.902 322.085  0.00  0.00    +0.000 A 
ATOM     15  C   UNL     1      53.139 246.232 323.862  0.00  0.00    +0.000 A 
ATOM     16  C   UNL     1      54.304 246.996 323.886  0.00  0.00    +0.000 A 
ATOM     17  C   UNL     1      55.208 245.656 322.105  0.00  0.00    +0.000 A 
ATOM     18  C   UNL     1      55.347 246.711 323.008  0.00  0.00    +0.000 A 
BRANCH  18  19
ATOM     19  O   UNL     1      56.500 247.451 323.020  0.00  0.00    +0.000 OA
ATOM     20  H   UNL     1      57.234 246.871 323.297  0.00  0.00    +0.000 HD
ENDBRANCH  18  19
ENDBRANCH   9  13
BRANCH   5  21
ATOM     21  C   UNL     1      48.843 239.864 325.920  0.00  0.00    +0.000 C 
ATOM     22  O   UNL     1      48.713 240.003 327.125  0.00  0.00    +0.000 OA
ATOM     23  C   UNL     1      48.738 238.421 325.531  0.00  0.00    +0.000 C 
ENDBRANCH   5  21
BRANCH   3  24
ATOM     24  N   UNL     1      51.235 241.492 326.056  0.00  0.00    +0.000 N 
ATOM     25  H   UNL     1      51.918 240.748 325.888  0.00  0.00    +0.000 HD
BRANCH  24  26
ATOM     26  C   UNL     1      51.633 242.391 327.007  0.00  0.00    +0.000 A 
ATOM     27  C   UNL     1      50.691 243.409 327.397  0.00  0.00    +0.000 A 
ATOM     28  C   UNL     1      51.017 244.901 327.668  0.00  0.00    +0.000 A 
ATOM     29  C   UNL     1      52.328 245.493 327.554  0.00  0.00    +0.000 A 
ATOM     30  C   UNL     1      53.268 244.482 327.138  0.00  0.00    +0.000 A 
ATOM     31  C   UNL     1      52.937 242.994 326.869  0.00  0.00    +0.000 A 
BRANCH  29  32
ATOM     32  C   UNL     1      52.665 246.813 327.928  0.00  0.00    +0.000 C 
BRANCH  32  33
ATOM     33  N   UNL     1      53.027 248.163 328.321  0.00  0.00    +0.000 NA
ATOM     34  C   UNL     1      54.007 248.057 329.390  0.00  0.00    +0.000 C 
ATOM     35  C   UNL     1      51.841 248.781 328.891  0.00  0.00    +0.000 C 
ENDBRANCH  32  33
ENDBRANCH  29  32
ENDBRANCH  24  26
ENDBRANCH   3  24
TORSDOF 7
ENDMDL
