MODEL 1
REMARK VINA RESULT:      -5.2      0.000      0.000
REMARK  Name = 
REMARK  0 active torsions:
REMARK  status: ('A' for Active; 'I' for Inactive)
REMARK                            x       y       z     vdW  Elec       q    Type
REMARK                         _______ _______ _______ _____ _____    ______ ____
ROOT
ATOM      1  O   UNL     1      53.215 241.098 350.110  0.00  0.00    +0.000 OA
ATOM      2  O   UNL     1      53.908 243.705 345.652  0.00  0.00    +0.000 OA
ATOM      3  N   UNL     1      53.730 239.844 349.934  0.00  0.00    +0.000 N 
ATOM      4  N   UNL     1      54.795 242.252 347.221  0.00  0.00    +0.000 N 
ATOM      5  C   UNL     1      54.629 239.734 348.688  0.00  0.00    +0.000 C 
ATOM      6  C   UNL     1      55.881 240.628 348.765  0.00  0.00    +0.000 C 
ATOM      7  C   UNL     1      53.868 239.954 347.374  0.00  0.00    +0.000 C 
ATOM      8  C   UNL     1      55.557 242.123 348.483  0.00  0.00    +0.000 C 
ATOM      9  C   UNL     1      56.641 240.344 350.074  0.00  0.00    +0.000 C 
ATOM     10  C   UNL     1      53.582 241.434 347.124  0.00  0.00    +0.000 C 
ATOM     11  C   UNL     1      54.545 239.494 351.162  0.00  0.00    +0.000 C 
ATOM     12  C   UNL     1      52.607 239.084 347.295  0.00  0.00    +0.000 C 
ATOM     13  C   UNL     1      52.580 238.867 349.800  0.00  0.00    +0.000 C 
ATOM     14  C   UNL     1      55.750 240.415 351.307  0.00  0.00    +0.000 C 
ATOM     15  C   UNL     1      51.751 239.150 348.554  0.00  0.00    +0.000 C 
ATOM     16  C   UNL     1      56.841 242.967 348.472  0.00  0.00    +0.000 C 
ATOM     17  C   UNL     1      56.534 244.384 348.026  0.00  0.00    +0.000 C 
ATOM     18  C   UNL     1      54.778 243.439 346.484  0.00  0.00    +0.000 C 
ATOM     19  C   UNL     1      55.978 244.348 346.621  0.00  0.00    +0.000 C 
ENDROOT
TORSDOF 0
ENDMDL
MODEL 2
REMARK VINA RESULT:      -5.1     27.906     28.946
REMARK  Name = 
REMARK  0 active torsions:
REMARK  status: ('A' for Active; 'I' for Inactive)
REMARK                            x       y       z     vdW  Elec       q    Type
REMARK                         _______ _______ _______ _____ _____    ______ ____
ROOT
ATOM      1  O   UNL     1      61.041 222.828 325.446  0.00  0.00    +0.000 OA
ATOM      2  O   UNL     1      61.582 220.063 329.829  0.00  0.00    +0.000 OA
ATOM      3  N   UNL     1      60.638 224.085 325.802  0.00  0.00    +0.000 N 
ATOM      4  N   UNL     1      61.922 222.075 328.737  0.00  0.00    +0.000 N 
ATOM      5  C   UNL     1      60.826 224.371 327.305  0.00  0.00    +0.000 C 
ATOM      6  C   UNL     1      62.303 224.328 327.747  0.00  0.00    +0.000 C 
ATOM      7  C   UNL     1      59.951 223.488 328.202  0.00  0.00    +0.000 C 
ATOM      8  C   UNL     1      62.834 222.874 327.888  0.00  0.00    +0.000 C 
ATOM      9  C   UNL     1      63.139 225.262 326.853  0.00  0.00    +0.000 C 
ATOM     10  C   UNL     1      60.513 222.072 328.330  0.00  0.00    +0.000 C 
ATOM     11  C   UNL     1      61.450 225.083 325.005  0.00  0.00    +0.000 C 
ATOM     12  C   UNL     1      58.483 223.506 327.758  0.00  0.00    +0.000 C 
ATOM     13  C   UNL     1      59.172 224.236 325.452  0.00  0.00    +0.000 C 
ATOM     14  C   UNL     1      62.929 225.009 325.366  0.00  0.00    +0.000 C 
ATOM     15  C   UNL     1      58.304 223.280 326.261  0.00  0.00    +0.000 C 
ATOM     16  C   UNL     1      64.274 222.869 328.424  0.00  0.00    +0.000 C 
ATOM     17  C   UNL     1      64.719 221.450 328.722  0.00  0.00    +0.000 C 
ATOM     18  C   UNL     1      62.352 220.933 329.415  0.00  0.00    +0.000 C 
ATOM     19  C   UNL     1      63.817 220.864 329.783  0.00  0.00    +0.000 C 
ENDROOT
TORSDOF 0
ENDMDL
MODEL 3
REMARK VINA RESULT:      -5.0      1.497      5.425
REMARK  Name = 
REMARK  0 active torsions:
REMARK  status: ('A' for Active; 'I' for Inactive)
REMARK                            x       y       z     vdW  Elec       q    Type
REMARK                         _______ _______ _______ _____ _____    ______ ____
ROOT
ATOM      1  O   UNL     1      53.778 243.946 348.638  0.00  0.00    +0.000 OA
ATOM      2  O   UNL     1      54.238 239.363 351.072  0.00  0.00    +0.000 OA
ATOM      3  N   UNL     1      54.764 244.008 347.692  0.00  0.00    +0.000 N 
ATOM      4  N   UNL     1      54.276 240.520 349.068  0.00  0.00    +0.000 N 
ATOM      5  C   UNL     1      55.413 242.639 347.413  0.00  0.00    +0.000 C 
ATOM      6  C   UNL     1      54.424 241.609 346.833  0.00  0.00    +0.000 C 
ATOM      7  C   UNL     1      56.164 242.069 348.623  0.00  0.00    +0.000 C 
ATOM      8  C   UNL     1      53.483 241.017 347.921  0.00  0.00    +0.000 C 
ATOM      9  C   UNL     1      53.726 242.201 345.595  0.00  0.00    +0.000 C 
ATOM     10  C   UNL     1      55.209 241.483 349.661  0.00  0.00    +0.000 C 
ATOM     11  C   UNL     1      54.154 244.535 346.411  0.00  0.00    +0.000 C 
ATOM     12  C   UNL     1      57.137 243.094 349.222  0.00  0.00    +0.000 C 
ATOM     13  C   UNL     1      55.830 244.970 348.174  0.00  0.00    +0.000 C 
ATOM     14  C   UNL     1      53.114 243.571 345.854  0.00  0.00    +0.000 C 
ATOM     15  C   UNL     1      56.506 244.464 349.442  0.00  0.00    +0.000 C 
ATOM     16  C   UNL     1      52.581 239.925 347.326  0.00  0.00    +0.000 C 
ATOM     17  C   UNL     1      51.795 239.236 348.425  0.00  0.00    +0.000 C 
ATOM     18  C   UNL     1      53.786 239.545 349.940  0.00  0.00    +0.000 C 
ATOM     19  C   UNL     1      52.761 238.582 349.385  0.00  0.00    +0.000 C 
ENDROOT
TORSDOF 0
ENDMDL
MODEL 4
REMARK VINA RESULT:      -4.9     26.775     27.779
REMARK  Name = 
REMARK  0 active torsions:
REMARK  status: ('A' for Active; 'I' for Inactive)
REMARK                            x       y       z     vdW  Elec       q    Type
REMARK                         _______ _______ _______ _____ _____    ______ ____
ROOT
ATOM      1  O   UNL     1      72.558 220.866 337.888  0.00  0.00    +0.000 OA
ATOM      2  O   UNL     1      68.677 218.474 340.413  0.00  0.00    +0.000 OA
ATOM      3  N   UNL     1      72.152 222.146 337.633  0.00  0.00    +0.000 N 
ATOM      4  N   UNL     1      69.948 220.391 340.156  0.00  0.00    +0.000 N 
ATOM      5  C   UNL     1      70.912 222.556 338.451  0.00  0.00    +0.000 C 
ATOM      6  C   UNL     1      71.165 222.556 339.971  0.00  0.00    +0.000 C 
ATOM      7  C   UNL     1      69.659 221.746 338.096  0.00  0.00    +0.000 C 
ATOM      8  C   UNL     1      71.169 221.121 340.569  0.00  0.00    +0.000 C 
ATOM      9  C   UNL     1      72.401 223.417 340.291  0.00  0.00    +0.000 C 
ATOM     10  C   UNL     1      69.691 220.348 338.713  0.00  0.00    +0.000 C 
ATOM     11  C   UNL     1      73.296 223.079 337.970  0.00  0.00    +0.000 C 
ATOM     12  C   UNL     1      69.409 221.720 336.582  0.00  0.00    +0.000 C 
ATOM     13  C   UNL     1      71.828 222.261 336.158  0.00  0.00    +0.000 C 
ATOM     14  C   UNL     1      73.620 223.041 339.459  0.00  0.00    +0.000 C 
ATOM     15  C   UNL     1      70.653 221.371 335.773  0.00  0.00    +0.000 C 
ATOM     16  C   UNL     1      71.325 221.167 342.097  0.00  0.00    +0.000 C 
ATOM     17  C   UNL     1      71.152 219.779 342.685  0.00  0.00    +0.000 C 
ATOM     18  C   UNL     1      69.450 219.310 340.886  0.00  0.00    +0.000 C 
ATOM     19  C   UNL     1      69.762 219.279 342.365  0.00  0.00    +0.000 C 
ENDROOT
TORSDOF 0
ENDMDL
MODEL 5
REMARK VINA RESULT:      -4.8     27.049     27.813
REMARK  Name = 
REMARK  0 active torsions:
REMARK  status: ('A' for Active; 'I' for Inactive)
REMARK                            x       y       z     vdW  Elec       q    Type
REMARK                         _______ _______ _______ _____ _____    ______ ____
ROOT
ATOM      1  O   UNL     1      68.961 218.993 340.787  0.00  0.00    +0.000 OA
ATOM      2  O   UNL     1      69.191 221.331 336.136  0.00  0.00    +0.000 OA
ATOM      3  N   UNL     1      70.221 218.556 341.088  0.00  0.00    +0.000 N 
ATOM      4  N   UNL     1      70.174 221.004 338.206  0.00  0.00    +0.000 N 
ATOM      5  C   UNL     1      71.304 219.185 340.190  0.00  0.00    +0.000 C 
ATOM      6  C   UNL     1      71.407 220.715 340.350  0.00  0.00    +0.000 C 
ATOM      7  C   UNL     1      71.171 218.788 338.715  0.00  0.00    +0.000 C 
ATOM      8  C   UNL     1      70.262 221.464 339.610  0.00  0.00    +0.000 C 
ATOM      9  C   UNL     1      71.586 221.070 341.838  0.00  0.00    +0.000 C 
ATOM     10  C   UNL     1      70.048 219.556 338.018  0.00  0.00    +0.000 C 
ATOM     11  C   UNL     1      70.510 218.911 342.531  0.00  0.00    +0.000 C 
ATOM     12  C   UNL     1      71.046 217.269 338.545  0.00  0.00    +0.000 C 
ATOM     13  C   UNL     1      70.259 217.051 340.923  0.00  0.00    +0.000 C 
ATOM     14  C   UNL     1      70.541 220.421 342.735  0.00  0.00    +0.000 C 
ATOM     15  C   UNL     1      70.015 216.642 339.476  0.00  0.00    +0.000 C 
ATOM     16  C   UNL     1      70.453 222.986 339.709  0.00  0.00    +0.000 C 
ATOM     17  C   UNL     1      69.434 223.700 338.841  0.00  0.00    +0.000 C 
ATOM     18  C   UNL     1      69.600 221.791 337.204  0.00  0.00    +0.000 C 
ATOM     19  C   UNL     1      69.640 223.289 337.401  0.00  0.00    +0.000 C 
ENDROOT
TORSDOF 0
ENDMDL
MODEL 6
REMARK VINA RESULT:      -4.8     21.383     23.315
REMARK  Name = 
REMARK  0 active torsions:
REMARK  status: ('A' for Active; 'I' for Inactive)
REMARK                            x       y       z     vdW  Elec       q    Type
REMARK                         _______ _______ _______ _____ _____    ______ ____
ROOT
ATOM      1  O   UNL     1      49.630 244.383 326.295  0.00  0.00    +0.000 OA
ATOM      2  O   UNL     1      52.001 243.126 321.829  0.00  0.00    +0.000 OA
ATOM      3  N   UNL     1      49.630 243.268 327.086  0.00  0.00    +0.000 N 
ATOM      4  N   UNL     1      51.979 242.968 324.138  0.00  0.00    +0.000 N 
ATOM      5  C   UNL     1      50.601 242.180 326.588  0.00  0.00    +0.000 C 
ATOM      6  C   UNL     1      52.075 242.633 326.604  0.00  0.00    +0.000 C 
ATOM      7  C   UNL     1      50.211 241.603 325.222  0.00  0.00    +0.000 C 
ATOM      8  C   UNL     1      52.415 243.576 325.415  0.00  0.00    +0.000 C 
ATOM      9  C   UNL     1      52.440 243.161 328.003  0.00  0.00    +0.000 C 
ATOM     10  C   UNL     1      50.575 242.550 324.079  0.00  0.00    +0.000 C 
ATOM     11  C   UNL     1      50.033 243.685 328.485  0.00  0.00    +0.000 C 
ATOM     12  C   UNL     1      48.740 241.169 325.188  0.00  0.00    +0.000 C 
ATOM     13  C   UNL     1      48.227 242.700 327.115  0.00  0.00    +0.000 C 
ATOM     14  C   UNL     1      51.463 244.211 328.517  0.00  0.00    +0.000 C 
ATOM     15  C   UNL     1      47.789 242.225 325.735  0.00  0.00    +0.000 C 
ATOM     16  C   UNL     1      53.911 243.926 325.408  0.00  0.00    +0.000 C 
ATOM     17  C   UNL     1      54.263 244.700 324.152  0.00  0.00    +0.000 C 
ATOM     18  C   UNL     1      52.550 243.327 322.914  0.00  0.00    +0.000 C 
ATOM     19  C   UNL     1      53.972 243.838 322.945  0.00  0.00    +0.000 C 
ENDROOT
TORSDOF 0
ENDMDL
MODEL 7
REMARK VINA RESULT:      -4.6     25.508     27.324
REMARK  Name = 
REMARK  0 active torsions:
REMARK  status: ('A' for Active; 'I' for Inactive)
REMARK                            x       y       z     vdW  Elec       q    Type
REMARK                         _______ _______ _______ _____ _____    ______ ____
ROOT
ATOM      1  O   UNL     1      46.619 235.101 322.038  0.00  0.00    +0.000 OA
ATOM      2  O   UNL     1      48.130 240.065 322.512  0.00  0.00    +0.000 OA
ATOM      3  N   UNL     1      47.692 234.390 321.577  0.00  0.00    +0.000 N 
ATOM      4  N   UNL     1      48.648 237.831 322.820  0.00  0.00    +0.000 N 
ATOM      5  C   UNL     1      49.020 235.161 321.698  0.00  0.00    +0.000 C 
ATOM      6  C   UNL     1      49.402 235.481 323.157  0.00  0.00    +0.000 C 
ATOM      7  C   UNL     1      49.070 236.419 320.822  0.00  0.00    +0.000 C 
ATOM      8  C   UNL     1      48.580 236.668 323.735  0.00  0.00    +0.000 C 
ATOM      9  C   UNL     1      49.385 234.187 323.992  0.00  0.00    +0.000 C 
ATOM     10  C   UNL     1      48.266 237.568 321.429  0.00  0.00    +0.000 C 
ATOM     11  C   UNL     1      47.789 233.111 322.382  0.00  0.00    +0.000 C 
ATOM     12  C   UNL     1      48.671 236.117 319.372  0.00  0.00    +0.000 C 
ATOM     13  C   UNL     1      47.451 234.049 320.121  0.00  0.00    +0.000 C 
ATOM     14  C   UNL     1      48.089 233.401 323.848  0.00  0.00    +0.000 C 
ATOM     15  C   UNL     1      47.387 235.303 319.258  0.00  0.00    +0.000 C 
ATOM     16  C   UNL     1      49.056 237.021 325.153  0.00  0.00    +0.000 C 
ATOM     17  C   UNL     1      48.372 238.285 325.637  0.00  0.00    +0.000 C 
ATOM     18  C   UNL     1      48.430 239.136 323.265  0.00  0.00    +0.000 C 
ATOM     19  C   UNL     1      48.738 239.427 324.717  0.00  0.00    +0.000 C 
ENDROOT
TORSDOF 0
ENDMDL
MODEL 8
REMARK VINA RESULT:      -4.6     25.351     27.083
REMARK  Name = 
REMARK  0 active torsions:
REMARK  status: ('A' for Active; 'I' for Inactive)
REMARK                            x       y       z     vdW  Elec       q    Type
REMARK                         _______ _______ _______ _____ _____    ______ ____
ROOT
ATOM      1  O   UNL     1      59.742 216.083 336.628  0.00  0.00    +0.000 OA
ATOM      2  O   UNL     1      58.130 216.643 341.551  0.00  0.00    +0.000 OA
ATOM      3  N   UNL     1      58.628 216.009 335.839  0.00  0.00    +0.000 N 
ATOM      4  N   UNL     1      57.864 217.242 339.332  0.00  0.00    +0.000 N 
ATOM      5  C   UNL     1      57.347 216.464 336.566  0.00  0.00    +0.000 C 
ATOM      6  C   UNL     1      57.388 217.945 336.990  0.00  0.00    +0.000 C 
ATOM      7  C   UNL     1      56.967 215.558 337.743  0.00  0.00    +0.000 C 
ATOM      8  C   UNL     1      58.267 218.172 338.253  0.00  0.00    +0.000 C 
ATOM      9  C   UNL     1      57.727 218.824 335.772  0.00  0.00    +0.000 C 
ATOM     10  C   UNL     1      57.840 215.821 338.969  0.00  0.00    +0.000 C 
ATOM     11  C   UNL     1      58.849 216.892 334.629  0.00  0.00    +0.000 C 
ATOM     12  C   UNL     1      56.944 214.079 337.337  0.00  0.00    +0.000 C 
ATOM     13  C   UNL     1      58.454 214.573 335.388  0.00  0.00    +0.000 C 
ATOM     14  C   UNL     1      58.971 218.358 335.028  0.00  0.00    +0.000 C 
ATOM     15  C   UNL     1      58.186 213.647 336.568  0.00  0.00    +0.000 C 
ATOM     16  C   UNL     1      58.205 219.640 338.704  0.00  0.00    +0.000 C 
ATOM     17  C   UNL     1      58.921 219.814 340.030  0.00  0.00    +0.000 C 
ATOM     18  C   UNL     1      58.121 217.513 340.678  0.00  0.00    +0.000 C 
ATOM     19  C   UNL     1      58.232 218.967 341.075  0.00  0.00    +0.000 C 
ENDROOT
TORSDOF 0
ENDMDL
MODEL 9
REMARK VINA RESULT:      -4.5     27.137     28.029
REMARK  Name = 
REMARK  0 active torsions:
REMARK  status: ('A' for Active; 'I' for Inactive)
REMARK                            x       y       z     vdW  Elec       q    Type
REMARK                         _______ _______ _______ _____ _____    ______ ____
ROOT
ATOM      1  O   UNL     1      71.249 218.100 339.370  0.00  0.00    +0.000 OA
ATOM      2  O   UNL     1      71.174 223.250 340.155  0.00  0.00    +0.000 OA
ATOM      3  N   UNL     1      70.249 217.556 340.127  0.00  0.00    +0.000 N 
ATOM      4  N   UNL     1      69.957 221.313 339.804  0.00  0.00    +0.000 N 
ATOM      5  C   UNL     1      69.246 218.608 340.641  0.00  0.00    +0.000 C 
ATOM      6  C   UNL     1      68.488 219.324 339.506  0.00  0.00    +0.000 C 
ATOM      7  C   UNL     1      69.873 219.614 341.613  0.00  0.00    +0.000 C 
ATOM      8  C   UNL     1      69.361 220.401 338.802  0.00  0.00    +0.000 C 
ATOM      9  C   UNL     1      67.836 218.281 338.580  0.00  0.00    +0.000 C 
ATOM     10  C   UNL     1      70.709 220.666 340.884  0.00  0.00    +0.000 C 
ATOM     11  C   UNL     1      69.510 216.546 339.275  0.00  0.00    +0.000 C 
ATOM     12  C   UNL     1      70.649 218.913 342.736  0.00  0.00    +0.000 C 
ATOM     13  C   UNL     1      70.874 216.851 341.313  0.00  0.00    +0.000 C 
ATOM     14  C   UNL     1      68.813 217.218 338.098  0.00  0.00    +0.000 C 
ATOM     15  C   UNL     1      71.597 217.833 342.227  0.00  0.00    +0.000 C 
ATOM     16  C   UNL     1      68.543 221.160 337.745  0.00  0.00    +0.000 C 
ATOM     17  C   UNL     1      69.349 222.319 337.190  0.00  0.00    +0.000 C 
ATOM     18  C   UNL     1      70.374 222.605 339.475  0.00  0.00    +0.000 C 
ATOM     19  C   UNL     1      69.675 223.275 338.314  0.00  0.00    +0.000 C 
ENDROOT
TORSDOF 0
ENDMDL
