MODEL 1
REMARK VINA RESULT:      -5.2      0.000      0.000
REMARK  Name = 
REMARK  23 active torsions:
REMARK  status: ('A' for Active; 'I' for Inactive)
REMARK    1  A    between atoms: O_2  and  C_17
REMARK    2  A    between atoms: O_2  and  C_36
REMARK    3  A    between atoms: O_3  and  C_20
REMARK    4  A    between atoms: O_3  and  C_37
REMARK    5  A    between atoms: O_4  and  C_21
REMARK    6  A    between atoms: O_5  and  C_22
REMARK    7  A    between atoms: O_6  and  C_30
REMARK    8  A    between atoms: O_6  and  C_39
REMARK    9  A    between atoms: O_8  and  C_31
REMARK   10  A    between atoms: O_8  and  C_40
REMARK   11  A    between atoms: O_13  and  C_42
REMARK   12  A    between atoms: N_15  and  C_46
REMARK   13  A    between atoms: C_18  and  C_29
REMARK   14  A    between atoms: C_24  and  C_33
REMARK   15  A    between atoms: C_24  and  C_34
REMARK   16  A    between atoms: C_32  and  C_35
REMARK   17  A    between atoms: C_36  and  C_38
REMARK   18  A    between atoms: C_37  and  C_41
REMARK   19  A    between atoms: C_39  and  C_43
REMARK   20  A    between atoms: C_40  and  C_42
REMARK   21  A    between atoms: C_42  and  C_46
REMARK   22  A    between atoms: C_46  and  C_50
REMARK   23  A    between atoms: C_53  and  C_56
REMARK                            x       y       z     vdW  Elec       q    Type
REMARK                         _______ _______ _______ _____ _____    ______ ____
ROOT
ATOM      1  O   UNL     1      59.304 240.761 353.595  0.00  0.00    +0.000 OA
ATOM      2  O   UNL     1      52.778 242.127 353.604  0.00  0.00    +0.000 OA
ATOM      3  C   UNL     1      56.434 240.718 351.698  0.00  0.00    +0.000 C 
ATOM      4  C   UNL     1      57.879 241.174 352.052  0.00  0.00    +0.000 C 
ATOM      5  C   UNL     1      55.246 241.876 352.619  0.00  0.00    +0.000 C 
ATOM      6  C   UNL     1      57.850 240.767 353.582  0.00  0.00    +0.000 C 
ATOM      7  C   UNL     1      56.244 240.350 349.880  0.00  0.00    +0.000 C 
ATOM      8  C   UNL     1      54.947 239.833 348.600  0.00  0.00    +0.000 C 
ATOM      9  C   UNL     1      55.602 241.659 354.150  0.00  0.00    +0.000 C 
ATOM     10  C   UNL     1      57.119 241.717 354.504  0.00  0.00    +0.000 C 
ATOM     11  C   UNL     1      53.184 239.759 348.779  0.00  0.00    +0.000 C 
ATOM     12  C   UNL     1      59.213 240.337 352.180  0.00  0.00    +0.000 C 
ATOM     13  C   UNL     1      53.367 241.895 352.526  0.00  0.00    +0.000 C 
ATOM     14  C   UNL     1      55.055 240.900 347.416  0.00  0.00    +0.000 C 
ATOM     15  C   UNL     1      52.578 241.152 349.299  0.00  0.00    +0.000 C 
ATOM     16  C   UNL     1      55.589 243.406 352.391  0.00  0.00    +0.000 C 
ATOM     17  C   UNL     1      52.230 241.583 351.009  0.00  0.00    +0.000 C 
ATOM     18  C   UNL     1      54.046 242.136 347.413  0.00  0.00    +0.000 C 
ATOM     19  C   UNL     1      52.837 242.177 348.418  0.00  0.00    +0.000 C 
ATOM     20  C   UNL     1      52.589 239.504 347.304  0.00  0.00    +0.000 C 
ATOM     21  C   UNL     1      52.534 238.486 349.410  0.00  0.00    +0.000 C 
ATOM     22  C   UNL     1      52.166 243.524 348.524  0.00  0.00    +0.000 C 
ENDROOT
BRANCH   9  23
ATOM     23  O   UNL     1      55.129 240.376 354.561  0.00  0.00    +0.000 OA
ATOM     24  H   UNL     1      55.698 239.717 354.114  0.00  0.00    +0.000 HD
ENDBRANCH   9  23
BRANCH   8  25
ATOM     25  O   UNL     1      55.409 238.578 348.066  0.00  0.00    +0.000 OA
ATOM     26  H   UNL     1      55.756 238.728 347.169  0.00  0.00    +0.000 HD
ENDBRANCH   8  25
BRANCH  18  27
ATOM     27  O   UNL     1      54.819 243.348 347.650  0.00  0.00    +0.000 OA
BRANCH  27  29
ATOM     28  O   UNL     1      56.055 243.861 345.825  0.00  0.00    +0.000 OA
ATOM     29  C   UNL     1      55.110 244.113 346.566  0.00  0.00    +0.000 C 
BRANCH  29  30
ATOM     30  C   UNL     1      54.270 245.388 346.444  0.00  0.00    +0.000 C 
BRANCH  30  31
ATOM     31  O   UNL     1      53.476 245.487 345.257  0.00  0.00    +0.000 OA
ATOM     32  H   UNL     1      53.085 246.381 345.267  0.00  0.00    +0.000 HD
ENDBRANCH  30  31
BRANCH  30  33
ATOM     33  C   UNL     1      55.225 246.608 346.565  0.00  0.00    +0.000 C 
BRANCH  33  34
ATOM     34  C   UNL     1      54.925 247.401 347.829  0.00  0.00    +0.000 A 
ATOM     35  C   UNL     1      55.549 248.645 348.028  0.00  0.00    +0.000 A 
ATOM     36  C   UNL     1      54.064 246.916 348.826  0.00  0.00    +0.000 A 
ATOM     37  C   UNL     1      55.304 249.390 349.183  0.00  0.00    +0.000 A 
ATOM     38  C   UNL     1      53.819 247.663 349.979  0.00  0.00    +0.000 A 
ATOM     39  C   UNL     1      54.437 248.900 350.157  0.00  0.00    +0.000 A 
ENDBRANCH  33  34
BRANCH  33  41
ATOM     40  O   UNL     1      55.665 248.023 343.266  0.00  0.00    +0.000 OA
ATOM     41  N   UNL     1      55.123 247.459 345.373  0.00  0.00    +0.000 N 
ATOM     42  C   UNL     1      56.040 247.662 344.378  0.00  0.00    +0.000 C 
ATOM     43  H   UNL     1      54.174 247.709 345.110  0.00  0.00    +0.000 HD
BRANCH  42  44
ATOM     44  C   UNL     1      57.477 247.404 344.618  0.00  0.00    +0.000 A 
ATOM     45  C   UNL     1      58.075 246.198 344.239  0.00  0.00    +0.000 A 
ATOM     46  C   UNL     1      58.224 248.369 345.304  0.00  0.00    +0.000 A 
ATOM     47  C   UNL     1      59.432 245.986 344.491  0.00  0.00    +0.000 A 
ATOM     48  C   UNL     1      59.578 248.153 345.558  0.00  0.00    +0.000 A 
ATOM     49  C   UNL     1      60.183 246.965 345.142  0.00  0.00    +0.000 A 
ENDBRANCH  42  44
ENDBRANCH  33  41
ENDBRANCH  30  33
ENDBRANCH  29  30
ENDBRANCH  27  29
ENDBRANCH  18  27
BRANCH  17  50
ATOM     50  O   UNL     1      51.083 240.769 351.336  0.00  0.00    +0.000 OA
BRANCH  50  52
ATOM     51  O   UNL     1      48.858 240.557 351.465  0.00  0.00    +0.000 OA
ATOM     52  C   UNL     1      49.847 241.281 351.535  0.00  0.00    +0.000 C 
ATOM     53  C   UNL     1      49.728 242.760 351.750  0.00  0.00    +0.000 C 
ENDBRANCH  50  52
ENDBRANCH  17  50
BRANCH   7  54
ATOM     54  O   UNL     1      55.813 241.589 349.770  0.00  0.00    +0.000 OA
BRANCH  54  56
ATOM     55  O   UNL     1      57.521 240.872 348.993  0.00  0.00    +0.000 OA
ATOM     56  C   UNL     1      56.982 241.963 349.151  0.00  0.00    +0.000 C 
BRANCH  56  57
ATOM     57  C   UNL     1      57.581 243.773 348.986  0.00  0.00    +0.000 A 
ATOM     58  C   UNL     1      57.070 244.905 349.756  0.00  0.00    +0.000 A 
ATOM     59  C   UNL     1      58.675 244.259 348.207  0.00  0.00    +0.000 A 
ATOM     60  C   UNL     1      57.556 246.236 349.750  0.00  0.00    +0.000 A 
ATOM     61  C   UNL     1      59.176 245.591 348.185  0.00  0.00    +0.000 A 
ATOM     62  C   UNL     1      58.621 246.582 348.959  0.00  0.00    +0.000 A 
ENDBRANCH  56  57
ENDBRANCH  54  56
ENDBRANCH   7  54
BRANCH   4  63
ATOM     63  O   UNL     1      58.083 242.586 351.814  0.00  0.00    +0.000 OA
BRANCH  63  65
ATOM     64  O   UNL     1      60.169 242.890 351.069  0.00  0.00    +0.000 OA
ATOM     65  C   UNL     1      59.284 243.207 351.861  0.00  0.00    +0.000 C 
ATOM     66  C   UNL     1      59.560 244.190 352.953  0.00  0.00    +0.000 C 
ENDBRANCH  63  65
ENDBRANCH   4  63
TORSDOF 17
ENDMDL
MODEL 2
REMARK VINA RESULT:      -5.0     12.937     18.141
REMARK  Name = 
REMARK  23 active torsions:
REMARK  status: ('A' for Active; 'I' for Inactive)
REMARK    1  A    between atoms: O_2  and  C_17
REMARK    2  A    between atoms: O_2  and  C_36
REMARK    3  A    between atoms: O_3  and  C_20
REMARK    4  A    between atoms: O_3  and  C_37
REMARK    5  A    between atoms: O_4  and  C_21
REMARK    6  A    between atoms: O_5  and  C_22
REMARK    7  A    between atoms: O_6  and  C_30
REMARK    8  A    between atoms: O_6  and  C_39
REMARK    9  A    between atoms: O_8  and  C_31
REMARK   10  A    between atoms: O_8  and  C_40
REMARK   11  A    between atoms: O_13  and  C_42
REMARK   12  A    between atoms: N_15  and  C_46
REMARK   13  A    between atoms: C_18  and  C_29
REMARK   14  A    between atoms: C_24  and  C_33
REMARK   15  A    between atoms: C_24  and  C_34
REMARK   16  A    between atoms: C_32  and  C_35
REMARK   17  A    between atoms: C_36  and  C_38
REMARK   18  A    between atoms: C_37  and  C_41
REMARK   19  A    between atoms: C_39  and  C_43
REMARK   20  A    between atoms: C_40  and  C_42
REMARK   21  A    between atoms: C_42  and  C_46
REMARK   22  A    between atoms: C_46  and  C_50
REMARK   23  A    between atoms: C_53  and  C_56
REMARK                            x       y       z     vdW  Elec       q    Type
REMARK                         _______ _______ _______ _____ _____    ______ ____
ROOT
ATOM      1  O   UNL     1      66.278 224.736 356.040  0.00  0.00    +0.000 OA
ATOM      2  O   UNL     1      65.416 226.948 349.809  0.00  0.00    +0.000 OA
ATOM      3  C   UNL     1      65.397 227.463 354.135  0.00  0.00    +0.000 C 
ATOM      4  C   UNL     1      65.149 226.341 355.184  0.00  0.00    +0.000 C 
ATOM      5  C   UNL     1      64.984 226.732 352.433  0.00  0.00    +0.000 C 
ATOM      6  C   UNL     1      66.327 225.382 354.738  0.00  0.00    +0.000 C 
ATOM      7  C   UNL     1      64.717 229.106 354.697  0.00  0.00    +0.000 C 
ATOM      8  C   UNL     1      64.503 230.897 354.119  0.00  0.00    +0.000 C 
ATOM      9  C   UNL     1      65.987 225.514 352.281  0.00  0.00    +0.000 C 
ATOM     10  C   UNL     1      66.068 224.549 353.503  0.00  0.00    +0.000 C 
ATOM     11  C   UNL     1      64.737 231.571 352.495  0.00  0.00    +0.000 C 
ATOM     12  C   UNL     1      65.862 226.055 356.565  0.00  0.00    +0.000 C 
ATOM     13  C   UNL     1      64.996 227.620 350.775  0.00  0.00    +0.000 C 
ATOM     14  C   UNL     1      62.959 231.243 354.336  0.00  0.00    +0.000 C 
ATOM     15  C   UNL     1      63.883 230.778 351.391  0.00  0.00    +0.000 C 
ATOM     16  C   UNL     1      63.564 226.026 352.403  0.00  0.00    +0.000 C 
ATOM     17  C   UNL     1      64.474 229.424 350.367  0.00  0.00    +0.000 C 
ATOM     18  C   UNL     1      61.967 231.100 353.094  0.00  0.00    +0.000 C 
ATOM     19  C   UNL     1      62.534 230.847 351.649  0.00  0.00    +0.000 C 
ATOM     20  C   UNL     1      64.169 233.078 352.544  0.00  0.00    +0.000 C 
ATOM     21  C   UNL     1      66.175 231.983 352.040  0.00  0.00    +0.000 C 
ATOM     22  C   UNL     1      61.494 230.419 350.644  0.00  0.00    +0.000 C 
ENDROOT
BRANCH   9  23
ATOM     23  O   UNL     1      67.304 226.020 352.063  0.00  0.00    +0.000 OA
ATOM     24  H   UNL     1      67.570 226.462 352.895  0.00  0.00    +0.000 HD
ENDBRANCH   9  23
BRANCH   8  25
ATOM     25  O   UNL     1      65.241 231.699 355.061  0.00  0.00    +0.000 OA
ATOM     26  H   UNL     1      65.894 232.232 354.575  0.00  0.00    +0.000 HD
ENDBRANCH   8  25
BRANCH  18  27
ATOM     27  O   UNL     1      61.051 230.002 353.375  0.00  0.00    +0.000 OA
BRANCH  27  29
ATOM     28  O   UNL     1      59.694 231.141 354.783  0.00  0.00    +0.000 OA
ATOM     29  C   UNL     1      59.831 230.332 353.872  0.00  0.00    +0.000 C 
BRANCH  29  30
ATOM     30  C   UNL     1      58.672 229.499 353.315  0.00  0.00    +0.000 C 
BRANCH  30  31
ATOM     31  O   UNL     1      58.539 229.512 351.889  0.00  0.00    +0.000 OA
ATOM     32  H   UNL     1      58.885 230.374 351.592  0.00  0.00    +0.000 HD
ENDBRANCH  30  31
BRANCH  30  33
ATOM     33  C   UNL     1      57.360 229.986 353.989  0.00  0.00    +0.000 C 
BRANCH  33  34
ATOM     34  C   UNL     1      56.498 228.802 354.405  0.00  0.00    +0.000 A 
ATOM     35  C   UNL     1      56.108 228.669 355.749  0.00  0.00    +0.000 A 
ATOM     36  C   UNL     1      56.103 227.812 353.491  0.00  0.00    +0.000 A 
ATOM     37  C   UNL     1      55.330 227.588 356.162  0.00  0.00    +0.000 A 
ATOM     38  C   UNL     1      55.323 226.732 353.906  0.00  0.00    +0.000 A 
ATOM     39  C   UNL     1      54.935 226.621 355.241  0.00  0.00    +0.000 A 
ENDBRANCH  33  34
BRANCH  33  41
ATOM     40  O   UNL     1      55.675 232.852 352.564  0.00  0.00    +0.000 OA
ATOM     41  N   UNL     1      56.623 230.883 353.089  0.00  0.00    +0.000 N 
ATOM     42  C   UNL     1      55.849 231.968 353.398  0.00  0.00    +0.000 C 
ATOM     43  H   UNL     1      56.939 230.870 352.124  0.00  0.00    +0.000 HD
BRANCH  42  44
ATOM     44  C   UNL     1      55.258 232.108 354.748  0.00  0.00    +0.000 A 
ATOM     45  C   UNL     1      54.017 231.547 355.063  0.00  0.00    +0.000 A 
ATOM     46  C   UNL     1      55.935 232.883 355.697  0.00  0.00    +0.000 A 
ATOM     47  C   UNL     1      53.486 231.708 356.344  0.00  0.00    +0.000 A 
ATOM     48  C   UNL     1      55.401 233.045 356.975  0.00  0.00    +0.000 A 
ATOM     49  C   UNL     1      54.181 232.449 357.299  0.00  0.00    +0.000 A 
ENDBRANCH  42  44
ENDBRANCH  33  41
ENDBRANCH  30  33
ENDBRANCH  29  30
ENDBRANCH  27  29
ENDBRANCH  18  27
BRANCH  17  50
ATOM     50  O   UNL     1      65.381 230.067 349.446  0.00  0.00    +0.000 OA
BRANCH  50  52
ATOM     51  O   UNL     1      66.078 230.247 347.327  0.00  0.00    +0.000 OA
ATOM     52  C   UNL     1      65.144 230.158 348.118  0.00  0.00    +0.000 C 
ATOM     53  C   UNL     1      63.717 230.234 347.664  0.00  0.00    +0.000 C 
ENDBRANCH  50  52
ENDBRANCH  17  50
BRANCH   7  54
ATOM     54  O   UNL     1      63.640 228.790 354.010  0.00  0.00    +0.000 OA
BRANCH  54  56
ATOM     55  O   UNL     1      63.759 228.935 356.010  0.00  0.00    +0.000 OA
ATOM     56  C   UNL     1      62.934 228.587 355.173  0.00  0.00    +0.000 C 
BRANCH  56  57
ATOM     57  C   UNL     1      61.256 227.670 355.266  0.00  0.00    +0.000 A 
ATOM     58  C   UNL     1      60.751 226.730 354.268  0.00  0.00    +0.000 A 
ATOM     59  C   UNL     1      60.331 227.661 356.354  0.00  0.00    +0.000 A 
ATOM     60  C   UNL     1      59.573 225.946 354.347  0.00  0.00    +0.000 A 
ATOM     61  C   UNL     1      59.143 226.883 356.451  0.00  0.00    +0.000 A 
ATOM     62  C   UNL     1      58.763 226.021 355.450  0.00  0.00    +0.000 A 
ENDBRANCH  56  57
ENDBRANCH  54  56
ENDBRANCH   7  54
BRANCH   4  63
ATOM     63  O   UNL     1      63.829 225.760 355.065  0.00  0.00    +0.000 OA
BRANCH  63  65
ATOM     64  O   UNL     1      63.304 223.625 355.474  0.00  0.00    +0.000 OA
ATOM     65  C   UNL     1      63.342 224.789 355.870  0.00  0.00    +0.000 C 
ATOM     66  C   UNL     1      62.747 225.160 357.191  0.00  0.00    +0.000 C 
ENDBRANCH  63  65
ENDBRANCH   4  63
TORSDOF 17
ENDMDL
MODEL 3
REMARK VINA RESULT:      -5.0     22.810     27.039
REMARK  Name = 
REMARK  23 active torsions:
REMARK  status: ('A' for Active; 'I' for Inactive)
REMARK    1  A    between atoms: O_2  and  C_17
REMARK    2  A    between atoms: O_2  and  C_36
REMARK    3  A    between atoms: O_3  and  C_20
REMARK    4  A    between atoms: O_3  and  C_37
REMARK    5  A    between atoms: O_4  and  C_21
REMARK    6  A    between atoms: O_5  and  C_22
REMARK    7  A    between atoms: O_6  and  C_30
REMARK    8  A    between atoms: O_6  and  C_39
REMARK    9  A    between atoms: O_8  and  C_31
REMARK   10  A    between atoms: O_8  and  C_40
REMARK   11  A    between atoms: O_13  and  C_42
REMARK   12  A    between atoms: N_15  and  C_46
REMARK   13  A    between atoms: C_18  and  C_29
REMARK   14  A    between atoms: C_24  and  C_33
REMARK   15  A    between atoms: C_24  and  C_34
REMARK   16  A    between atoms: C_32  and  C_35
REMARK   17  A    between atoms: C_36  and  C_38
REMARK   18  A    between atoms: C_37  and  C_41
REMARK   19  A    between atoms: C_39  and  C_43
REMARK   20  A    between atoms: C_40  and  C_42
REMARK   21  A    between atoms: C_42  and  C_46
REMARK   22  A    between atoms: C_46  and  C_50
REMARK   23  A    between atoms: C_53  and  C_56
REMARK                            x       y       z     vdW  Elec       q    Type
REMARK                         _______ _______ _______ _____ _____    ______ ____
ROOT
ATOM      1  O   UNL     1      52.500 245.670 328.224  0.00  0.00    +0.000 OA
ATOM      2  O   UNL     1      46.198 246.045 326.079  0.00  0.00    +0.000 OA
ATOM      3  C   UNL     1      49.829 243.844 327.051  0.00  0.00    +0.000 C 
ATOM      4  C   UNL     1      51.279 244.410 326.999  0.00  0.00    +0.000 C 
ATOM      5  C   UNL     1      48.701 245.134 326.237  0.00  0.00    +0.000 C 
ATOM      6  C   UNL     1      51.063 245.612 328.006  0.00  0.00    +0.000 C 
ATOM      7  C   UNL     1      49.767 242.040 326.583  0.00  0.00    +0.000 C 
ATOM      8  C   UNL     1      48.543 240.619 326.318  0.00  0.00    +0.000 C 
ATOM      9  C   UNL     1      48.889 246.431 327.130  0.00  0.00    +0.000 C 
ATOM     10  C   UNL     1      50.363 246.827 327.444  0.00  0.00    +0.000 C 
ATOM     11  C   UNL     1      46.774 240.688 326.210  0.00  0.00    +0.000 C 
ATOM     12  C   UNL     1      52.492 244.209 327.991  0.00  0.00    +0.000 C 
ATOM     13  C   UNL     1      46.853 244.994 325.914  0.00  0.00    +0.000 C 
ATOM     14  C   UNL     1      48.880 240.017 324.878  0.00  0.00    +0.000 C 
ATOM     15  C   UNL     1      46.285 241.738 325.098  0.00  0.00    +0.000 C 
ATOM     16  C   UNL     1      49.236 245.601 324.820  0.00  0.00    +0.000 C 
ATOM     17  C   UNL     1      45.833 243.453 325.388  0.00  0.00    +0.000 C 
ATOM     18  C   UNL     1      48.022 240.514 323.628  0.00  0.00    +0.000 C 
ATOM     19  C   UNL     1      46.738 241.396 323.845  0.00  0.00    +0.000 C 
ATOM     20  C   UNL     1      46.293 239.228 325.729  0.00  0.00    +0.000 C 
ATOM     21  C   UNL     1      45.929 240.684 327.524  0.00  0.00    +0.000 C 
ATOM     22  C   UNL     1      46.219 242.051 322.590  0.00  0.00    +0.000 C 
ENDROOT
BRANCH   9  23
ATOM     23  O   UNL     1      48.237 246.231 328.384  0.00  0.00    +0.000 OA
ATOM     24  H   UNL     1      47.809 247.082 328.610  0.00  0.00    +0.000 HD
ENDBRANCH   9  23
BRANCH   8  25
ATOM     25  O   UNL     1      48.907 239.611 327.281  0.00  0.00    +0.000 OA
ATOM     26  H   UNL     1      49.575 239.025 326.883  0.00  0.00    +0.000 HD
ENDBRANCH   8  25
BRANCH  18  27
ATOM     27  O   UNL     1      48.903 241.278 322.753  0.00  0.00    +0.000 OA
BRANCH  27  29
ATOM     28  O   UNL     1      48.959 241.094 320.498  0.00  0.00    +0.000 OA
ATOM     29  C   UNL     1      49.297 240.677 321.601  0.00  0.00    +0.000 C 
BRANCH  29  30
ATOM     30  C   UNL     1      50.054 239.360 321.799  0.00  0.00    +0.000 C 
BRANCH  30  31
ATOM     31  O   UNL     1      51.392 239.339 321.289  0.00  0.00    +0.000 OA
ATOM     32  H   UNL     1      51.911 239.928 321.867  0.00  0.00    +0.000 HD
ENDBRANCH  30  31
BRANCH  30  33
ATOM     33  C   UNL     1      49.210 238.219 321.165  0.00  0.00    +0.000 C 
BRANCH  33  34
ATOM     34  C   UNL     1      48.524 237.395 322.246  0.00  0.00    +0.000 A 
ATOM     35  C   UNL     1      49.303 236.641 323.140  0.00  0.00    +0.000 A 
ATOM     36  C   UNL     1      47.126 237.336 322.361  0.00  0.00    +0.000 A 
ATOM     37  C   UNL     1      48.702 235.866 324.132  0.00  0.00    +0.000 A 
ATOM     38  C   UNL     1      46.526 236.562 323.356  0.00  0.00    +0.000 A 
ATOM     39  C   UNL     1      47.314 235.829 324.242  0.00  0.00    +0.000 A 
ENDBRANCH  33  34
BRANCH  33  41
ATOM     40  O   UNL     1      50.440 236.147 318.468  0.00  0.00    +0.000 OA
ATOM     41  N   UNL     1      50.054 237.371 320.313  0.00  0.00    +0.000 N 
ATOM     42  C   UNL     1      49.678 236.438 319.385  0.00  0.00    +0.000 C 
ATOM     43  H   UNL     1      51.007 237.701 320.196  0.00  0.00    +0.000 HD
BRANCH  42  44
ATOM     44  C   UNL     1      48.339 235.810 319.452  0.00  0.00    +0.000 A 
ATOM     45  C   UNL     1      47.233 236.383 318.817  0.00  0.00    +0.000 A 
ATOM     46  C   UNL     1      48.178 234.658 320.230  0.00  0.00    +0.000 A 
ATOM     47  C   UNL     1      45.983 235.769 318.909  0.00  0.00    +0.000 A 
ATOM     48  C   UNL     1      46.928 234.047 320.323  0.00  0.00    +0.000 A 
ATOM     49  C   UNL     1      45.834 234.599 319.655  0.00  0.00    +0.000 A 
ENDBRANCH  42  44
ENDBRANCH  33  41
ENDBRANCH  30  33
ENDBRANCH  29  30
ENDBRANCH  27  29
ENDBRANCH  18  27
BRANCH  17  50
ATOM     50  O   UNL     1      44.575 243.357 326.091  0.00  0.00    +0.000 OA
BRANCH  50  52
ATOM     51  O   UNL     1      42.896 244.832 325.964  0.00  0.00    +0.000 OA
ATOM     52  C   UNL     1      43.403 243.785 325.570  0.00  0.00    +0.000 C 
ATOM     53  C   UNL     1      42.714 242.901 324.575  0.00  0.00    +0.000 C 
ENDBRANCH  50  52
ENDBRANCH  17  50
BRANCH   7  54
ATOM     54  O   UNL     1      49.492 242.462 325.367  0.00  0.00    +0.000 OA
BRANCH  54  56
ATOM     55  O   UNL     1      51.188 241.549 325.938  0.00  0.00    +0.000 OA
ATOM     56  C   UNL     1      50.745 242.098 324.935  0.00  0.00    +0.000 C 
BRANCH  56  57
ATOM     57  C   UNL     1      51.530 242.691 323.293  0.00  0.00    +0.000 A 
ATOM     58  C   UNL     1      51.049 243.806 322.481  0.00  0.00    +0.000 A 
ATOM     59  C   UNL     1      52.746 242.236 322.697  0.00  0.00    +0.000 A 
ATOM     60  C   UNL     1      51.659 244.351 321.323  0.00  0.00    +0.000 A 
ATOM     61  C   UNL     1      53.373 242.768 321.535  0.00  0.00    +0.000 A 
ATOM     62  C   UNL     1      52.833 243.828 320.847  0.00  0.00    +0.000 A 
ENDBRANCH  56  57
ENDBRANCH  54  56
ENDBRANCH   7  54
BRANCH   4  63
ATOM     63  O   UNL     1      51.663 244.812 325.663  0.00  0.00    +0.000 OA
BRANCH  63  65
ATOM     64  O   UNL     1      53.003 246.516 325.114  0.00  0.00    +0.000 OA
ATOM     65  C   UNL     1      52.875 245.313 325.331  0.00  0.00    +0.000 C 
ATOM     66  C   UNL     1      54.021 244.377 325.116  0.00  0.00    +0.000 C 
ENDBRANCH  63  65
ENDBRANCH   4  63
TORSDOF 17
ENDMDL
MODEL 4
REMARK VINA RESULT:      -4.9     29.773     32.929
REMARK  Name = 
REMARK  23 active torsions:
REMARK  status: ('A' for Active; 'I' for Inactive)
REMARK    1  A    between atoms: O_2  and  C_17
REMARK    2  A    between atoms: O_2  and  C_36
REMARK    3  A    between atoms: O_3  and  C_20
REMARK    4  A    between atoms: O_3  and  C_37
REMARK    5  A    between atoms: O_4  and  C_21
REMARK    6  A    between atoms: O_5  and  C_22
REMARK    7  A    between atoms: O_6  and  C_30
REMARK    8  A    between atoms: O_6  and  C_39
REMARK    9  A    between atoms: O_8  and  C_31
REMARK   10  A    between atoms: O_8  and  C_40
REMARK   11  A    between atoms: O_13  and  C_42
REMARK   12  A    between atoms: N_15  and  C_46
REMARK   13  A    between atoms: C_18  and  C_29
REMARK   14  A    between atoms: C_24  and  C_33
REMARK   15  A    between atoms: C_24  and  C_34
REMARK   16  A    between atoms: C_32  and  C_35
REMARK   17  A    between atoms: C_36  and  C_38
REMARK   18  A    between atoms: C_37  and  C_41
REMARK   19  A    between atoms: C_39  and  C_43
REMARK   20  A    between atoms: C_40  and  C_42
REMARK   21  A    between atoms: C_42  and  C_46
REMARK   22  A    between atoms: C_46  and  C_50
REMARK   23  A    between atoms: C_53  and  C_56
REMARK                            x       y       z     vdW  Elec       q    Type
REMARK                         _______ _______ _______ _____ _____    ______ ____
ROOT
ATOM      1  O   UNL     1      60.924 221.549 329.180  0.00  0.00    +0.000 OA
ATOM      2  O   UNL     1      66.017 222.131 324.916  0.00  0.00    +0.000 OA
ATOM      3  C   UNL     1      62.371 223.580 326.808  0.00  0.00    +0.000 C 
ATOM      4  C   UNL     1      61.235 222.692 327.397  0.00  0.00    +0.000 C 
ATOM      5  C   UNL     1      63.536 222.427 325.852  0.00  0.00    +0.000 C 
ATOM      6  C   UNL     1      62.124 221.888 328.431  0.00  0.00    +0.000 C 
ATOM      7  C   UNL     1      61.708 225.155 326.062  0.00  0.00    +0.000 C 
ATOM      8  C   UNL     1      62.270 226.704 325.128  0.00  0.00    +0.000 C 
ATOM      9  C   UNL     1      64.058 221.408 326.949  0.00  0.00    +0.000 C 
ATOM     10  C   UNL     1      62.961 220.770 327.854  0.00  0.00    +0.000 C 
ATOM     11  C   UNL     1      63.843 227.033 324.376  0.00  0.00    +0.000 C 
ATOM     12  C   UNL     1      60.396 222.854 328.725  0.00  0.00    +0.000 C 
ATOM     13  C   UNL     1      65.045 222.913 324.839  0.00  0.00    +0.000 C 
ATOM     14  C   UNL     1      61.328 226.804 323.843  0.00  0.00    +0.000 C 
ATOM     15  C   UNL     1      64.267 225.873 323.350  0.00  0.00    +0.000 C 
ATOM     16  C   UNL     1      62.763 221.487 324.836  0.00  0.00    +0.000 C 
ATOM     17  C   UNL     1      65.306 224.456 323.725  0.00  0.00    +0.000 C 
ATOM     18  C   UNL     1      61.864 226.212 322.461  0.00  0.00    +0.000 C 
ATOM     19  C   UNL     1      63.361 225.752 322.321  0.00  0.00    +0.000 C 
ATOM     20  C   UNL     1      63.661 228.384 323.518  0.00  0.00    +0.000 C 
ATOM     21  C   UNL     1      65.009 227.587 325.256  0.00  0.00    +0.000 C 
ATOM     22  C   UNL     1      63.642 224.930 321.088  0.00  0.00    +0.000 C 
ENDROOT
BRANCH   9  23
ATOM     23  O   UNL     1      64.970 222.083 327.815  0.00  0.00    +0.000 OA
ATOM     24  H   UNL     1      64.423 222.599 328.442  0.00  0.00    +0.000 HD
ENDBRANCH   9  23
BRANCH   8  25
ATOM     25  O   UNL     1      61.925 227.815 325.978  0.00  0.00    +0.000 OA
ATOM     26  H   UNL     1      62.320 227.672 326.856  0.00  0.00    +0.000 HD
ENDBRANCH   8  25
BRANCH  18  27
ATOM     27  O   UNL     1      61.044 225.056 322.120  0.00  0.00    +0.000 OA
BRANCH  27  29
ATOM     28  O   UNL     1      60.347 224.646 320.006  0.00  0.00    +0.000 OA
ATOM     29  C   UNL     1      60.176 225.203 321.086  0.00  0.00    +0.000 C 
BRANCH  29  30
ATOM     30  C   UNL     1      59.071 226.236 321.327  0.00  0.00    +0.000 C 
BRANCH  30  31
ATOM     31  O   UNL     1      57.752 225.698 321.479  0.00  0.00    +0.000 OA
ATOM     32  H   UNL     1      57.467 225.934 322.382  0.00  0.00    +0.000 HD
ENDBRANCH  30  31
BRANCH  30  33
ATOM     33  C   UNL     1      59.110 227.264 320.162  0.00  0.00    +0.000 C 
BRANCH  33  34
ATOM     34  C   UNL     1      60.149 228.343 320.432  0.00  0.00    +0.000 A 
ATOM     35  C   UNL     1      61.330 228.370 319.670  0.00  0.00    +0.000 A 
ATOM     36  C   UNL     1      59.982 229.300 321.445  0.00  0.00    +0.000 A 
ATOM     37  C   UNL     1      62.307 229.339 319.903  0.00  0.00    +0.000 A 
ATOM     38  C   UNL     1      60.960 230.269 321.675  0.00  0.00    +0.000 A 
ATOM     39  C   UNL     1      62.120 230.290 320.903  0.00  0.00    +0.000 A 
ENDBRANCH  33  34
BRANCH  33  41
ATOM     40  O   UNL     1      56.143 228.687 318.661  0.00  0.00    +0.000 OA
ATOM     41  N   UNL     1      57.780 227.853 319.954  0.00  0.00    +0.000 N 
ATOM     42  C   UNL     1      57.340 228.645 318.929  0.00  0.00    +0.000 C 
ATOM     43  H   UNL     1      57.032 227.405 320.474  0.00  0.00    +0.000 HD
BRANCH  42  44
ATOM     44  C   UNL     1      58.302 229.416 318.109  0.00  0.00    +0.000 A 
ATOM     45  C   UNL     1      58.942 228.844 317.006  0.00  0.00    +0.000 A 
ATOM     46  C   UNL     1      58.620 230.721 318.503  0.00  0.00    +0.000 A 
ATOM     47  C   UNL     1      59.851 229.599 316.262  0.00  0.00    +0.000 A 
ATOM     48  C   UNL     1      59.530 231.472 317.760  0.00  0.00    +0.000 A 
ATOM     49  C   UNL     1      60.138 230.913 316.635  0.00  0.00    +0.000 A 
ENDBRANCH  42  44
ENDBRANCH  33  41
ENDBRANCH  30  33
ENDBRANCH  29  30
ENDBRANCH  27  29
ENDBRANCH  18  27
BRANCH  17  50
ATOM     50  O   UNL     1      66.621 225.032 323.878  0.00  0.00    +0.000 OA
BRANCH  50  52
ATOM     51  O   UNL     1      67.471 224.095 322.031  0.00  0.00    +0.000 OA
ATOM     52  C   UNL     1      67.659 224.731 323.064  0.00  0.00    +0.000 C 
ATOM     53  C   UNL     1      69.036 225.120 323.511  0.00  0.00    +0.000 C 
ENDBRANCH  50  52
ENDBRANCH  17  50
BRANCH   7  54
ATOM     54  O   UNL     1      61.709 224.504 324.918  0.00  0.00    +0.000 OA
BRANCH  54  56
ATOM     55  O   UNL     1      60.077 225.086 325.937  0.00  0.00    +0.000 OA
ATOM     56  C   UNL     1      60.337 224.408 324.948  0.00  0.00    +0.000 C 
BRANCH  56  57
ATOM     57  C   UNL     1      59.320 223.205 323.861  0.00  0.00    +0.000 A 
ATOM     58  C   UNL     1      57.881 223.294 323.624  0.00  0.00    +0.000 A 
ATOM     59  C   UNL     1      59.815 222.152 323.034  0.00  0.00    +0.000 A 
ATOM     60  C   UNL     1      57.106 222.498 322.743  0.00  0.00    +0.000 A 
ATOM     61  C   UNL     1      59.053 221.342 322.145  0.00  0.00    +0.000 A 
ATOM     62  C   UNL     1      57.698 221.515 321.995  0.00  0.00    +0.000 A 
ENDBRANCH  56  57
ENDBRANCH  54  56
ENDBRANCH   7  54
BRANCH   4  63
ATOM     63  O   UNL     1      60.602 221.870 326.389  0.00  0.00    +0.000 OA
BRANCH  63  65
ATOM     64  O   UNL     1      59.758 219.815 326.642  0.00  0.00    +0.000 OA
ATOM     65  C   UNL     1      59.568 221.030 326.622  0.00  0.00    +0.000 C 
ATOM     66  C   UNL     1      58.184 221.583 326.735  0.00  0.00    +0.000 C 
ENDBRANCH  63  65
ENDBRANCH   4  63
TORSDOF 17
ENDMDL
MODEL 5
REMARK VINA RESULT:      -4.8     29.606     33.277
REMARK  Name = 
REMARK  23 active torsions:
REMARK  status: ('A' for Active; 'I' for Inactive)
REMARK    1  A    between atoms: O_2  and  C_17
REMARK    2  A    between atoms: O_2  and  C_36
REMARK    3  A    between atoms: O_3  and  C_20
REMARK    4  A    between atoms: O_3  and  C_37
REMARK    5  A    between atoms: O_4  and  C_21
REMARK    6  A    between atoms: O_5  and  C_22
REMARK    7  A    between atoms: O_6  and  C_30
REMARK    8  A    between atoms: O_6  and  C_39
REMARK    9  A    between atoms: O_8  and  C_31
REMARK   10  A    between atoms: O_8  and  C_40
REMARK   11  A    between atoms: O_13  and  C_42
REMARK   12  A    between atoms: N_15  and  C_46
REMARK   13  A    between atoms: C_18  and  C_29
REMARK   14  A    between atoms: C_24  and  C_33
REMARK   15  A    between atoms: C_24  and  C_34
REMARK   16  A    between atoms: C_32  and  C_35
REMARK   17  A    between atoms: C_36  and  C_38
REMARK   18  A    between atoms: C_37  and  C_41
REMARK   19  A    between atoms: C_39  and  C_43
REMARK   20  A    between atoms: C_40  and  C_42
REMARK   21  A    between atoms: C_42  and  C_46
REMARK   22  A    between atoms: C_46  and  C_50
REMARK   23  A    between atoms: C_53  and  C_56
REMARK                            x       y       z     vdW  Elec       q    Type
REMARK                         _______ _______ _______ _____ _____    ______ ____
ROOT
ATOM      1  O   UNL     1      65.080 228.202 323.380  0.00  0.00    +0.000 OA
ATOM      2  O   UNL     1      59.636 224.815 321.552  0.00  0.00    +0.000 OA
ATOM      3  C   UNL     1      62.652 226.014 324.457  0.00  0.00    +0.000 C 
ATOM      4  C   UNL     1      64.112 226.446 324.129  0.00  0.00    +0.000 C 
ATOM      5  C   UNL     1      61.909 225.315 322.858  0.00  0.00    +0.000 C 
ATOM      6  C   UNL     1      63.754 227.647 323.162  0.00  0.00    +0.000 C 
ATOM      7  C   UNL     1      62.544 225.100 326.079  0.00  0.00    +0.000 C 
ATOM      8  C   UNL     1      61.303 224.205 327.195  0.00  0.00    +0.000 C 
ATOM      9  C   UNL     1      61.977 226.527 321.837  0.00  0.00    +0.000 C 
ATOM     10  C   UNL     1      63.348 227.266 321.757  0.00  0.00    +0.000 C 
ATOM     11  C   UNL     1      59.640 223.708 326.826  0.00  0.00    +0.000 C 
ATOM     12  C   UNL     1      64.994 227.609 324.733  0.00  0.00    +0.000 C 
ATOM     13  C   UNL     1      60.208 224.545 322.630  0.00  0.00    +0.000 C 
ATOM     14  C   UNL     1      61.949 222.778 327.508  0.00  0.00    +0.000 C 
ATOM     15  C   UNL     1      59.565 222.818 325.492  0.00  0.00    +0.000 C 
ATOM     16  C   UNL     1      62.842 224.228 322.177  0.00  0.00    +0.000 C 
ATOM     17  C   UNL     1      59.219 223.422 323.835  0.00  0.00    +0.000 C 
ATOM     18  C   UNL     1      61.504 221.531 326.617  0.00  0.00    +0.000 C 
ATOM     19  C   UNL     1      60.299 221.661 325.615  0.00  0.00    +0.000 C 
ATOM     20  C   UNL     1      59.165 222.773 328.049  0.00  0.00    +0.000 C 
ATOM     21  C   UNL     1      58.481 224.744 326.989  0.00  0.00    +0.000 C 
ATOM     22  C   UNL     1      60.195 220.528 324.624  0.00  0.00    +0.000 C 
ENDROOT
BRANCH   9  23
ATOM     23  O   UNL     1      61.001 227.501 322.205  0.00  0.00    +0.000 OA
ATOM     24  H   UNL     1      60.604 227.190 323.044  0.00  0.00    +0.000 HD
ENDBRANCH   9  23
BRANCH   8  25
ATOM     25  O   UNL     1      61.300 224.936 328.436  0.00  0.00    +0.000 OA
ATOM     26  H   UNL     1      60.379 225.128 328.685  0.00  0.00    +0.000 HD
ENDBRANCH   8  25
BRANCH  18  27
ATOM     27  O   UNL     1      62.654 221.111 325.827  0.00  0.00    +0.000 OA
BRANCH  27  29
ATOM     28  O   UNL     1      62.436 218.914 326.324  0.00  0.00    +0.000 OA
ATOM     29  C   UNL     1      63.158 219.876 326.085  0.00  0.00    +0.000 C 
BRANCH  29  30
ATOM     30  C   UNL     1      64.684 219.827 326.211  0.00  0.00    +0.000 C 
BRANCH  30  31
ATOM     31  O   UNL     1      65.326 218.779 325.475  0.00  0.00    +0.000 OA
ATOM     32  H   UNL     1      65.162 218.971 324.533  0.00  0.00    +0.000 HD
ENDBRANCH  30  31
BRANCH  30  33
ATOM     33  C   UNL     1      65.041 219.731 327.720  0.00  0.00    +0.000 C 
BRANCH  33  34
ATOM     34  C   UNL     1      66.404 220.353 327.990  0.00  0.00    +0.000 A 
ATOM     35  C   UNL     1      66.482 221.563 328.702  0.00  0.00    +0.000 A 
ATOM     36  C   UNL     1      67.593 219.773 327.520  0.00  0.00    +0.000 A 
ATOM     37  C   UNL     1      67.716 222.164 328.953  0.00  0.00    +0.000 A 
ATOM     38  C   UNL     1      68.826 220.375 327.774  0.00  0.00    +0.000 A 
ATOM     39  C   UNL     1      68.888 221.568 328.492  0.00  0.00    +0.000 A 
ENDBRANCH  33  34
BRANCH  33  41
ATOM     40  O   UNL     1      64.535 216.727 329.669  0.00  0.00    +0.000 OA
ATOM     41  N   UNL     1      65.002 218.333 328.168  0.00  0.00    +0.000 N 
ATOM     42  C   UNL     1      65.008 217.837 329.443  0.00  0.00    +0.000 C 
ATOM     43  H   UNL     1      64.656 217.675 327.476  0.00  0.00    +0.000 HD
BRANCH  42  44
ATOM     44  C   UNL     1      65.538 218.649 330.562  0.00  0.00    +0.000 A 
ATOM     45  C   UNL     1      66.878 218.567 330.952  0.00  0.00    +0.000 A 
ATOM     46  C   UNL     1      64.649 219.458 331.280  0.00  0.00    +0.000 A 
ATOM     47  C   UNL     1      67.340 219.340 332.019  0.00  0.00    +0.000 A 
ATOM     48  C   UNL     1      65.113 220.228 332.347  0.00  0.00    +0.000 A 
ATOM     49  C   UNL     1      66.459 220.174 332.709  0.00  0.00    +0.000 A 
ENDBRANCH  42  44
ENDBRANCH  33  41
ENDBRANCH  30  33
ENDBRANCH  29  30
ENDBRANCH  27  29
ENDBRANCH  18  27
BRANCH  17  50
ATOM     50  O   UNL     1      57.817 223.764 323.886  0.00  0.00    +0.000 OA
BRANCH  50  52
ATOM     51  O   UNL     1      55.805 223.703 322.908  0.00  0.00    +0.000 OA
ATOM     52  C   UNL     1      56.880 223.152 323.127  0.00  0.00    +0.000 C 
ATOM     53  C   UNL     1      57.165 221.760 322.648  0.00  0.00    +0.000 C 
ENDBRANCH  50  52
ENDBRANCH  17  50
BRANCH   7  54
ATOM     54  O   UNL     1      62.641 224.002 325.361  0.00  0.00    +0.000 OA
BRANCH  54  56
ATOM     55  O   UNL     1      64.007 224.644 326.687  0.00  0.00    +0.000 OA
ATOM     56  C   UNL     1      63.934 223.812 325.788  0.00  0.00    +0.000 C 
BRANCH  56  57
ATOM     57  C   UNL     1      65.223 222.736 324.870  0.00  0.00    +0.000 A 
ATOM     58  C   UNL     1      64.991 222.028 323.613  0.00  0.00    +0.000 A 
ATOM     59  C   UNL     1      66.605 222.574 325.191  0.00  0.00    +0.000 A 
ATOM     60  C   UNL     1      65.943 221.315 322.842  0.00  0.00    +0.000 A 
ATOM     61  C   UNL     1      67.575 221.861 324.431  0.00  0.00    +0.000 A 
ATOM     62  C   UNL     1      67.247 221.233 323.254  0.00  0.00    +0.000 A 
ENDBRANCH  56  57
ENDBRANCH  54  56
ENDBRANCH   7  54
BRANCH   4  63
ATOM     63  O   UNL     1      64.872 225.384 323.506  0.00  0.00    +0.000 OA
BRANCH  63  65
ATOM     64  O   UNL     1      67.026 225.683 324.025  0.00  0.00    +0.000 OA
ATOM     65  C   UNL     1      66.176 225.475 323.161  0.00  0.00    +0.000 C 
ATOM     66  C   UNL     1      66.558 225.440 321.715  0.00  0.00    +0.000 C 
ENDBRANCH  63  65
ENDBRANCH   4  63
TORSDOF 17
ENDMDL
MODEL 6
REMARK VINA RESULT:      -4.7      2.505      7.468
REMARK  Name = 
REMARK  23 active torsions:
REMARK  status: ('A' for Active; 'I' for Inactive)
REMARK    1  A    between atoms: O_2  and  C_17
REMARK    2  A    between atoms: O_2  and  C_36
REMARK    3  A    between atoms: O_3  and  C_20
REMARK    4  A    between atoms: O_3  and  C_37
REMARK    5  A    between atoms: O_4  and  C_21
REMARK    6  A    between atoms: O_5  and  C_22
REMARK    7  A    between atoms: O_6  and  C_30
REMARK    8  A    between atoms: O_6  and  C_39
REMARK    9  A    between atoms: O_8  and  C_31
REMARK   10  A    between atoms: O_8  and  C_40
REMARK   11  A    between atoms: O_13  and  C_42
REMARK   12  A    between atoms: N_15  and  C_46
REMARK   13  A    between atoms: C_18  and  C_29
REMARK   14  A    between atoms: C_24  and  C_33
REMARK   15  A    between atoms: C_24  and  C_34
REMARK   16  A    between atoms: C_32  and  C_35
REMARK   17  A    between atoms: C_36  and  C_38
REMARK   18  A    between atoms: C_37  and  C_41
REMARK   19  A    between atoms: C_39  and  C_43
REMARK   20  A    between atoms: C_40  and  C_42
REMARK   21  A    between atoms: C_42  and  C_46
REMARK   22  A    between atoms: C_46  and  C_50
REMARK   23  A    between atoms: C_53  and  C_56
REMARK                            x       y       z     vdW  Elec       q    Type
REMARK                         _______ _______ _______ _____ _____    ______ ____
ROOT
ATOM      1  O   UNL     1      54.226 238.923 348.428  0.00  0.00    +0.000 OA
ATOM      2  O   UNL     1      53.157 244.791 345.449  0.00  0.00    +0.000 OA
ATOM      3  C   UNL     1      55.525 242.062 347.882  0.00  0.00    +0.000 C 
ATOM      4  C   UNL     1      54.965 240.904 348.759  0.00  0.00    +0.000 C 
ATOM      5  C   UNL     1      54.039 243.091 347.307  0.00  0.00    +0.000 C 
ATOM      6  C   UNL     1      54.215 240.122 347.605  0.00  0.00    +0.000 C 
ATOM      7  C   UNL     1      57.035 242.847 348.644  0.00  0.00    +0.000 C 
ATOM      8  C   UNL     1      58.274 244.253 348.368  0.00  0.00    +0.000 C 
ATOM      9  C   UNL     1      53.154 242.066 346.481  0.00  0.00    +0.000 C 
ATOM     10  C   UNL     1      52.885 240.696 347.174  0.00  0.00    +0.000 C 
ATOM     11  C   UNL     1      58.188 245.592 347.209  0.00  0.00    +0.000 C 
ATOM     12  C   UNL     1      55.502 239.434 348.975  0.00  0.00    +0.000 C 
ATOM     13  C   UNL     1      54.069 244.677 346.295  0.00  0.00    +0.000 C 
ATOM     14  C   UNL     1      58.307 245.079 349.735  0.00  0.00    +0.000 C 
ATOM     15  C   UNL     1      56.810 246.406 347.339  0.00  0.00    +0.000 C 
ATOM     16  C   UNL     1      53.082 243.498 348.504  0.00  0.00    +0.000 C 
ATOM     17  C   UNL     1      55.323 246.131 346.367  0.00  0.00    +0.000 C 
ATOM     18  C   UNL     1      57.397 246.384 349.855  0.00  0.00    +0.000 C 
ATOM     19  C   UNL     1      56.668 246.963 348.588  0.00  0.00    +0.000 C 
ATOM     20  C   UNL     1      59.377 246.606 347.599  0.00  0.00    +0.000 C 
ATOM     21  C   UNL     1      58.679 245.365 345.742  0.00  0.00    +0.000 C 
ATOM     22  C   UNL     1      55.606 247.988 348.901  0.00  0.00    +0.000 C 
ENDROOT
BRANCH   9  23
ATOM     23  O   UNL     1      53.804 241.784 345.242  0.00  0.00    +0.000 OA
ATOM     24  H   UNL     1      53.906 242.642 344.784  0.00  0.00    +0.000 HD
ENDBRANCH   9  23
BRANCH   8  25
ATOM     25  O   UNL     1      59.560 243.616 348.242  0.00  0.00    +0.000 OA
ATOM     26  H   UNL     1      59.914 243.445 349.133  0.00  0.00    +0.000 HD
ENDBRANCH   8  25
BRANCH  18  27
ATOM     27  O   UNL     1      56.359 246.118 350.843  0.00  0.00    +0.000 OA
BRANCH  27  29
ATOM     28  O   UNL     1      56.838 247.867 352.196  0.00  0.00    +0.000 OA
ATOM     29  C   UNL     1      56.511 246.693 352.064  0.00  0.00    +0.000 C 
BRANCH  29  30
ATOM     30  C   UNL     1      56.400 245.719 353.241  0.00  0.00    +0.000 C 
BRANCH  30  31
ATOM     31  O   UNL     1      55.871 246.277 354.450  0.00  0.00    +0.000 OA
ATOM     32  H   UNL     1      55.805 247.238 354.297  0.00  0.00    +0.000 HD
ENDBRANCH  30  31
BRANCH  30  33
ATOM     33  C   UNL     1      57.805 245.106 353.495  0.00  0.00    +0.000 C 
BRANCH  33  34
ATOM     34  C   UNL     1      57.683 243.733 354.141  0.00  0.00    +0.000 A 
ATOM     35  C   UNL     1      56.441 243.075 354.134  0.00  0.00    +0.000 A 
ATOM     36  C   UNL     1      58.769 243.110 354.776  0.00  0.00    +0.000 A 
ATOM     37  C   UNL     1      56.295 241.821 354.730  0.00  0.00    +0.000 A 
ATOM     38  C   UNL     1      58.622 241.856 355.370  0.00  0.00    +0.000 A 
ATOM     39  C   UNL     1      57.386 241.211 355.345  0.00  0.00    +0.000 A 
ENDBRANCH  33  34
BRANCH  33  41
ATOM     40  O   UNL     1      59.987 247.765 354.613  0.00  0.00    +0.000 OA
ATOM     41  N   UNL     1      58.617 246.008 354.323  0.00  0.00    +0.000 N 
ATOM     42  C   UNL     1      59.702 246.761 353.968  0.00  0.00    +0.000 C 
ATOM     43  H   UNL     1      58.164 246.322 355.176  0.00  0.00    +0.000 HD
BRANCH  42  44
ATOM     44  C   UNL     1      60.510 246.400 352.780  0.00  0.00    +0.000 A 
ATOM     45  C   UNL     1      61.243 245.211 352.731  0.00  0.00    +0.000 A 
ATOM     46  C   UNL     1      60.586 247.313 351.722  0.00  0.00    +0.000 A 
ATOM     47  C   UNL     1      62.002 244.909 351.599  0.00  0.00    +0.000 A 
ATOM     48  C   UNL     1      61.347 247.010 350.593  0.00  0.00    +0.000 A 
ATOM     49  C   UNL     1      62.046 245.803 350.529  0.00  0.00    +0.000 A 
ENDBRANCH  42  44
ENDBRANCH  33  41
ENDBRANCH  30  33
ENDBRANCH  29  30
ENDBRANCH  27  29
ENDBRANCH  18  27
BRANCH  17  50
ATOM     50  O   UNL     1      55.681 246.618 345.056  0.00  0.00    +0.000 OA
BRANCH  50  52
ATOM     51  O   UNL     1      55.681 248.236 343.510  0.00  0.00    +0.000 OA
ATOM     52  C   UNL     1      55.203 247.774 344.541  0.00  0.00    +0.000 C 
ATOM     53  C   UNL     1      54.146 248.502 345.316  0.00  0.00    +0.000 C 
ENDBRANCH  50  52
ENDBRANCH  17  50
BRANCH   7  54
ATOM     54  O   UNL     1      56.203 243.725 349.162  0.00  0.00    +0.000 OA
BRANCH  54  56
ATOM     55  O   UNL     1      55.280 243.584 350.941  0.00  0.00    +0.000 OA
ATOM     56  C   UNL     1      56.246 243.082 350.376  0.00  0.00    +0.000 C 
BRANCH  56  57
ATOM     57  C   UNL     1      57.703 241.989 350.963  0.00  0.00    +0.000 A 
ATOM     58  C   UNL     1      59.074 242.451 351.172  0.00  0.00    +0.000 A 
ATOM     59  C   UNL     1      57.649 240.631 351.402  0.00  0.00    +0.000 A 
ATOM     60  C   UNL     1      60.156 241.710 351.710  0.00  0.00    +0.000 A 
ATOM     61  C   UNL     1      58.724 239.871 351.943  0.00  0.00    +0.000 A 
ATOM     62  C   UNL     1      59.979 240.409 352.101  0.00  0.00    +0.000 A 
ENDBRANCH  56  57
ENDBRANCH  54  56
ENDBRANCH   7  54
BRANCH   4  63
ATOM     63  O   UNL     1      54.100 241.384 349.814  0.00  0.00    +0.000 OA
BRANCH  63  65
ATOM     64  O   UNL     1      52.385 240.177 350.588  0.00  0.00    +0.000 OA
ATOM     65  C   UNL     1      53.528 240.598 350.754  0.00  0.00    +0.000 C 
ATOM     66  C   UNL     1      54.250 240.346 352.039  0.00  0.00    +0.000 C 
ENDBRANCH  63  65
ENDBRANCH   4  63
TORSDOF 17
ENDMDL
MODEL 7
REMARK VINA RESULT:      -4.7     29.520     33.210
REMARK  Name = 
REMARK  23 active torsions:
REMARK  status: ('A' for Active; 'I' for Inactive)
REMARK    1  A    between atoms: O_2  and  C_17
REMARK    2  A    between atoms: O_2  and  C_36
REMARK    3  A    between atoms: O_3  and  C_20
REMARK    4  A    between atoms: O_3  and  C_37
REMARK    5  A    between atoms: O_4  and  C_21
REMARK    6  A    between atoms: O_5  and  C_22
REMARK    7  A    between atoms: O_6  and  C_30
REMARK    8  A    between atoms: O_6  and  C_39
REMARK    9  A    between atoms: O_8  and  C_31
REMARK   10  A    between atoms: O_8  and  C_40
REMARK   11  A    between atoms: O_13  and  C_42
REMARK   12  A    between atoms: N_15  and  C_46
REMARK   13  A    between atoms: C_18  and  C_29
REMARK   14  A    between atoms: C_24  and  C_33
REMARK   15  A    between atoms: C_24  and  C_34
REMARK   16  A    between atoms: C_32  and  C_35
REMARK   17  A    between atoms: C_36  and  C_38
REMARK   18  A    between atoms: C_37  and  C_41
REMARK   19  A    between atoms: C_39  and  C_43
REMARK   20  A    between atoms: C_40  and  C_42
REMARK   21  A    between atoms: C_42  and  C_46
REMARK   22  A    between atoms: C_46  and  C_50
REMARK   23  A    between atoms: C_53  and  C_56
REMARK                            x       y       z     vdW  Elec       q    Type
REMARK                         _______ _______ _______ _____ _____    ______ ____
ROOT
ATOM      1  O   UNL     1      65.156 228.003 323.314  0.00  0.00    +0.000 OA
ATOM      2  O   UNL     1      59.529 224.889 321.553  0.00  0.00    +0.000 OA
ATOM      3  C   UNL     1      62.613 225.972 324.433  0.00  0.00    +0.000 C 
ATOM      4  C   UNL     1      64.093 226.317 324.096  0.00  0.00    +0.000 C 
ATOM      5  C   UNL     1      61.829 225.286 322.847  0.00  0.00    +0.000 C 
ATOM      6  C   UNL     1      63.800 227.518 323.108  0.00  0.00    +0.000 C 
ATOM      7  C   UNL     1      62.457 225.095 326.072  0.00  0.00    +0.000 C 
ATOM      8  C   UNL     1      61.170 224.290 327.205  0.00  0.00    +0.000 C 
ATOM      9  C   UNL     1      61.962 226.474 321.804  0.00  0.00    +0.000 C 
ATOM     10  C   UNL     1      63.371 227.134 321.710  0.00  0.00    +0.000 C 
ATOM     11  C   UNL     1      59.482 223.880 326.847  0.00  0.00    +0.000 C 
ATOM     12  C   UNL     1      65.039 227.440 324.678  0.00  0.00    +0.000 C 
ATOM     13  C   UNL     1      60.087 224.607 322.635  0.00  0.00    +0.000 C 
ATOM     14  C   UNL     1      61.738 222.836 327.543  0.00  0.00    +0.000 C 
ATOM     15  C   UNL     1      59.356 222.971 325.529  0.00  0.00    +0.000 C 
ATOM     16  C   UNL     1      62.699 224.137 322.186  0.00  0.00    +0.000 C 
ATOM     17  C   UNL     1      59.041 223.562 323.862  0.00  0.00    +0.000 C 
ATOM     18  C   UNL     1      61.223 221.600 326.676  0.00  0.00    +0.000 C 
ATOM     19  C   UNL     1      60.025 221.777 325.672  0.00  0.00    +0.000 C 
ATOM     20  C   UNL     1      58.959 222.995 328.087  0.00  0.00    +0.000 C 
ATOM     21  C   UNL     1      58.382 224.980 326.991  0.00  0.00    +0.000 C 
ATOM     22  C   UNL     1      59.857 220.634 324.703  0.00  0.00    +0.000 C 
ENDROOT
BRANCH   9  23
ATOM     23  O   UNL     1      61.042 227.507 322.156  0.00  0.00    +0.000 OA
ATOM     24  H   UNL     1      60.348 227.503 321.466  0.00  0.00    +0.000 HD
ENDBRANCH   9  23
BRANCH   8  25
ATOM     25  O   UNL     1      61.211 225.043 328.432  0.00  0.00    +0.000 OA
ATOM     26  H   UNL     1      60.862 225.936 328.264  0.00  0.00    +0.000 HD
ENDBRANCH   8  25
BRANCH  18  27
ATOM     27  O   UNL     1      62.346 221.102 325.892  0.00  0.00    +0.000 OA
BRANCH  27  29
ATOM     28  O   UNL     1      62.732 219.065 324.984  0.00  0.00    +0.000 OA
ATOM     29  C   UNL     1      62.614 219.773 325.978  0.00  0.00    +0.000 C 
BRANCH  29  30
ATOM     30  C   UNL     1      62.595 219.213 327.404  0.00  0.00    +0.000 C 
BRANCH  30  31
ATOM     31  O   UNL     1      61.450 219.569 328.186  0.00  0.00    +0.000 OA
ATOM     32  H   UNL     1      60.778 219.885 327.554  0.00  0.00    +0.000 HD
ENDBRANCH  30  31
BRANCH  30  33
ATOM     33  C   UNL     1      63.902 219.661 328.116  0.00  0.00    +0.000 C 
BRANCH  33  34
ATOM     34  C   UNL     1      64.821 218.470 328.349  0.00  0.00    +0.000 A 
ATOM     35  C   UNL     1      64.462 217.495 329.296  0.00  0.00    +0.000 A 
ATOM     36  C   UNL     1      66.041 218.327 327.669  0.00  0.00    +0.000 A 
ATOM     37  C   UNL     1      65.291 216.400 329.541  0.00  0.00    +0.000 A 
ATOM     38  C   UNL     1      66.867 217.230 327.914  0.00  0.00    +0.000 A 
ATOM     39  C   UNL     1      66.491 216.265 328.848  0.00  0.00    +0.000 A 
ENDBRANCH  33  34
BRANCH  33  41
ATOM     40  O   UNL     1      63.923 221.936 330.927  0.00  0.00    +0.000 OA
ATOM     41  N   UNL     1      63.590 220.341 329.380  0.00  0.00    +0.000 N 
ATOM     42  C   UNL     1      64.408 221.094 330.177  0.00  0.00    +0.000 C 
ATOM     43  H   UNL     1      62.601 220.503 329.541  0.00  0.00    +0.000 HD
BRANCH  42  44
ATOM     44  C   UNL     1      65.878 220.934 330.109  0.00  0.00    +0.000 A 
ATOM     45  C   UNL     1      66.556 220.054 330.957  0.00  0.00    +0.000 A 
ATOM     46  C   UNL     1      66.597 221.741 329.219  0.00  0.00    +0.000 A 
ATOM     47  C   UNL     1      67.944 219.936 330.871  0.00  0.00    +0.000 A 
ATOM     48  C   UNL     1      67.984 221.624 329.137  0.00  0.00    +0.000 A 
ATOM     49  C   UNL     1      68.655 220.715 329.957  0.00  0.00    +0.000 A 
ENDBRANCH  42  44
ENDBRANCH  33  41
ENDBRANCH  30  33
ENDBRANCH  29  30
ENDBRANCH  27  29
ENDBRANCH  18  27
BRANCH  17  50
ATOM     50  O   UNL     1      57.660 223.982 323.907  0.00  0.00    +0.000 OA
BRANCH  50  52
ATOM     51  O   UNL     1      55.685 224.134 322.865  0.00  0.00    +0.000 OA
ATOM     52  C   UNL     1      56.712 223.496 323.075  0.00  0.00    +0.000 C 
ATOM     53  C   UNL     1      56.921 222.128 322.497  0.00  0.00    +0.000 C 
ENDBRANCH  50  52
ENDBRANCH  17  50
BRANCH   7  54
ATOM     54  O   UNL     1      62.492 223.980 325.373  0.00  0.00    +0.000 OA
BRANCH  54  56
ATOM     55  O   UNL     1      63.910 224.615 326.647  0.00  0.00    +0.000 OA
ATOM     56  C   UNL     1      63.753 223.701 325.844  0.00  0.00    +0.000 C 
BRANCH  56  57
ATOM     57  C   UNL     1      64.924 222.398 325.074  0.00  0.00    +0.000 A 
ATOM     58  C   UNL     1      66.052 221.768 325.757  0.00  0.00    +0.000 A 
ATOM     59  C   UNL     1      64.800 221.762 323.802  0.00  0.00    +0.000 A 
ATOM     60  C   UNL     1      66.875 220.722 325.269  0.00  0.00    +0.000 A 
ATOM     61  C   UNL     1      65.616 220.712 323.294  0.00  0.00    +0.000 A 
ATOM     62  C   UNL     1      66.653 220.187 324.027  0.00  0.00    +0.000 A 
ENDBRANCH  56  57
ENDBRANCH  54  56
ENDBRANCH   7  54
BRANCH   4  63
ATOM     63  O   UNL     1      64.792 225.204 323.491  0.00  0.00    +0.000 OA
BRANCH  63  65
ATOM     64  O   UNL     1      66.875 225.039 324.288  0.00  0.00    +0.000 OA
ATOM     65  C   UNL     1      66.132 225.144 323.314  0.00  0.00    +0.000 C 
ATOM     66  C   UNL     1      66.699 225.327 321.943  0.00  0.00    +0.000 C 
ENDBRANCH  63  65
ENDBRANCH   4  63
TORSDOF 17
ENDMDL
MODEL 8
REMARK VINA RESULT:      -4.7     18.888     23.566
REMARK  Name = 
REMARK  23 active torsions:
REMARK  status: ('A' for Active; 'I' for Inactive)
REMARK    1  A    between atoms: O_2  and  C_17
REMARK    2  A    between atoms: O_2  and  C_36
REMARK    3  A    between atoms: O_3  and  C_20
REMARK    4  A    between atoms: O_3  and  C_37
REMARK    5  A    between atoms: O_4  and  C_21
REMARK    6  A    between atoms: O_5  and  C_22
REMARK    7  A    between atoms: O_6  and  C_30
REMARK    8  A    between atoms: O_6  and  C_39
REMARK    9  A    between atoms: O_8  and  C_31
REMARK   10  A    between atoms: O_8  and  C_40
REMARK   11  A    between atoms: O_13  and  C_42
REMARK   12  A    between atoms: N_15  and  C_46
REMARK   13  A    between atoms: C_18  and  C_29
REMARK   14  A    between atoms: C_24  and  C_33
REMARK   15  A    between atoms: C_24  and  C_34
REMARK   16  A    between atoms: C_32  and  C_35
REMARK   17  A    between atoms: C_36  and  C_38
REMARK   18  A    between atoms: C_37  and  C_41
REMARK   19  A    between atoms: C_39  and  C_43
REMARK   20  A    between atoms: C_40  and  C_42
REMARK   21  A    between atoms: C_42  and  C_46
REMARK   22  A    between atoms: C_46  and  C_50
REMARK   23  A    between atoms: C_53  and  C_56
REMARK                            x       y       z     vdW  Elec       q    Type
REMARK                         _______ _______ _______ _____ _____    ______ ____
ROOT
ATOM      1  O   UNL     1      47.502 244.665 333.261  0.00  0.00    +0.000 OA
ATOM      2  O   UNL     1      45.676 243.532 326.949  0.00  0.00    +0.000 OA
ATOM      3  C   UNL     1      48.661 244.064 330.077  0.00  0.00    +0.000 C 
ATOM      4  C   UNL     1      48.482 244.908 331.373  0.00  0.00    +0.000 C 
ATOM      5  C   UNL     1      47.177 244.444 328.958  0.00  0.00    +0.000 C 
ATOM      6  C   UNL     1      47.210 244.148 331.933  0.00  0.00    +0.000 C 
ATOM      7  C   UNL     1      50.415 244.121 329.445  0.00  0.00    +0.000 C 
ATOM      8  C   UNL     1      51.496 243.510 328.015  0.00  0.00    +0.000 C 
ATOM      9  C   UNL     1      45.920 243.995 329.816  0.00  0.00    +0.000 C 
ATOM     10  C   UNL     1      45.891 244.506 331.288  0.00  0.00    +0.000 C 
ATOM     11  C   UNL     1      50.991 242.762 326.488  0.00  0.00    +0.000 C 
ATOM     12  C   UNL     1      48.925 244.605 332.859  0.00  0.00    +0.000 C 
ATOM     13  C   UNL     1      46.866 243.806 327.216  0.00  0.00    +0.000 C 
ATOM     14  C   UNL     1      52.242 244.804 327.449  0.00  0.00    +0.000 C 
ATOM     15  C   UNL     1      49.915 243.664 325.709  0.00  0.00    +0.000 C 
ATOM     16  C   UNL     1      46.938 246.001 328.772  0.00  0.00    +0.000 C 
ATOM     17  C   UNL     1      48.128 243.496 325.801  0.00  0.00    +0.000 C 
ATOM     18  C   UNL     1      51.616 245.550 326.186  0.00  0.00    +0.000 C 
ATOM     19  C   UNL     1      50.429 244.898 325.386  0.00  0.00    +0.000 C 
ATOM     20  C   UNL     1      52.307 242.687 325.563  0.00  0.00    +0.000 C 
ATOM     21  C   UNL     1      50.709 241.225 326.448  0.00  0.00    +0.000 C 
ATOM     22  C   UNL     1      49.735 245.839 324.433  0.00  0.00    +0.000 C 
ENDROOT
BRANCH   9  23
ATOM     23  O   UNL     1      45.880 242.569 329.871  0.00  0.00    +0.000 OA
ATOM     24  H   UNL     1      45.236 242.286 329.191  0.00  0.00    +0.000 HD
ENDBRANCH   9  23
BRANCH   8  25
ATOM     25  O   UNL     1      52.508 242.683 328.620  0.00  0.00    +0.000 OA
ATOM     26  H   UNL     1      53.354 243.165 328.609  0.00  0.00    +0.000 HD
ENDBRANCH   8  25
BRANCH  18  27
ATOM     27  O   UNL     1      51.147 246.859 326.623  0.00  0.00    +0.000 OA
BRANCH  27  29
ATOM     28  O   UNL     1      51.189 248.825 325.504  0.00  0.00    +0.000 OA
ATOM     29  C   UNL     1      51.786 247.942 326.111  0.00  0.00    +0.000 C 
BRANCH  29  30
ATOM     30  C   UNL     1      53.313 247.886 326.215  0.00  0.00    +0.000 C 
BRANCH  30  31
ATOM     31  O   UNL     1      53.897 248.790 327.161  0.00  0.00    +0.000 OA
ATOM     32  H   UNL     1      54.863 248.689 327.071  0.00  0.00    +0.000 HD
ENDBRANCH  30  31
BRANCH  30  33
ATOM     33  C   UNL     1      53.902 248.127 324.797  0.00  0.00    +0.000 C 
BRANCH  33  34
ATOM     34  C   UNL     1      53.793 246.867 323.949  0.00  0.00    +0.000 A 
ATOM     35  C   UNL     1      52.902 246.842 322.862  0.00  0.00    +0.000 A 
ATOM     36  C   UNL     1      54.532 245.709 324.237  0.00  0.00    +0.000 A 
ATOM     37  C   UNL     1      52.770 245.697 322.074  0.00  0.00    +0.000 A 
ATOM     38  C   UNL     1      54.401 244.567 323.448  0.00  0.00    +0.000 A 
ATOM     39  C   UNL     1      53.522 244.561 322.366  0.00  0.00    +0.000 A 
ENDBRANCH  33  34
BRANCH  33  41
ATOM     40  O   UNL     1      57.063 249.775 324.183  0.00  0.00    +0.000 OA
ATOM     41  N   UNL     1      55.296 248.579 324.891  0.00  0.00    +0.000 N 
ATOM     42  C   UNL     1      56.121 249.039 323.901  0.00  0.00    +0.000 C 
ATOM     43  H   UNL     1      55.596 248.841 325.825  0.00  0.00    +0.000 HD
BRANCH  42  44
ATOM     44  C   UNL     1      55.859 248.695 322.485  0.00  0.00    +0.000 A 
ATOM     45  C   UNL     1      54.978 249.448 321.703  0.00  0.00    +0.000 A 
ATOM     46  C   UNL     1      56.459 247.547 321.954  0.00  0.00    +0.000 A 
ATOM     47  C   UNL     1      54.748 249.088 320.374  0.00  0.00    +0.000 A 
ATOM     48  C   UNL     1      56.225 247.188 320.627  0.00  0.00    +0.000 A 
ATOM     49  C   UNL     1      55.377 247.965 319.836  0.00  0.00    +0.000 A 
ENDBRANCH  42  44
ENDBRANCH  33  41
ENDBRANCH  30  33
ENDBRANCH  29  30
ENDBRANCH  27  29
ENDBRANCH  18  27
BRANCH  17  50
ATOM     50  O   UNL     1      47.866 242.269 325.086  0.00  0.00    +0.000 OA
BRANCH  50  52
ATOM     51  O   UNL     1      46.230 242.600 323.595  0.00  0.00    +0.000 OA
ATOM     52  C   UNL     1      47.381 242.239 323.824  0.00  0.00    +0.000 C 
ATOM     53  C   UNL     1      48.258 241.672 322.749  0.00  0.00    +0.000 C 
ENDBRANCH  50  52
ENDBRANCH  17  50
BRANCH   7  54
ATOM     54  O   UNL     1      50.006 245.106 328.673  0.00  0.00    +0.000 OA
BRANCH  54  56
ATOM     55  O   UNL     1      51.280 245.272 330.218  0.00  0.00    +0.000 OA
ATOM     56  C   UNL     1      50.716 246.015 329.421  0.00  0.00    +0.000 C 
BRANCH  56  57
ATOM     57  C   UNL     1      50.482 247.912 329.316  0.00  0.00    +0.000 A 
ATOM     58  C   UNL     1      51.482 248.908 329.693  0.00  0.00    +0.000 A 
ATOM     59  C   UNL     1      49.381 248.620 328.746  0.00  0.00    +0.000 A 
ATOM     60  C   UNL     1      51.397 250.313 329.528  0.00  0.00    +0.000 A 
ATOM     61  C   UNL     1      49.276 250.030 328.574  0.00  0.00    +0.000 A 
ATOM     62  C   UNL     1      50.284 250.879 328.961  0.00  0.00    +0.000 A 
ENDBRANCH  56  57
ENDBRANCH  54  56
ENDBRANCH   7  54
BRANCH   4  63
ATOM     63  O   UNL     1      48.263 246.310 331.090  0.00  0.00    +0.000 OA
BRANCH  63  65
ATOM     64  O   UNL     1      49.475 247.556 332.496  0.00  0.00    +0.000 OA
ATOM     65  C   UNL     1      48.379 247.303 332.000  0.00  0.00    +0.000 C 
ATOM     66  C   UNL     1      47.149 248.004 332.482  0.00  0.00    +0.000 C 
ENDBRANCH  63  65
ENDBRANCH   4  63
TORSDOF 17
ENDMDL
MODEL 9
REMARK VINA RESULT:      -4.6     12.384     17.431
REMARK  Name = 
REMARK  23 active torsions:
REMARK  status: ('A' for Active; 'I' for Inactive)
REMARK    1  A    between atoms: O_2  and  C_17
REMARK    2  A    between atoms: O_2  and  C_36
REMARK    3  A    between atoms: O_3  and  C_20
REMARK    4  A    between atoms: O_3  and  C_37
REMARK    5  A    between atoms: O_4  and  C_21
REMARK    6  A    between atoms: O_5  and  C_22
REMARK    7  A    between atoms: O_6  and  C_30
REMARK    8  A    between atoms: O_6  and  C_39
REMARK    9  A    between atoms: O_8  and  C_31
REMARK   10  A    between atoms: O_8  and  C_40
REMARK   11  A    between atoms: O_13  and  C_42
REMARK   12  A    between atoms: N_15  and  C_46
REMARK   13  A    between atoms: C_18  and  C_29
REMARK   14  A    between atoms: C_24  and  C_33
REMARK   15  A    between atoms: C_24  and  C_34
REMARK   16  A    between atoms: C_32  and  C_35
REMARK   17  A    between atoms: C_36  and  C_38
REMARK   18  A    between atoms: C_37  and  C_41
REMARK   19  A    between atoms: C_39  and  C_43
REMARK   20  A    between atoms: C_40  and  C_42
REMARK   21  A    between atoms: C_42  and  C_46
REMARK   22  A    between atoms: C_46  and  C_50
REMARK   23  A    between atoms: C_53  and  C_56
REMARK                            x       y       z     vdW  Elec       q    Type
REMARK                         _______ _______ _______ _____ _____    ______ ____
ROOT
ATOM      1  O   UNL     1      69.887 233.105 351.502  0.00  0.00    +0.000 OA
ATOM      2  O   UNL     1      67.411 229.346 356.420  0.00  0.00    +0.000 OA
ATOM      3  C   UNL     1      67.702 230.553 352.244  0.00  0.00    +0.000 C 
ATOM      4  C   UNL     1      68.086 231.972 351.731  0.00  0.00    +0.000 C 
ATOM      5  C   UNL     1      67.435 230.694 354.117  0.00  0.00    +0.000 C 
ATOM      6  C   UNL     1      69.496 232.069 352.444  0.00  0.00    +0.000 C 
ATOM      7  C   UNL     1      66.460 229.721 351.129  0.00  0.00    +0.000 C 
ATOM      8  C   UNL     1      65.434 228.136 350.977  0.00  0.00    +0.000 C 
ATOM      9  C   UNL     1      68.836 231.191 354.672  0.00  0.00    +0.000 C 
ATOM     10  C   UNL     1      69.469 232.400 353.919  0.00  0.00    +0.000 C 
ATOM     11  C   UNL     1      65.158 226.875 352.193  0.00  0.00    +0.000 C 
ATOM     12  C   UNL     1      69.016 232.407 350.531  0.00  0.00    +0.000 C 
ATOM     13  C   UNL     1      66.865 229.343 355.296  0.00  0.00    +0.000 C 
ATOM     14  C   UNL     1      63.929 228.614 350.735  0.00  0.00    +0.000 C 
ATOM     15  C   UNL     1      64.596 227.484 353.568  0.00  0.00    +0.000 C 
ATOM     16  C   UNL     1      66.461 231.884 354.505  0.00  0.00    +0.000 C 
ATOM     17  C   UNL     1      65.578 227.947 355.000  0.00  0.00    +0.000 C 
ATOM     18  C   UNL     1      62.949 228.702 351.991  0.00  0.00    +0.000 C 
ATOM     19  C   UNL     1      63.389 228.118 353.384  0.00  0.00    +0.000 C 
ATOM     20  C   UNL     1      64.012 225.913 351.596  0.00  0.00    +0.000 C 
ATOM     21  C   UNL     1      66.214 225.736 352.365  0.00  0.00    +0.000 C 
ATOM     22  C   UNL     1      62.517 228.548 354.537  0.00  0.00    +0.000 C 
ENDROOT
BRANCH   9  23
ATOM     23  O   UNL     1      69.773 230.117 354.596  0.00  0.00    +0.000 OA
ATOM     24  H   UNL     1      70.272 230.246 353.764  0.00  0.00    +0.000 HD
ENDBRANCH   9  23
BRANCH   8  25
ATOM     25  O   UNL     1      65.868 227.510 349.754  0.00  0.00    +0.000 OA
ATOM     26  H   UNL     1      65.197 226.860 349.480  0.00  0.00    +0.000 HD
ENDBRANCH   8  25
BRANCH  18  27
ATOM     27  O   UNL     1      62.631 230.106 352.215  0.00  0.00    +0.000 OA
BRANCH  27  29
ATOM     28  O   UNL     1      61.244 231.744 351.495  0.00  0.00    +0.000 OA
ATOM     29  C   UNL     1      61.449 230.555 351.719  0.00  0.00    +0.000 C 
BRANCH  29  30
ATOM     30  C   UNL     1      60.357 229.486 351.617  0.00  0.00    +0.000 C 
BRANCH  30  31
ATOM     31  O   UNL     1      59.437 229.652 350.531  0.00  0.00    +0.000 OA
ATOM     32  H   UNL     1      59.259 228.756 350.189  0.00  0.00    +0.000 HD
ENDBRANCH  30  31
BRANCH  30  33
ATOM     33  C   UNL     1      59.598 229.441 352.972  0.00  0.00    +0.000 C 
BRANCH  33  34
ATOM     34  C   UNL     1      58.789 228.157 353.092  0.00  0.00    +0.000 A 
ATOM     35  C   UNL     1      59.393 226.928 352.776  0.00  0.00    +0.000 A 
ATOM     36  C   UNL     1      57.439 228.161 353.479  0.00  0.00    +0.000 A 
ATOM     37  C   UNL     1      58.673 225.736 352.863  0.00  0.00    +0.000 A 
ATOM     38  C   UNL     1      56.722 226.967 353.568  0.00  0.00    +0.000 A 
ATOM     39  C   UNL     1      57.339 225.755 353.262  0.00  0.00    +0.000 A 
ENDBRANCH  33  34
BRANCH  33  41
ATOM     40  O   UNL     1      58.377 232.788 353.594  0.00  0.00    +0.000 OA
ATOM     41  N   UNL     1      58.736 230.622 353.117  0.00  0.00    +0.000 N 
ATOM     42  C   UNL     1      58.917 231.729 353.900  0.00  0.00    +0.000 C 
ATOM     43  H   UNL     1      58.079 230.763 352.356  0.00  0.00    +0.000 HD
BRANCH  42  44
ATOM     44  C   UNL     1      59.799 231.673 355.088  0.00  0.00    +0.000 A 
ATOM     45  C   UNL     1      61.101 232.181 355.055  0.00  0.00    +0.000 A 
ATOM     46  C   UNL     1      59.328 231.031 356.239  0.00  0.00    +0.000 A 
ATOM     47  C   UNL     1      61.907 232.101 356.191  0.00  0.00    +0.000 A 
ATOM     48  C   UNL     1      60.136 230.950 357.373  0.00  0.00    +0.000 A 
ATOM     49  C   UNL     1      61.422 231.494 357.350  0.00  0.00    +0.000 A 
ENDBRANCH  42  44
ENDBRANCH  33  41
ENDBRANCH  30  33
ENDBRANCH  29  30
ENDBRANCH  27  29
ENDBRANCH  18  27
BRANCH  17  50
ATOM     50  O   UNL     1      66.004 226.679 355.542  0.00  0.00    +0.000 OA
BRANCH  50  52
ATOM     51  O   UNL     1      66.093 226.320 357.750  0.00  0.00    +0.000 OA
ATOM     52  C   UNL     1      65.503 226.158 356.685  0.00  0.00    +0.000 C 
ATOM     53  C   UNL     1      64.268 225.314 356.589  0.00  0.00    +0.000 C 
ENDBRANCH  50  52
ENDBRANCH  17  50
BRANCH   7  54
ATOM     54  O   UNL     1      65.546 230.196 351.948  0.00  0.00    +0.000 OA
BRANCH  54  56
ATOM     55  O   UNL     1      65.787 230.746 350.031  0.00  0.00    +0.000 OA
ATOM     56  C   UNL     1      65.171 231.135 351.017  0.00  0.00    +0.000 C 
BRANCH  56  57
ATOM     57  C   UNL     1      64.216 232.741 351.434  0.00  0.00    +0.000 A 
ATOM     58  C   UNL     1      63.911 233.217 352.781  0.00  0.00    +0.000 A 
ATOM     59  C   UNL     1      63.786 233.756 350.526  0.00  0.00    +0.000 A 
ATOM     60  C   UNL     1      63.309 234.448 353.140  0.00  0.00    +0.000 A 
ATOM     61  C   UNL     1      63.178 234.998 350.867  0.00  0.00    +0.000 A 
ATOM     62  C   UNL     1      62.941 235.348 352.174  0.00  0.00    +0.000 A 
ENDBRANCH  56  57
ENDBRANCH  54  56
ENDBRANCH   7  54
BRANCH   4  63
ATOM     63  O   UNL     1      67.136 232.981 352.146  0.00  0.00    +0.000 OA
BRANCH  63  65
ATOM     64  O   UNL     1      67.573 235.036 352.913  0.00  0.00    +0.000 OA
ATOM     65  C   UNL     1      67.299 234.311 351.959  0.00  0.00    +0.000 C 
ATOM     66  C   UNL     1      67.028 234.900 350.611  0.00  0.00    +0.000 C 
ENDBRANCH  63  65
ENDBRANCH   4  63
TORSDOF 17
ENDMDL
