MODEL 1
REMARK VINA RESULT:      -6.8      0.000      0.000
REMARK  Name = 
REMARK  5 active torsions:
REMARK  status: ('A' for Active; 'I' for Inactive)
REMARK    1  A    between atoms: O_1  and  C_16
REMARK    2  A    between atoms: O_3  and  C_25
REMARK    3  A    between atoms: C_11  and  C_22
REMARK    4  A    between atoms: C_16  and  C_28
REMARK    5  A    between atoms: C_29  and  C_31
REMARK                            x       y       z     vdW  Elec       q    Type
REMARK                         _______ _______ _______ _____ _____    ______ ____
ROOT
ATOM      1  O   UNL     1      44.699 236.468 323.292  0.00  0.00    +0.000 OA
ATOM      2  N   UNL     1      51.167 242.694 326.382  0.00  0.00    +0.000 NA
ATOM      3  C   UNL     1      48.522 239.897 326.286  0.00  0.00    +0.000 C 
ATOM      4  C   UNL     1      46.995 239.827 326.021  0.00  0.00    +0.000 C 
ATOM      5  C   UNL     1      48.024 237.796 325.247  0.00  0.00    +0.000 C 
ATOM      6  C   UNL     1      46.831 238.719 324.968  0.00  0.00    +0.000 C 
ATOM      7  C   UNL     1      49.116 241.306 326.093  0.00  0.00    +0.000 C 
ATOM      8  C   UNL     1      49.155 238.809 325.393  0.00  0.00    +0.000 C 
ATOM      9  C   UNL     1      48.149 236.656 324.202  0.00  0.00    +0.000 C 
ATOM     10  C   UNL     1      48.290 242.323 326.910  0.00  0.00    +0.000 C 
ATOM     11  C   UNL     1      46.402 241.156 325.566  0.00  0.00    +0.000 C 
ATOM     12  C   UNL     1      46.820 235.845 324.285  0.00  0.00    +0.000 C 
ATOM     13  C   UNL     1      46.803 242.319 326.472  0.00  0.00    +0.000 C 
ATOM     14  C   UNL     1      48.941 243.736 326.872  0.00  0.00    +0.000 C 
ATOM     15  C   UNL     1      45.511 237.963 324.989  0.00  0.00    +0.000 C 
ATOM     16  C   UNL     1      50.593 241.343 326.508  0.00  0.00    +0.000 C 
ATOM     17  C   UNL     1      50.461 243.656 327.274  0.00  0.00    +0.000 C 
ATOM     18  C   UNL     1      49.314 235.708 324.583  0.00  0.00    +0.000 C 
ATOM     19  C   UNL     1      45.605 236.751 324.072  0.00  0.00    +0.000 C 
ATOM     20  C   UNL     1      48.397 237.205 322.774  0.00  0.00    +0.000 C 
ATOM     21  C   UNL     1      46.829 234.611 323.384  0.00  0.00    +0.000 C 
ATOM     22  C   UNL     1      49.342 234.424 323.750  0.00  0.00    +0.000 C 
ATOM     23  C   UNL     1      47.999 233.693 323.742  0.00  0.00    +0.000 C 
ATOM     24  C   UNL     1      51.135 245.050 327.201  0.00  0.00    +0.000 C 
ATOM     25  C   UNL     1      52.609 242.619 326.694  0.00  0.00    +0.000 C 
ATOM     26  C   UNL     1      48.175 244.714 327.776  0.00  0.00    +0.000 C 
ATOM     27  C   UNL     1      53.321 243.967 326.548  0.00  0.00    +0.000 C 
ATOM     28  C   UNL     1      52.639 244.998 327.444  0.00  0.00    +0.000 C 
ATOM     29  C   UNL     1      53.382 244.425 325.088  0.00  0.00    +0.000 C 
ENDROOT
BRANCH  14  30
ATOM     30  O   UNL     1      48.852 244.232 325.526  0.00  0.00    +0.000 OA
ATOM     31  H   UNL     1      48.195 243.656 325.086  0.00  0.00    +0.000 HD
ENDBRANCH  14  30
BRANCH  23  32
ATOM     32  O   UNL     1      48.077 232.622 322.809  0.00  0.00    +0.000 OA
ATOM     33  H   UNL     1      48.975 232.617 322.435  0.00  0.00    +0.000 HD
ENDBRANCH  23  32
TORSDOF 2
ENDMDL
MODEL 2
REMARK VINA RESULT:      -6.0      5.406      7.941
REMARK  Name = 
REMARK  5 active torsions:
REMARK  status: ('A' for Active; 'I' for Inactive)
REMARK    1  A    between atoms: O_1  and  C_16
REMARK    2  A    between atoms: O_3  and  C_25
REMARK    3  A    between atoms: C_11  and  C_22
REMARK    4  A    between atoms: C_16  and  C_28
REMARK    5  A    between atoms: C_29  and  C_31
REMARK                            x       y       z     vdW  Elec       q    Type
REMARK                         _______ _______ _______ _____ _____    ______ ____
ROOT
ATOM      1  O   UNL     1      50.256 242.135 323.426  0.00  0.00    +0.000 OA
ATOM      2  N   UNL     1      51.691 247.709 330.978  0.00  0.00    +0.000 NA
ATOM      3  C   UNL     1      51.836 244.738 328.532  0.00  0.00    +0.000 C 
ATOM      4  C   UNL     1      50.837 243.653 328.048  0.00  0.00    +0.000 C 
ATOM      5  C   UNL     1      52.360 244.177 326.263  0.00  0.00    +0.000 C 
ATOM      6  C   UNL     1      50.925 243.698 326.513  0.00  0.00    +0.000 C 
ATOM      7  C   UNL     1      51.203 245.780 329.474  0.00  0.00    +0.000 C 
ATOM      8  C   UNL     1      52.466 245.331 327.255  0.00  0.00    +0.000 C 
ATOM      9  C   UNL     1      52.646 244.433 324.759  0.00  0.00    +0.000 C 
ATOM     10  C   UNL     1      50.464 245.051 330.618  0.00  0.00    +0.000 C 
ATOM     11  C   UNL     1      49.416 243.875 328.557  0.00  0.00    +0.000 C 
ATOM     12  C   UNL     1      52.406 243.073 324.036  0.00  0.00    +0.000 C 
ATOM     13  C   UNL     1      49.363 244.111 330.064  0.00  0.00    +0.000 C 
ATOM     14  C   UNL     1      49.939 246.060 331.681  0.00  0.00    +0.000 C 
ATOM     15  C   UNL     1      50.625 242.396 325.786  0.00  0.00    +0.000 C 
ATOM     16  C   UNL     1      52.266 246.736 330.032  0.00  0.00    +0.000 C 
ATOM     17  C   UNL     1      51.096 247.016 332.155  0.00  0.00    +0.000 C 
ATOM     18  C   UNL     1      54.131 244.828 324.558  0.00  0.00    +0.000 C 
ATOM     19  C   UNL     1      51.001 242.536 324.317  0.00  0.00    +0.000 C 
ATOM     20  C   UNL     1      51.747 245.555 324.183  0.00  0.00    +0.000 C 
ATOM     21  C   UNL     1      52.753 243.131 322.548  0.00  0.00    +0.000 C 
ATOM     22  C   UNL     1      54.554 244.849 323.086  0.00  0.00    +0.000 C 
ATOM     23  C   UNL     1      54.210 243.552 322.352  0.00  0.00    +0.000 C 
ATOM     24  C   UNL     1      50.579 248.053 333.184  0.00  0.00    +0.000 C 
ATOM     25  C   UNL     1      52.754 248.652 331.380  0.00  0.00    +0.000 C 
ATOM     26  C   UNL     1      49.303 245.319 332.867  0.00  0.00    +0.000 C 
ATOM     27  C   UNL     1      52.253 249.742 332.333  0.00  0.00    +0.000 C 
ATOM     28  C   UNL     1      51.630 249.090 333.565  0.00  0.00    +0.000 C 
ATOM     29  C   UNL     1      51.284 250.704 331.639  0.00  0.00    +0.000 C 
ENDROOT
BRANCH  14  30
ATOM     30  O   UNL     1      48.911 246.857 331.069  0.00  0.00    +0.000 OA
ATOM     31  H   UNL     1      49.350 247.699 330.833  0.00  0.00    +0.000 HD
ENDBRANCH  14  30
BRANCH  23  32
ATOM     32  O   UNL     1      54.478 243.736 320.967  0.00  0.00    +0.000 OA
ATOM     33  H   UNL     1      55.352 244.157 320.886  0.00  0.00    +0.000 HD
ENDBRANCH  23  32
TORSDOF 2
ENDMDL
MODEL 3
REMARK VINA RESULT:      -5.9      6.499      9.261
REMARK  Name = 
REMARK  5 active torsions:
REMARK  status: ('A' for Active; 'I' for Inactive)
REMARK    1  A    between atoms: O_1  and  C_16
REMARK    2  A    between atoms: O_3  and  C_25
REMARK    3  A    between atoms: C_11  and  C_22
REMARK    4  A    between atoms: C_16  and  C_28
REMARK    5  A    between atoms: C_29  and  C_31
REMARK                            x       y       z     vdW  Elec       q    Type
REMARK                         _______ _______ _______ _____ _____    ______ ____
ROOT
ATOM      1  O   UNL     1      53.545 243.293 321.268  0.00  0.00    +0.000 OA
ATOM      2  N   UNL     1      51.241 247.352 329.537  0.00  0.00    +0.000 NA
ATOM      3  C   UNL     1      53.053 245.267 326.854  0.00  0.00    +0.000 C 
ATOM      4  C   UNL     1      52.734 243.979 326.051  0.00  0.00    +0.000 C 
ATOM      5  C   UNL     1      54.081 245.438 324.697  0.00  0.00    +0.000 C 
ATOM      6  C   UNL     1      53.001 244.355 324.584  0.00  0.00    +0.000 C 
ATOM      7  C   UNL     1      51.894 245.735 327.755  0.00  0.00    +0.000 C 
ATOM      8  C   UNL     1      53.514 246.309 325.813  0.00  0.00    +0.000 C 
ATOM      9  C   UNL     1      54.422 246.080 323.325  0.00  0.00    +0.000 C 
ATOM     10  C   UNL     1      51.418 244.553 328.627  0.00  0.00    +0.000 C 
ATOM     11  C   UNL     1      51.313 243.470 326.272  0.00  0.00    +0.000 C 
ATOM     12  C   UNL     1      54.928 244.918 322.418  0.00  0.00    +0.000 C 
ATOM     13  C   UNL     1      50.952 243.361 327.752  0.00  0.00    +0.000 C 
ATOM     14  C   UNL     1      50.352 245.012 329.664  0.00  0.00    +0.000 C 
ATOM     15  C   UNL     1      53.428 243.219 323.667  0.00  0.00    +0.000 C 
ATOM     16  C   UNL     1      52.318 246.923 328.629  0.00  0.00    +0.000 C 
ATOM     17  C   UNL     1      50.871 246.257 330.476  0.00  0.00    +0.000 C 
ATOM     18  C   UNL     1      55.578 247.101 323.487  0.00  0.00    +0.000 C 
ATOM     19  C   UNL     1      53.897 243.790 322.336  0.00  0.00    +0.000 C 
ATOM     20  C   UNL     1      53.200 246.801 322.705  0.00  0.00    +0.000 C 
ATOM     21  C   UNL     1      55.411 245.407 321.053  0.00  0.00    +0.000 C 
ATOM     22  C   UNL     1      56.142 247.587 322.148  0.00  0.00    +0.000 C 
ATOM     23  C   UNL     1      56.529 246.438 321.216  0.00  0.00    +0.000 C 
ATOM     24  C   UNL     1      49.803 246.752 331.485  0.00  0.00    +0.000 C 
ATOM     25  C   UNL     1      51.692 248.559 330.258  0.00  0.00    +0.000 C 
ATOM     26  C   UNL     1      49.966 243.856 330.598  0.00  0.00    +0.000 C 
ATOM     27  C   UNL     1      50.626 249.124 331.201  0.00  0.00    +0.000 C 
ATOM     28  C   UNL     1      50.205 248.041 332.193  0.00  0.00    +0.000 C 
ATOM     29  C   UNL     1      49.431 249.696 330.433  0.00  0.00    +0.000 C 
ENDROOT
BRANCH  14  30
ATOM     30  O   UNL     1      49.168 245.399 328.945  0.00  0.00    +0.000 OA
ATOM     31  H   UNL     1      49.037 244.697 328.276  0.00  0.00    +0.000 HD
ENDBRANCH  14  30
BRANCH  23  32
ATOM     32  O   UNL     1      56.871 246.986 319.948  0.00  0.00    +0.000 OA
ATOM     33  H   UNL     1      57.693 247.496 320.056  0.00  0.00    +0.000 HD
ENDBRANCH  23  32
TORSDOF 2
ENDMDL
MODEL 4
REMARK VINA RESULT:      -5.8     18.205     21.436
REMARK  Name = 
REMARK  5 active torsions:
REMARK  status: ('A' for Active; 'I' for Inactive)
REMARK    1  A    between atoms: O_1  and  C_16
REMARK    2  A    between atoms: O_3  and  C_25
REMARK    3  A    between atoms: C_11  and  C_22
REMARK    4  A    between atoms: C_16  and  C_28
REMARK    5  A    between atoms: C_29  and  C_31
REMARK                            x       y       z     vdW  Elec       q    Type
REMARK                         _______ _______ _______ _____ _____    ______ ____
ROOT
ATOM      1  O   UNL     1      66.873 227.676 319.953  0.00  0.00    +0.000 OA
ATOM      2  N   UNL     1      60.846 224.449 326.542  0.00  0.00    +0.000 NA
ATOM      3  C   UNL     1      63.679 226.390 324.799  0.00  0.00    +0.000 C 
ATOM      4  C   UNL     1      65.061 226.026 324.195  0.00  0.00    +0.000 C 
ATOM      5  C   UNL     1      64.115 227.855 322.953  0.00  0.00    +0.000 C 
ATOM      6  C   UNL     1      65.051 226.651 322.790  0.00  0.00    +0.000 C 
ATOM      7  C   UNL     1      62.883 225.168 325.296  0.00  0.00    +0.000 C 
ATOM      8  C   UNL     1      62.956 227.228 323.723  0.00  0.00    +0.000 C 
ATOM      9  C   UNL     1      63.837 228.576 321.608  0.00  0.00    +0.000 C 
ATOM     10  C   UNL     1      63.776 224.326 326.234  0.00  0.00    +0.000 C 
ATOM     11  C   UNL     1      65.327 224.524 324.163  0.00  0.00    +0.000 C 
ATOM     12  C   UNL     1      65.224 229.051 321.077  0.00  0.00    +0.000 C 
ATOM     13  C   UNL     1      65.062 223.852 325.509  0.00  0.00    +0.000 C 
ATOM     14  C   UNL     1      62.971 223.164 326.885  0.00  0.00    +0.000 C 
ATOM     15  C   UNL     1      66.405 227.056 322.227  0.00  0.00    +0.000 C 
ATOM     16  C   UNL     1      61.596 225.600 326.011  0.00  0.00    +0.000 C 
ATOM     17  C   UNL     1      61.654 223.710 327.553  0.00  0.00    +0.000 C 
ATOM     18  C   UNL     1      62.960 229.831 321.847  0.00  0.00    +0.000 C 
ATOM     19  C   UNL     1      66.203 227.880 320.963  0.00  0.00    +0.000 C 
ATOM     20  C   UNL     1      63.121 227.651 320.592  0.00  0.00    +0.000 C 
ATOM     21  C   UNL     1      65.110 229.882 319.799  0.00  0.00    +0.000 C 
ATOM     22  C   UNL     1      62.853 230.734 320.615  0.00  0.00    +0.000 C 
ATOM     23  C   UNL     1      64.217 231.103 320.030  0.00  0.00    +0.000 C 
ATOM     24  C   UNL     1      60.819 222.559 328.170  0.00  0.00    +0.000 C 
ATOM     25  C   UNL     1      59.577 224.943 327.113  0.00  0.00    +0.000 C 
ATOM     26  C   UNL     1      63.837 222.401 327.898  0.00  0.00    +0.000 C 
ATOM     27  C   UNL     1      58.691 223.818 327.656  0.00  0.00    +0.000 C 
ATOM     28  C   UNL     1      59.468 223.022 328.702  0.00  0.00    +0.000 C 
ATOM     29  C   UNL     1      58.155 222.923 326.534  0.00  0.00    +0.000 C 
ENDROOT
BRANCH  14  30
ATOM     30  O   UNL     1      62.605 222.239 325.847  0.00  0.00    +0.000 OA
ATOM     31  H   UNL     1      61.648 222.383 325.704  0.00  0.00    +0.000 HD
ENDBRANCH  14  30
BRANCH  23  32
ATOM     32  O   UNL     1      64.008 231.788 318.801  0.00  0.00    +0.000 OA
ATOM     33  H   UNL     1      63.532 232.613 318.997  0.00  0.00    +0.000 HD
ENDBRANCH  23  32
TORSDOF 2
ENDMDL
MODEL 5
REMARK VINA RESULT:      -5.6      5.179      9.594
REMARK  Name = 
REMARK  5 active torsions:
REMARK  status: ('A' for Active; 'I' for Inactive)
REMARK    1  A    between atoms: O_1  and  C_16
REMARK    2  A    between atoms: O_3  and  C_25
REMARK    3  A    between atoms: C_11  and  C_22
REMARK    4  A    between atoms: C_16  and  C_28
REMARK    5  A    between atoms: C_29  and  C_31
REMARK                            x       y       z     vdW  Elec       q    Type
REMARK                         _______ _______ _______ _____ _____    ______ ____
ROOT
ATOM      1  O   UNL     1      51.557 248.437 331.043  0.00  0.00    +0.000 OA
ATOM      2  N   UNL     1      50.773 242.562 323.626  0.00  0.00    +0.000 NA
ATOM      3  C   UNL     1      51.910 244.141 326.948  0.00  0.00    +0.000 C 
ATOM      4  C   UNL     1      52.694 245.417 327.356  0.00  0.00    +0.000 C 
ATOM      5  C   UNL     1      51.083 244.900 329.065  0.00  0.00    +0.000 C 
ATOM      6  C   UNL     1      51.820 246.086 328.430  0.00  0.00    +0.000 C 
ATOM      7  C   UNL     1      51.639 244.043 325.434  0.00  0.00    +0.000 C 
ATOM      8  C   UNL     1      50.641 244.127 327.827  0.00  0.00    +0.000 C 
ATOM      9  C   UNL     1      50.022 245.350 330.105  0.00  0.00    +0.000 C 
ATOM     10  C   UNL     1      52.964 244.239 324.666  0.00  0.00    +0.000 C 
ATOM     11  C   UNL     1      52.985 246.345 326.181  0.00  0.00    +0.000 C 
ATOM     12  C   UNL     1      50.799 246.140 331.201  0.00  0.00    +0.000 C 
ATOM     13  C   UNL     1      53.606 245.612 324.994  0.00  0.00    +0.000 C 
ATOM     14  C   UNL     1      52.771 243.996 323.141  0.00  0.00    +0.000 C 
ATOM     15  C   UNL     1      52.555 246.920 329.469  0.00  0.00    +0.000 C 
ATOM     16  C   UNL     1      50.992 242.699 325.076  0.00  0.00    +0.000 C 
ATOM     17  C   UNL     1      52.066 242.611 322.887  0.00  0.00    +0.000 C 
ATOM     18  C   UNL     1      49.375 244.111 330.775  0.00  0.00    +0.000 C 
ATOM     19  C   UNL     1      51.596 247.294 330.591  0.00  0.00    +0.000 C 
ATOM     20  C   UNL     1      48.908 246.210 329.459  0.00  0.00    +0.000 C 
ATOM     21  C   UNL     1      49.903 246.563 332.365  0.00  0.00    +0.000 C 
ATOM     22  C   UNL     1      48.507 244.467 331.986  0.00  0.00    +0.000 C 
ATOM     23  C   UNL     1      49.240 245.341 333.004  0.00  0.00    +0.000 C 
ATOM     24  C   UNL     1      51.829 242.373 321.373  0.00  0.00    +0.000 C 
ATOM     25  C   UNL     1      50.054 241.296 323.381  0.00  0.00    +0.000 C 
ATOM     26  C   UNL     1      54.114 244.084 322.401  0.00  0.00    +0.000 C 
ATOM     27  C   UNL     1      49.729 241.072 321.900  0.00  0.00    +0.000 C 
ATOM     28  C   UNL     1      51.022 241.111 321.088  0.00  0.00    +0.000 C 
ATOM     29  C   UNL     1      48.695 242.077 321.385  0.00  0.00    +0.000 C 
ENDROOT
BRANCH  14  30
ATOM     30  O   UNL     1      51.926 245.039 322.627  0.00  0.00    +0.000 OA
ATOM     31  H   UNL     1      51.403 244.615 321.917  0.00  0.00    +0.000 HD
ENDBRANCH  14  30
BRANCH  23  32
ATOM     32  O   UNL     1      48.305 245.759 333.992  0.00  0.00    +0.000 OA
ATOM     33  H   UNL     1      47.803 244.976 334.277  0.00  0.00    +0.000 HD
ENDBRANCH  23  32
TORSDOF 2
ENDMDL
MODEL 6
REMARK VINA RESULT:      -5.5     30.704     31.530
REMARK  Name = 
REMARK  5 active torsions:
REMARK  status: ('A' for Active; 'I' for Inactive)
REMARK    1  A    between atoms: O_1  and  C_16
REMARK    2  A    between atoms: O_3  and  C_25
REMARK    3  A    between atoms: C_11  and  C_22
REMARK    4  A    between atoms: C_16  and  C_28
REMARK    5  A    between atoms: C_29  and  C_31
REMARK                            x       y       z     vdW  Elec       q    Type
REMARK                         _______ _______ _______ _____ _____    ______ ____
ROOT
ATOM      1  O   UNL     1      58.253 224.693 353.867  0.00  0.00    +0.000 OA
ATOM      2  N   UNL     1      54.502 233.333 355.063  0.00  0.00    +0.000 NA
ATOM      3  C   UNL     1      55.962 230.162 353.438  0.00  0.00    +0.000 C 
ATOM      4  C   UNL     1      57.358 229.486 353.389  0.00  0.00    +0.000 C 
ATOM      5  C   UNL     1      55.657 227.789 353.305  0.00  0.00    +0.000 C 
ATOM      6  C   UNL     1      57.097 228.021 353.777  0.00  0.00    +0.000 C 
ATOM      7  C   UNL     1      55.912 231.405 354.347  0.00  0.00    +0.000 C 
ATOM      8  C   UNL     1      54.967 229.047 353.825  0.00  0.00    +0.000 C 
ATOM      9  C   UNL     1      55.115 226.395 353.719  0.00  0.00    +0.000 C 
ATOM     10  C   UNL     1      57.061 232.363 353.963  0.00  0.00    +0.000 C 
ATOM     11  C   UNL     1      58.383 230.156 354.298  0.00  0.00    +0.000 C 
ATOM     12  C   UNL     1      56.064 225.349 353.059  0.00  0.00    +0.000 C 
ATOM     13  C   UNL     1      58.440 231.670 354.102  0.00  0.00    +0.000 C 
ATOM     14  C   UNL     1      56.961 233.704 354.748  0.00  0.00    +0.000 C 
ATOM     15  C   UNL     1      58.058 226.993 353.198  0.00  0.00    +0.000 C 
ATOM     16  C   UNL     1      54.554 232.111 354.242  0.00  0.00    +0.000 C 
ATOM     17  C   UNL     1      55.519 234.322 354.607  0.00  0.00    +0.000 C 
ATOM     18  C   UNL     1      53.692 226.183 353.141  0.00  0.00    +0.000 C 
ATOM     19  C   UNL     1      57.520 225.593 353.461  0.00  0.00    +0.000 C 
ATOM     20  C   UNL     1      55.060 226.229 355.258  0.00  0.00    +0.000 C 
ATOM     21  C   UNL     1      55.599 223.911 353.285  0.00  0.00    +0.000 C 
ATOM     22  C   UNL     1      53.192 224.743 353.288  0.00  0.00    +0.000 C 
ATOM     23  C   UNL     1      54.182 223.713 352.742  0.00  0.00    +0.000 C 
ATOM     24  C   UNL     1      55.392 235.637 355.417  0.00  0.00    +0.000 C 
ATOM     25  C   UNL     1      53.135 233.886 354.990  0.00  0.00    +0.000 C 
ATOM     26  C   UNL     1      58.040 234.691 354.280  0.00  0.00    +0.000 C 
ATOM     27  C   UNL     1      52.953 235.141 355.850  0.00  0.00    +0.000 C 
ATOM     28  C   UNL     1      53.973 236.195 355.426  0.00  0.00    +0.000 C 
ATOM     29  C   UNL     1      53.040 234.825 357.345  0.00  0.00    +0.000 C 
ENDROOT
BRANCH  14  30
ATOM     30  O   UNL     1      57.204 233.426 356.137  0.00  0.00    +0.000 OA
ATOM     31  H   UNL     1      57.820 232.666 356.140  0.00  0.00    +0.000 HD
ENDBRANCH  14  30
BRANCH  23  32
ATOM     32  O   UNL     1      53.711 222.414 353.082  0.00  0.00    +0.000 OA
ATOM     33  H   UNL     1      54.482 221.823 353.134  0.00  0.00    +0.000 HD
ENDBRANCH  23  32
TORSDOF 2
ENDMDL
MODEL 7
REMARK VINA RESULT:      -5.5     15.146     17.775
REMARK  Name = 
REMARK  5 active torsions:
REMARK  status: ('A' for Active; 'I' for Inactive)
REMARK    1  A    between atoms: O_1  and  C_16
REMARK    2  A    between atoms: O_3  and  C_25
REMARK    3  A    between atoms: C_11  and  C_22
REMARK    4  A    between atoms: C_16  and  C_28
REMARK    5  A    between atoms: C_29  and  C_31
REMARK                            x       y       z     vdW  Elec       q    Type
REMARK                         _______ _______ _______ _____ _____    ______ ____
ROOT
ATOM      1  O   UNL     1      44.587 243.548 345.562  0.00  0.00    +0.000 OA
ATOM      2  N   UNL     1      51.263 246.674 339.578  0.00  0.00    +0.000 NA
ATOM      3  C   UNL     1      49.514 244.962 342.550  0.00  0.00    +0.000 C 
ATOM      4  C   UNL     1      48.753 245.444 343.814  0.00  0.00    +0.000 C 
ATOM      5  C   UNL     1      47.819 243.353 343.080  0.00  0.00    +0.000 C 
ATOM      6  C   UNL     1      47.436 244.650 343.804  0.00  0.00    +0.000 C 
ATOM      7  C   UNL     1      49.935 246.108 341.611  0.00  0.00    +0.000 C 
ATOM      8  C   UNL     1      48.610 243.897 341.894  0.00  0.00    +0.000 C 
ATOM      9  C   UNL     1      46.595 242.433 342.825  0.00  0.00    +0.000 C 
ATOM     10  C   UNL     1      50.687 247.184 342.425  0.00  0.00    +0.000 C 
ATOM     11  C   UNL     1      48.524 246.951 343.839  0.00  0.00    +0.000 C 
ATOM     12  C   UNL     1      46.004 242.102 344.228  0.00  0.00    +0.000 C 
ATOM     13  C   UNL     1      49.801 247.744 343.568  0.00  0.00    +0.000 C 
ATOM     14  C   UNL     1      51.267 248.289 341.495  0.00  0.00    +0.000 C 
ATOM     15  C   UNL     1      46.806 244.378 345.162  0.00  0.00    +0.000 C 
ATOM     16  C   UNL     1      50.805 245.587 340.459  0.00  0.00    +0.000 C 
ATOM     17  C   UNL     1      52.107 247.646 340.329  0.00  0.00    +0.000 C 
ATOM     18  C   UNL     1      47.055 241.104 342.172  0.00  0.00    +0.000 C 
ATOM     19  C   UNL     1      45.669 243.378 345.003  0.00  0.00    +0.000 C 
ATOM     20  C   UNL     1      45.547 243.107 341.905  0.00  0.00    +0.000 C 
ATOM     21  C   UNL     1      44.845 241.107 344.156  0.00  0.00    +0.000 C 
ATOM     22  C   UNL     1      45.949 240.045 342.122  0.00  0.00    +0.000 C 
ATOM     23  C   UNL     1      45.293 239.809 343.483  0.00  0.00    +0.000 C 
ATOM     24  C   UNL     1      52.658 248.732 339.371  0.00  0.00    +0.000 C 
ATOM     25  C   UNL     1      51.998 246.078 338.444  0.00  0.00    +0.000 C 
ATOM     26  C   UNL     1      52.106 249.293 342.300  0.00  0.00    +0.000 C 
ATOM     27  C   UNL     1      52.483 247.121 337.433  0.00  0.00    +0.000 C 
ATOM     28  C   UNL     1      53.357 248.149 338.148  0.00  0.00    +0.000 C 
ATOM     29  C   UNL     1      51.317 247.777 336.688  0.00  0.00    +0.000 C 
ENDROOT
BRANCH  14  30
ATOM     30  O   UNL     1      50.166 249.011 340.919  0.00  0.00    +0.000 OA
ATOM     31  H   UNL     1      50.431 249.181 339.993  0.00  0.00    +0.000 HD
ENDBRANCH  14  30
BRANCH  23  32
ATOM     32  O   UNL     1      44.174 238.949 343.298  0.00  0.00    +0.000 OA
ATOM     33  H   UNL     1      43.382 239.423 343.605  0.00  0.00    +0.000 HD
ENDBRANCH  23  32
TORSDOF 2
ENDMDL
MODEL 8
REMARK VINA RESULT:      -5.4      2.285      8.472
REMARK  Name = 
REMARK  5 active torsions:
REMARK  status: ('A' for Active; 'I' for Inactive)
REMARK    1  A    between atoms: O_1  and  C_16
REMARK    2  A    between atoms: O_3  and  C_25
REMARK    3  A    between atoms: C_11  and  C_22
REMARK    4  A    between atoms: C_16  and  C_28
REMARK    5  A    between atoms: C_29  and  C_31
REMARK                            x       y       z     vdW  Elec       q    Type
REMARK                         _______ _______ _______ _____ _____    ______ ____
ROOT
ATOM      1  O   UNL     1      50.274 245.661 327.218  0.00  0.00    +0.000 OA
ATOM      2  N   UNL     1      48.267 237.046 323.765  0.00  0.00    +0.000 NA
ATOM      3  C   UNL     1      48.488 240.867 324.188  0.00  0.00    +0.000 C 
ATOM      4  C   UNL     1      47.882 241.909 325.166  0.00  0.00    +0.000 C 
ATOM      5  C   UNL     1      50.059 242.654 324.468  0.00  0.00    +0.000 C 
ATOM      6  C   UNL     1      49.084 242.737 325.649  0.00  0.00    +0.000 C 
ATOM      7  C   UNL     1      48.136 239.410 324.547  0.00  0.00    +0.000 C 
ATOM      8  C   UNL     1      50.001 241.166 324.139  0.00  0.00    +0.000 C 
ATOM      9  C   UNL     1      51.428 243.315 324.782  0.00  0.00    +0.000 C 
ATOM     10  C   UNL     1      46.608 239.285 324.730  0.00  0.00    +0.000 C 
ATOM     11  C   UNL     1      47.110 241.275 326.318  0.00  0.00    +0.000 C 
ATOM     12  C   UNL     1      51.122 244.807 325.114  0.00  0.00    +0.000 C 
ATOM     13  C   UNL     1      46.097 240.235 325.844  0.00  0.00    +0.000 C 
ATOM     14  C   UNL     1      46.187 237.802 324.942  0.00  0.00    +0.000 C 
ATOM     15  C   UNL     1      48.792 244.177 326.045  0.00  0.00    +0.000 C 
ATOM     16  C   UNL     1      48.639 238.440 323.469  0.00  0.00    +0.000 C 
ATOM     17  C   UNL     1      46.786 236.890 323.807  0.00  0.00    +0.000 C 
ATOM     18  C   UNL     1      52.337 243.279 323.528  0.00  0.00    +0.000 C 
ATOM     19  C   UNL     1      50.102 244.924 326.249  0.00  0.00    +0.000 C 
ATOM     20  C   UNL     1      52.158 242.605 325.950  0.00  0.00    +0.000 C 
ATOM     21  C   UNL     1      52.391 245.628 325.343  0.00  0.00    +0.000 C 
ATOM     22  C   UNL     1      53.601 244.131 323.677  0.00  0.00    +0.000 C 
ATOM     23  C   UNL     1      53.301 245.565 324.115  0.00  0.00    +0.000 C 
ATOM     24  C   UNL     1      46.409 235.402 324.027  0.00  0.00    +0.000 C 
ATOM     25  C   UNL     1      48.878 236.173 322.743  0.00  0.00    +0.000 C 
ATOM     26  C   UNL     1      44.658 237.675 325.012  0.00  0.00    +0.000 C 
ATOM     27  C   UNL     1      48.594 234.687 322.982  0.00  0.00    +0.000 C 
ATOM     28  C   UNL     1      47.084 234.464 323.033  0.00  0.00    +0.000 C 
ATOM     29  C   UNL     1      49.296 234.167 324.239  0.00  0.00    +0.000 C 
ENDROOT
BRANCH  14  30
ATOM     30  O   UNL     1      46.715 237.364 326.205  0.00  0.00    +0.000 OA
ATOM     31  H   UNL     1      46.893 238.186 326.704  0.00  0.00    +0.000 HD
ENDBRANCH  14  30
BRANCH  23  32
ATOM     32  O   UNL     1      54.535 246.217 324.394  0.00  0.00    +0.000 OA
ATOM     33  H   UNL     1      54.942 245.769 325.156  0.00  0.00    +0.000 HD
ENDBRANCH  23  32
TORSDOF 2
ENDMDL
MODEL 9
REMARK VINA RESULT:      -5.4     21.859     24.249
REMARK  Name = 
REMARK  5 active torsions:
REMARK  status: ('A' for Active; 'I' for Inactive)
REMARK    1  A    between atoms: O_1  and  C_16
REMARK    2  A    between atoms: O_3  and  C_25
REMARK    3  A    between atoms: C_11  and  C_22
REMARK    4  A    between atoms: C_16  and  C_28
REMARK    5  A    between atoms: C_29  and  C_31
REMARK                            x       y       z     vdW  Elec       q    Type
REMARK                         _______ _______ _______ _____ _____    ______ ____
ROOT
ATOM      1  O   UNL     1      52.751 240.852 351.927  0.00  0.00    +0.000 OA
ATOM      2  N   UNL     1      57.603 246.221 345.780  0.00  0.00    +0.000 NA
ATOM      3  C   UNL     1      56.624 243.387 348.197  0.00  0.00    +0.000 C 
ATOM      4  C   UNL     1      56.404 243.265 349.728  0.00  0.00    +0.000 C 
ATOM      5  C   UNL     1      54.932 241.738 348.595  0.00  0.00    +0.000 C 
ATOM      6  C   UNL     1      55.035 242.580 349.873  0.00  0.00    +0.000 C 
ATOM      7  C   UNL     1      56.917 244.826 347.730  0.00  0.00    +0.000 C 
ATOM      8  C   UNL     1      55.385 242.742 347.540  0.00  0.00    +0.000 C 
ATOM      9  C   UNL     1      53.550 241.047 348.450  0.00  0.00    +0.000 C 
ATOM     10  C   UNL     1      58.066 245.413 348.578  0.00  0.00    +0.000 C 
ATOM     11  C   UNL     1      56.464 244.606 350.453  0.00  0.00    +0.000 C 
ATOM     12  C   UNL     1      53.389 240.133 349.702  0.00  0.00    +0.000 C 
ATOM     13  C   UNL     1      57.705 245.416 350.086  0.00  0.00    +0.000 C 
ATOM     14  C   UNL     1      58.504 246.808 348.044  0.00  0.00    +0.000 C 
ATOM     15  C   UNL     1      54.835 241.739 351.125  0.00  0.00    +0.000 C 
ATOM     16  C   UNL     1      57.267 244.861 346.236  0.00  0.00    +0.000 C 
ATOM     17  C   UNL     1      58.800 246.741 346.499  0.00  0.00    +0.000 C 
ATOM     18  C   UNL     1      53.535 240.144 347.191  0.00  0.00    +0.000 C 
ATOM     19  C   UNL     1      53.549 240.934 350.996  0.00  0.00    +0.000 C 
ATOM     20  C   UNL     1      52.398 242.078 348.341  0.00  0.00    +0.000 C 
ATOM     21  C   UNL     1      52.113 239.294 349.655  0.00  0.00    +0.000 C 
ATOM     22  C   UNL     1      52.303 239.236 347.117  0.00  0.00    +0.000 C 
ATOM     23  C   UNL     1      52.086 238.426 348.395  0.00  0.00    +0.000 C 
ATOM     24  C   UNL     1      59.197 248.133 345.944  0.00  0.00    +0.000 C 
ATOM     25  C   UNL     1      57.820 246.182 344.320  0.00  0.00    +0.000 C 
ATOM     26  C   UNL     1      59.718 247.333 348.824  0.00  0.00    +0.000 C 
ATOM     27  C   UNL     1      58.131 247.560 343.727  0.00  0.00    +0.000 C 
ATOM     28  C   UNL     1      59.355 248.146 344.428  0.00  0.00    +0.000 C 
ATOM     29  C   UNL     1      56.923 248.498 343.799  0.00  0.00    +0.000 C 
ENDROOT
BRANCH  14  30
ATOM     30  O   UNL     1      57.421 247.728 348.261  0.00  0.00    +0.000 OA
ATOM     31  H   UNL     1      56.612 247.229 348.027  0.00  0.00    +0.000 HD
ENDBRANCH  14  30
BRANCH  23  32
ATOM     32  O   UNL     1      50.834 237.757 348.296  0.00  0.00    +0.000 OA
ATOM     33  H   UNL     1      50.281 238.049 349.041  0.00  0.00    +0.000 HD
ENDBRANCH  23  32
TORSDOF 2
ENDMDL
