MODEL 1
REMARK VINA RESULT:      -5.8      0.000      0.000
REMARK  Name = PhIP.pdbqt.pdb
REMARK  2 active torsions:
REMARK  status: ('A' for Active; 'I' for Inactive)
REMARK    1  A    between atoms: N_4  and  C_9
REMARK    2  A    between atoms: C_7  and  C_10
REMARK                            x       y       z     vdW  Elec       q    Type
REMARK                         _______ _______ _______ _____ _____    ______ ____
ROOT
ATOM      1  N   UNL     1      50.470 244.917 327.426  0.00  0.00    +0.000 N 
ATOM      2  N   UNL     1      51.587 243.094 328.477  0.00  0.00    +0.000 NA
ATOM      3  N   UNL     1      53.645 243.235 327.197  0.00  0.00    +0.000 NA
ATOM      4  C   UNL     1      51.711 244.843 326.870  0.00  0.00    +0.000 C 
ATOM      5  C   UNL     1      52.365 243.653 327.585  0.00  0.00    +0.000 C 
ATOM      6  C   UNL     1      53.586 244.850 325.315  0.00  0.00    +0.000 C 
ATOM      7  C   UNL     1      52.316 245.285 325.808  0.00  0.00    +0.000 C 
ATOM      8  C   UNL     1      50.440 243.858 328.337  0.00  0.00    +0.000 C 
ATOM      9  C   UNL     1      49.300 245.333 326.673  0.00  0.00    +0.000 C 
ATOM     10  C   UNL     1      53.989 243.820 326.233  0.00  0.00    +0.000 C 
ENDROOT
BRANCH   6  11
ATOM     11  C   UNL     1      54.335 245.381 324.193  0.00  0.00    +0.000 A 
ATOM     12  C   UNL     1      54.651 246.739 324.127  0.00  0.00    +0.000 A 
ATOM     13  C   UNL     1      54.755 244.543 323.157  0.00  0.00    +0.000 A 
ATOM     14  C   UNL     1      55.371 247.252 323.049  0.00  0.00    +0.000 A 
ATOM     15  C   UNL     1      55.475 245.050 322.077  0.00  0.00    +0.000 A 
ATOM     16  C   UNL     1      55.782 246.407 322.024  0.00  0.00    +0.000 A 
ENDBRANCH   6  11
BRANCH   8  17
ATOM     17  N   UNL     1      49.308 243.442 329.057  0.00  0.00    +0.000 NA
ATOM     18  H   UNL     1      49.020 242.492 328.847  0.00  0.00    +0.000 HD
ATOM     19  H   UNL     1      49.376 243.642 330.047  0.00  0.00    +0.000 HD
ENDBRANCH   8  17
TORSDOF 2
ENDMDL
MODEL 2
REMARK VINA RESULT:      -5.7      1.447      1.447
REMARK  Name = PhIP.pdbqt.pdb
REMARK  2 active torsions:
REMARK  status: ('A' for Active; 'I' for Inactive)
REMARK    1  A    between atoms: N_4  and  C_9
REMARK    2  A    between atoms: C_7  and  C_10
REMARK                            x       y       z     vdW  Elec       q    Type
REMARK                         _______ _______ _______ _____ _____    ______ ____
ROOT
ATOM      1  N   UNL     1      50.198 243.405 325.707  0.00  0.00    +0.000 N 
ATOM      2  N   UNL     1      51.452 242.212 327.344  0.00  0.00    +0.000 NA
ATOM      3  N   UNL     1      53.624 243.132 326.776  0.00  0.00    +0.000 NA
ATOM      4  C   UNL     1      51.490 243.820 325.592  0.00  0.00    +0.000 C 
ATOM      5  C   UNL     1      52.233 243.012 326.665  0.00  0.00    +0.000 C 
ATOM      6  C   UNL     1      53.653 244.536 324.732  0.00  0.00    +0.000 C 
ATOM      7  C   UNL     1      52.226 244.439 324.718  0.00  0.00    +0.000 C 
ATOM      8  C   UNL     1      50.235 242.448 326.724  0.00  0.00    +0.000 C 
ATOM      9  C   UNL     1      49.308 243.296 324.565  0.00  0.00    +0.000 C 
ATOM     10  C   UNL     1      54.049 243.780 325.887  0.00  0.00    +0.000 C 
ENDROOT
BRANCH   6  11
ATOM     11  C   UNL     1      54.502 245.293 323.832  0.00  0.00    +0.000 A 
ATOM     12  C   UNL     1      54.712 246.659 324.031  0.00  0.00    +0.000 A 
ATOM     13  C   UNL     1      55.127 244.669 322.750  0.00  0.00    +0.000 A 
ATOM     14  C   UNL     1      55.528 247.388 323.168  0.00  0.00    +0.000 A 
ATOM     15  C   UNL     1      55.943 245.393 321.883  0.00  0.00    +0.000 A 
ATOM     16  C   UNL     1      56.143 246.755 322.094  0.00  0.00    +0.000 A 
ENDBRANCH   6  11
BRANCH   8  17
ATOM     17  N   UNL     1      49.158 241.632 327.108  0.00  0.00    +0.000 NA
ATOM     18  H   UNL     1      48.410 242.139 327.568  0.00  0.00    +0.000 HD
ATOM     19  H   UNL     1      48.845 241.019 326.366  0.00  0.00    +0.000 HD
ENDBRANCH   8  17
TORSDOF 2
ENDMDL
MODEL 3
REMARK VINA RESULT:      -5.4     30.887     32.832
REMARK  Name = PhIP.pdbqt.pdb
REMARK  2 active torsions:
REMARK  status: ('A' for Active; 'I' for Inactive)
REMARK    1  A    between atoms: N_4  and  C_9
REMARK    2  A    between atoms: C_7  and  C_10
REMARK                            x       y       z     vdW  Elec       q    Type
REMARK                         _______ _______ _______ _____ _____    ______ ____
ROOT
ATOM      1  N   UNL     1      75.202 225.885 337.661  0.00  0.00    +0.000 N 
ATOM      2  N   UNL     1      73.976 225.307 335.702  0.00  0.00    +0.000 NA
ATOM      3  N   UNL     1      72.463 223.730 336.759  0.00  0.00    +0.000 NA
ATOM      4  C   UNL     1      74.232 225.010 338.049  0.00  0.00    +0.000 C 
ATOM      5  C   UNL     1      73.493 224.680 336.744  0.00  0.00    +0.000 C 
ATOM      6  C   UNL     1      72.996 223.209 339.125  0.00  0.00    +0.000 C 
ATOM      7  C   UNL     1      73.980 224.246 339.068  0.00  0.00    +0.000 C 
ATOM      8  C   UNL     1      75.025 226.002 336.281  0.00  0.00    +0.000 C 
ATOM      9  C   UNL     1      76.512 225.927 338.287  0.00  0.00    +0.000 C 
ATOM     10  C   UNL     1      72.409 223.205 337.814  0.00  0.00    +0.000 C 
ENDROOT
BRANCH   6  11
ATOM     11  C   UNL     1      72.620 222.400 340.268  0.00  0.00    +0.000 A 
ATOM     12  C   UNL     1      73.579 221.994 341.198  0.00  0.00    +0.000 A 
ATOM     13  C   UNL     1      71.292 222.014 340.460  0.00  0.00    +0.000 A 
ATOM     14  C   UNL     1      73.221 221.216 342.298  0.00  0.00    +0.000 A 
ATOM     15  C   UNL     1      70.928 221.236 341.558  0.00  0.00    +0.000 A 
ATOM     16  C   UNL     1      71.894 220.837 342.477  0.00  0.00    +0.000 A 
ENDBRANCH   6  11
BRANCH   8  17
ATOM     17  N   UNL     1      75.884 226.695 335.410  0.00  0.00    +0.000 NA
ATOM     18  H   UNL     1      76.857 226.423 335.502  0.00  0.00    +0.000 HD
ATOM     19  H   UNL     1      75.548 226.711 334.456  0.00  0.00    +0.000 HD
ENDBRANCH   8  17
TORSDOF 2
ENDMDL
MODEL 4
REMARK VINA RESULT:      -5.0     20.068     21.811
REMARK  Name = PhIP.pdbqt.pdb
REMARK  2 active torsions:
REMARK  status: ('A' for Active; 'I' for Inactive)
REMARK    1  A    between atoms: N_4  and  C_9
REMARK    2  A    between atoms: C_7  and  C_10
REMARK                            x       y       z     vdW  Elec       q    Type
REMARK                         _______ _______ _______ _____ _____    ______ ____
ROOT
ATOM      1  N   UNL     1      63.058 227.259 322.811  0.00  0.00    +0.000 N 
ATOM      2  N   UNL     1      64.838 227.677 324.339  0.00  0.00    +0.000 NA
ATOM      3  N   UNL     1      63.964 226.352 326.175  0.00  0.00    +0.000 NA
ATOM      4  C   UNL     1      62.784 226.545 323.939  0.00  0.00    +0.000 C 
ATOM      5  C   UNL     1      63.960 226.866 324.872  0.00  0.00    +0.000 C 
ATOM      6  C   UNL     1      61.669 225.479 325.823  0.00  0.00    +0.000 C 
ATOM      7  C   UNL     1      61.758 225.959 324.479  0.00  0.00    +0.000 C 
ATOM      8  C   UNL     1      64.252 227.921 323.108  0.00  0.00    +0.000 C 
ATOM      9  C   UNL     1      62.018 227.854 321.991  0.00  0.00    +0.000 C 
ATOM     10  C   UNL     1      62.934 225.826 326.408  0.00  0.00    +0.000 C 
ENDROOT
BRANCH   6  11
ATOM     11  C   UNL     1      60.582 224.739 326.434  0.00  0.00    +0.000 A 
ATOM     12  C   UNL     1      60.660 224.330 327.767  0.00  0.00    +0.000 A 
ATOM     13  C   UNL     1      59.436 224.422 325.701  0.00  0.00    +0.000 A 
ATOM     14  C   UNL     1      59.616 223.618 328.357  0.00  0.00    +0.000 A 
ATOM     15  C   UNL     1      58.390 223.711 326.285  0.00  0.00    +0.000 A 
ATOM     16  C   UNL     1      58.481 223.309 327.615  0.00  0.00    +0.000 A 
ENDBRANCH   6  11
BRANCH   8  17
ATOM     17  N   UNL     1      64.861 228.893 322.296  0.00  0.00    +0.000 NA
ATOM     18  H   UNL     1      65.429 228.501 321.552  0.00  0.00    +0.000 HD
ATOM     19  H   UNL     1      64.216 229.610 321.990  0.00  0.00    +0.000 HD
ENDBRANCH   8  17
TORSDOF 2
ENDMDL
MODEL 5
REMARK VINA RESULT:      -4.9     18.393     21.326
REMARK  Name = PhIP.pdbqt.pdb
REMARK  2 active torsions:
REMARK  status: ('A' for Active; 'I' for Inactive)
REMARK    1  A    between atoms: N_4  and  C_9
REMARK    2  A    between atoms: C_7  and  C_10
REMARK                            x       y       z     vdW  Elec       q    Type
REMARK                         _______ _______ _______ _____ _____    ______ ____
ROOT
ATOM      1  N   UNL     1      47.335 236.334 346.671  0.00  0.00    +0.000 N 
ATOM      2  N   UNL     1      45.041 235.713 346.496  0.00  0.00    +0.000 NA
ATOM      3  N   UNL     1      44.436 237.310 344.773  0.00  0.00    +0.000 NA
ATOM      4  C   UNL     1      46.792 237.106 345.688  0.00  0.00    +0.000 C 
ATOM      5  C   UNL     1      45.325 236.657 345.637  0.00  0.00    +0.000 C 
ATOM      6  C   UNL     1      46.207 238.955 344.215  0.00  0.00    +0.000 C 
ATOM      7  C   UNL     1      47.087 238.199 345.052  0.00  0.00    +0.000 C 
ATOM      8  C   UNL     1      46.266 235.560 347.127  0.00  0.00    +0.000 C 
ATOM      9  C   UNL     1      48.383 236.816 347.553  0.00  0.00    +0.000 C 
ATOM     10  C   UNL     1      44.959 238.247 344.282  0.00  0.00    +0.000 C 
ENDROOT
BRANCH   6  11
ATOM     11  C   UNL     1      46.523 240.124 343.417  0.00  0.00    +0.000 A 
ATOM     12  C   UNL     1      46.303 241.408 343.918  0.00  0.00    +0.000 A 
ATOM     13  C   UNL     1      47.053 239.986 342.133  0.00  0.00    +0.000 A 
ATOM     14  C   UNL     1      46.606 242.533 343.153  0.00  0.00    +0.000 A 
ATOM     15  C   UNL     1      47.357 241.107 341.363  0.00  0.00    +0.000 A 
ATOM     16  C   UNL     1      47.133 242.382 341.875  0.00  0.00    +0.000 A 
ENDBRANCH   6  11
BRANCH   8  17
ATOM     17  N   UNL     1      46.304 234.703 348.241  0.00  0.00    +0.000 NA
ATOM     18  H   UNL     1      47.138 234.128 348.281  0.00  0.00    +0.000 HD
ATOM     19  H   UNL     1      46.087 235.177 349.109  0.00  0.00    +0.000 HD
ENDBRANCH   8  17
TORSDOF 2
ENDMDL
MODEL 6
REMARK VINA RESULT:      -4.8     29.970     31.716
REMARK  Name = PhIP.pdbqt.pdb
REMARK  2 active torsions:
REMARK  status: ('A' for Active; 'I' for Inactive)
REMARK    1  A    between atoms: N_4  and  C_9
REMARK    2  A    between atoms: C_7  and  C_10
REMARK                            x       y       z     vdW  Elec       q    Type
REMARK                         _______ _______ _______ _____ _____    ______ ____
ROOT
ATOM      1  N   UNL     1      66.253 220.186 335.802  0.00  0.00    +0.000 N 
ATOM      2  N   UNL     1      65.374 218.334 337.017  0.00  0.00    +0.000 NA
ATOM      3  N   UNL     1      66.769 218.588 338.986  0.00  0.00    +0.000 NA
ATOM      4  C   UNL     1      66.889 220.168 337.007  0.00  0.00    +0.000 C 
ATOM      5  C   UNL     1      66.280 218.956 337.726  0.00  0.00    +0.000 C 
ATOM      6  C   UNL     1      68.554 220.298 338.779  0.00  0.00    +0.000 C 
ATOM      7  C   UNL     1      67.960 220.679 337.535  0.00  0.00    +0.000 C 
ATOM      8  C   UNL     1      65.401 219.080 335.849  0.00  0.00    +0.000 C 
ATOM      9  C   UNL     1      66.909 220.614 334.579  0.00  0.00    +0.000 C 
ATOM     10  C   UNL     1      67.720 219.230 339.258  0.00  0.00    +0.000 C 
ENDROOT
BRANCH   6  11
ATOM     11  C   UNL     1      69.690 220.903 339.446  0.00  0.00    +0.000 A 
ATOM     12  C   UNL     1      70.135 222.176 339.080  0.00  0.00    +0.000 A 
ATOM     13  C   UNL     1      70.360 220.226 340.467  0.00  0.00    +0.000 A 
ATOM     14  C   UNL     1      71.227 222.760 339.720  0.00  0.00    +0.000 A 
ATOM     15  C   UNL     1      71.453 220.805 341.110  0.00  0.00    +0.000 A 
ATOM     16  C   UNL     1      71.886 222.074 340.734  0.00  0.00    +0.000 A 
ENDBRANCH   6  11
BRANCH   8  17
ATOM     17  N   UNL     1      64.635 218.601 334.772  0.00  0.00    +0.000 NA
ATOM     18  H   UNL     1      65.149 217.985 334.152  0.00  0.00    +0.000 HD
ATOM     19  H   UNL     1      63.735 218.240 335.060  0.00  0.00    +0.000 HD
ENDBRANCH   8  17
TORSDOF 2
ENDMDL
MODEL 7
REMARK VINA RESULT:      -4.5      2.315      3.137
REMARK  Name = PhIP.pdbqt.pdb
REMARK  2 active torsions:
REMARK  status: ('A' for Active; 'I' for Inactive)
REMARK    1  A    between atoms: N_4  and  C_9
REMARK    2  A    between atoms: C_7  and  C_10
REMARK                            x       y       z     vdW  Elec       q    Type
REMARK                         _______ _______ _______ _____ _____    ______ ____
ROOT
ATOM      1  N   UNL     1      50.779 246.423 330.811  0.00  0.00    +0.000 N 
ATOM      2  N   UNL     1      49.994 244.177 330.939  0.00  0.00    +0.000 NA
ATOM      3  N   UNL     1      51.112 243.363 328.944  0.00  0.00    +0.000 NA
ATOM      4  C   UNL     1      51.344 245.749 329.770  0.00  0.00    +0.000 C 
ATOM      5  C   UNL     1      50.793 244.323 329.913  0.00  0.00    +0.000 C 
ATOM      6  C   UNL     1      52.221 245.118 327.588  0.00  0.00    +0.000 C 
ATOM      7  C   UNL     1      51.933 246.034 328.648  0.00  0.00    +0.000 C 
ATOM      8  C   UNL     1      49.980 245.467 331.443  0.00  0.00    +0.000 C 
ATOM      9  C   UNL     1      50.399 247.822 330.721  0.00  0.00    +0.000 C 
ATOM     10  C   UNL     1      51.686 243.866 328.045  0.00  0.00    +0.000 C 
ENDROOT
BRANCH   6  11
ATOM     11  C   UNL     1      52.956 245.375 326.365  0.00  0.00    +0.000 A 
ATOM     12  C   UNL     1      53.147 246.682 325.910  0.00  0.00    +0.000 A 
ATOM     13  C   UNL     1      53.489 244.321 325.620  0.00  0.00    +0.000 A 
ATOM     14  C   UNL     1      53.854 246.932 324.735  0.00  0.00    +0.000 A 
ATOM     15  C   UNL     1      54.196 244.565 324.444  0.00  0.00    +0.000 A 
ATOM     16  C   UNL     1      54.378 245.872 324.002  0.00  0.00    +0.000 A 
ENDBRANCH   6  11
BRANCH   8  17
ATOM     17  N   UNL     1      49.086 245.728 332.496  0.00  0.00    +0.000 NA
ATOM     18  H   UNL     1      49.462 245.504 333.411  0.00  0.00    +0.000 HD
ATOM     19  H   UNL     1      48.665 246.646 332.436  0.00  0.00    +0.000 HD
ENDBRANCH   8  17
TORSDOF 2
ENDMDL
MODEL 8
REMARK VINA RESULT:      -4.5     23.423     25.443
REMARK  Name = PhIP.pdbqt.pdb
REMARK  2 active torsions:
REMARK  status: ('A' for Active; 'I' for Inactive)
REMARK    1  A    between atoms: N_4  and  C_9
REMARK    2  A    between atoms: C_7  and  C_10
REMARK                            x       y       z     vdW  Elec       q    Type
REMARK                         _______ _______ _______ _____ _____    ______ ____
ROOT
ATOM      1  N   UNL     1      66.684 237.004 342.141  0.00  0.00    +0.000 N 
ATOM      2  N   UNL     1      66.350 238.419 344.029  0.00  0.00    +0.000 NA
ATOM      3  N   UNL     1      66.238 236.659 345.696  0.00  0.00    +0.000 NA
ATOM      4  C   UNL     1      66.637 236.194 343.235  0.00  0.00    +0.000 C 
ATOM      5  C   UNL     1      66.416 237.167 344.403  0.00  0.00    +0.000 C 
ATOM      6  C   UNL     1      66.203 234.357 344.773  0.00  0.00    +0.000 C 
ATOM      7  C   UNL     1      66.462 234.933 343.489  0.00  0.00    +0.000 C 
ATOM      8  C   UNL     1      66.484 238.287 342.656  0.00  0.00    +0.000 C 
ATOM      9  C   UNL     1      66.173 236.595 340.844  0.00  0.00    +0.000 C 
ATOM     10  C   UNL     1      66.153 235.483 345.663  0.00  0.00    +0.000 C 
ENDROOT
BRANCH   6  11
ATOM     11  C   UNL     1      66.095 232.951 345.112  0.00  0.00    +0.000 A 
ATOM     12  C   UNL     1      65.904 232.552 346.437  0.00  0.00    +0.000 A 
ATOM     13  C   UNL     1      66.178 231.971 344.121  0.00  0.00    +0.000 A 
ATOM     14  C   UNL     1      65.800 231.201 346.766  0.00  0.00    +0.000 A 
ATOM     15  C   UNL     1      66.076 230.619 344.444  0.00  0.00    +0.000 A 
ATOM     16  C   UNL     1      65.886 230.235 345.769  0.00  0.00    +0.000 A 
ENDBRANCH   6  11
BRANCH   8  17
ATOM     17  N   UNL     1      66.311 239.451 341.887  0.00  0.00    +0.000 NA
ATOM     18  H   UNL     1      65.432 239.926 342.064  0.00  0.00    +0.000 HD
ATOM     19  H   UNL     1      67.120 240.058 341.906  0.00  0.00    +0.000 HD
ENDBRANCH   8  17
TORSDOF 2
ENDMDL
MODEL 9
REMARK VINA RESULT:      -4.4     20.967     22.966
REMARK  Name = PhIP.pdbqt.pdb
REMARK  2 active torsions:
REMARK  status: ('A' for Active; 'I' for Inactive)
REMARK    1  A    between atoms: N_4  and  C_9
REMARK    2  A    between atoms: C_7  and  C_10
REMARK                            x       y       z     vdW  Elec       q    Type
REMARK                         _______ _______ _______ _____ _____    ______ ____
ROOT
ATOM      1  N   UNL     1      57.990 244.310 348.283  0.00  0.00    +0.000 N 
ATOM      2  N   UNL     1      57.350 245.288 346.207  0.00  0.00    +0.000 NA
ATOM      3  N   UNL     1      55.354 243.954 345.858  0.00  0.00    +0.000 NA
ATOM      4  C   UNL     1      56.821 243.716 347.913  0.00  0.00    +0.000 C 
ATOM      5  C   UNL     1      56.476 244.387 346.575  0.00  0.00    +0.000 C 
ATOM      6  C   UNL     1      55.042 242.110 347.487  0.00  0.00    +0.000 C 
ATOM      7  C   UNL     1      56.148 242.648 348.217  0.00  0.00    +0.000 C 
ATOM      8  C   UNL     1      58.268 245.198 347.241  0.00  0.00    +0.000 C 
ATOM      9  C   UNL     1      59.033 243.600 349.003  0.00  0.00    +0.000 C 
ATOM     10  C   UNL     1      54.894 242.993 346.364  0.00  0.00    +0.000 C 
ENDROOT
BRANCH   6  11
ATOM     11  C   UNL     1      54.207 240.978 347.842  0.00  0.00    +0.000 A 
ATOM     12  C   UNL     1      54.458 240.246 349.005  0.00  0.00    +0.000 A 
ATOM     13  C   UNL     1      53.137 240.600 347.029  0.00  0.00    +0.000 A 
ATOM     14  C   UNL     1      53.658 239.158 349.349  0.00  0.00    +0.000 A 
ATOM     15  C   UNL     1      52.334 239.512 347.368  0.00  0.00    +0.000 A 
ATOM     16  C   UNL     1      52.595 238.791 348.529  0.00  0.00    +0.000 A 
ENDBRANCH   6  11
BRANCH   8  17
ATOM     17  N   UNL     1      59.453 245.941 347.106  0.00  0.00    +0.000 NA
ATOM     18  H   UNL     1      59.437 246.589 346.325  0.00  0.00    +0.000 HD
ATOM     19  H   UNL     1      59.761 246.352 347.978  0.00  0.00    +0.000 HD
ENDBRANCH   8  17
TORSDOF 2
ENDMDL
