MODEL 1
REMARK VINA RESULT:      -5.2      0.000      0.000
REMARK  Name = Piroxicam.pdbqt.pdb
REMARK  3 active torsions:
REMARK  status: ('A' for Active; 'I' for Inactive)
REMARK    1  A    between atoms: C_7  and  C_14
REMARK    2  A    between atoms: C_8  and  O_24
REMARK    3  A    between atoms: N_16  and  C_18
REMARK                            x       y       z     vdW  Elec       q    Type
REMARK                         _______ _______ _______ _____ _____    ______ ____
ROOT
ATOM      1  S   UNL     1      66.460 241.213 341.833  0.00  0.00    +0.000 S 
ATOM      2  O   UNL     1      65.960 240.031 342.511  0.00  0.00    +0.000 OA
ATOM      3  O   UNL     1      67.249 242.198 342.548  0.00  0.00    +0.000 OA
ATOM      4  N   UNL     1      67.273 240.718 340.398  0.00  0.00    +0.000 N 
ATOM      5  C   UNL     1      65.062 242.024 341.160  0.00  0.00    +0.000 A 
ATOM      6  C   UNL     1      64.550 241.534 339.960  0.00  0.00    +0.000 A 
ATOM      7  C   UNL     1      66.438 239.984 339.491  0.00  0.00    +0.000 C 
ATOM      8  C   UNL     1      65.155 240.367 339.290  0.00  0.00    +0.000 C 
ATOM      9  C   UNL     1      64.527 243.131 341.810  0.00  0.00    +0.000 A 
ATOM     10  C   UNL     1      68.129 241.693 339.701  0.00  0.00    +0.000 C 
ATOM     11  C   UNL     1      63.430 242.175 339.428  0.00  0.00    +0.000 A 
ATOM     12  C   UNL     1      63.420 243.759 341.254  0.00  0.00    +0.000 A 
ATOM     13  C   UNL     1      62.867 243.280 340.068  0.00  0.00    +0.000 A 
ENDROOT
BRANCH   7  14
ATOM     14  C   UNL     1      67.013 238.787 338.794  0.00  0.00    +0.000 C 
ATOM     15  O   UNL     1      67.516 237.885 339.462  0.00  0.00    +0.000 OA
ATOM     16  N   UNL     1      66.926 238.814 337.426  0.00  0.00    +0.000 N 
ATOM     17  H   UNL     1      66.435 239.566 336.956  0.00  0.00    +0.000 HD
BRANCH  16  18
ATOM     18  C   UNL     1      67.405 237.845 336.544  0.00  0.00    +0.000 A 
ATOM     19  N   UNL     1      66.620 236.754 336.437  0.00  0.00    +0.000 NA
ATOM     20  C   UNL     1      67.036 235.783 335.592  0.00  0.00    +0.000 A 
ATOM     21  C   UNL     1      68.197 235.845 334.843  0.00  0.00    +0.000 A 
ATOM     22  C   UNL     1      68.982 236.982 334.974  0.00  0.00    +0.000 A 
ATOM     23  C   UNL     1      68.587 238.001 335.834  0.00  0.00    +0.000 A 
ENDBRANCH  16  18
ENDBRANCH   7  14
BRANCH   8  24
ATOM     24  O   UNL     1      64.285 239.718 338.431  0.00  0.00    +0.000 OA
ATOM     25  H   UNL     1      63.891 238.938 338.886  0.00  0.00    +0.000 HD
ENDBRANCH   8  24
TORSDOF 3
ENDMDL
MODEL 2
REMARK VINA RESULT:      -5.0     16.238     17.921
REMARK  Name = Piroxicam.pdbqt.pdb
REMARK  3 active torsions:
REMARK  status: ('A' for Active; 'I' for Inactive)
REMARK    1  A    between atoms: C_7  and  C_14
REMARK    2  A    between atoms: C_8  and  O_24
REMARK    3  A    between atoms: N_16  and  C_18
REMARK                            x       y       z     vdW  Elec       q    Type
REMARK                         _______ _______ _______ _____ _____    ______ ____
ROOT
ATOM      1  S   UNL     1      63.426 231.063 352.262  0.00  0.00    +0.000 S 
ATOM      2  O   UNL     1      62.902 232.410 352.389  0.00  0.00    +0.000 OA
ATOM      3  O   UNL     1      64.605 230.654 353.000  0.00  0.00    +0.000 OA
ATOM      4  N   UNL     1      62.138 229.949 352.522  0.00  0.00    +0.000 N 
ATOM      5  C   UNL     1      63.741 230.815 350.558  0.00  0.00    +0.000 A 
ATOM      6  C   UNL     1      62.658 230.486 349.745  0.00  0.00    +0.000 A 
ATOM      7  C   UNL     1      61.048 230.109 351.603  0.00  0.00    +0.000 C 
ATOM      8  C   UNL     1      61.295 230.367 350.297  0.00  0.00    +0.000 C 
ATOM      9  C   UNL     1      65.040 230.919 350.074  0.00  0.00    +0.000 A 
ATOM     10  C   UNL     1      62.468 228.531 352.752  0.00  0.00    +0.000 C 
ATOM     11  C   UNL     1      62.907 230.298 348.384  0.00  0.00    +0.000 A 
ATOM     12  C   UNL     1      65.265 230.714 348.718  0.00  0.00    +0.000 A 
ATOM     13  C   UNL     1      64.201 230.410 347.872  0.00  0.00    +0.000 A 
ENDROOT
BRANCH   7  14
ATOM     14  C   UNL     1      59.646 230.001 352.126  0.00  0.00    +0.000 C 
ATOM     15  O   UNL     1      58.861 229.224 351.587  0.00  0.00    +0.000 OA
ATOM     16  N   UNL     1      59.360 230.816 353.191  0.00  0.00    +0.000 N 
ATOM     17  H   UNL     1      60.086 231.380 353.618  0.00  0.00    +0.000 HD
BRANCH  16  18
ATOM     18  C   UNL     1      58.131 230.928 353.843  0.00  0.00    +0.000 A 
ATOM     19  N   UNL     1      57.387 231.980 353.445  0.00  0.00    +0.000 NA
ATOM     20  C   UNL     1      56.182 232.135 354.042  0.00  0.00    +0.000 A 
ATOM     21  C   UNL     1      55.680 231.291 355.017  0.00  0.00    +0.000 A 
ATOM     22  C   UNL     1      56.471 230.217 355.401  0.00  0.00    +0.000 A 
ATOM     23  C   UNL     1      57.714 230.026 354.811  0.00  0.00    +0.000 A 
ENDBRANCH  16  18
ENDBRANCH   7  14
BRANCH   8  24
ATOM     24  O   UNL     1      60.302 230.532 349.346  0.00  0.00    +0.000 OA
ATOM     25  H   UNL     1      59.731 231.295 349.592  0.00  0.00    +0.000 HD
ENDBRANCH   8  24
TORSDOF 3
ENDMDL
MODEL 3
REMARK VINA RESULT:      -4.9     20.179     21.803
REMARK  Name = Piroxicam.pdbqt.pdb
REMARK  3 active torsions:
REMARK  status: ('A' for Active; 'I' for Inactive)
REMARK    1  A    between atoms: C_7  and  C_14
REMARK    2  A    between atoms: C_8  and  O_24
REMARK    3  A    between atoms: N_16  and  C_18
REMARK                            x       y       z     vdW  Elec       q    Type
REMARK                         _______ _______ _______ _____ _____    ______ ____
ROOT
ATOM      1  S   UNL     1      49.792 244.141 324.287  0.00  0.00    +0.000 S 
ATOM      2  O   UNL     1      50.500 243.342 323.304  0.00  0.00    +0.000 OA
ATOM      3  O   UNL     1      49.008 245.290 323.880  0.00  0.00    +0.000 OA
ATOM      4  N   UNL     1      48.850 243.088 325.272  0.00  0.00    +0.000 N 
ATOM      5  C   UNL     1      50.994 244.686 325.438  0.00  0.00    +0.000 A 
ATOM      6  C   UNL     1      51.388 243.789 326.429  0.00  0.00    +0.000 A 
ATOM      7  C   UNL     1      49.628 242.096 325.958  0.00  0.00    +0.000 C 
ATOM      8  C   UNL     1      50.825 242.427 326.497  0.00  0.00    +0.000 C 
ATOM      9  C   UNL     1      51.492 245.981 325.355  0.00  0.00    +0.000 A 
ATOM     10  C   UNL     1      47.811 243.674 326.136  0.00  0.00    +0.000 C 
ATOM     11  C   UNL     1      52.354 244.220 327.341  0.00  0.00    +0.000 A 
ATOM     12  C   UNL     1      52.442 246.391 326.282  0.00  0.00    +0.000 A 
ATOM     13  C   UNL     1      52.878 245.511 327.270  0.00  0.00    +0.000 A 
ENDROOT
BRANCH   7  14
ATOM     14  C   UNL     1      49.094 240.697 326.043  0.00  0.00    +0.000 C 
ATOM     15  O   UNL     1      48.742 240.253 327.135  0.00  0.00    +0.000 OA
ATOM     16  N   UNL     1      49.052 240.018 324.853  0.00  0.00    +0.000 N 
ATOM     17  H   UNL     1      49.300 240.482 323.987  0.00  0.00    +0.000 HD
BRANCH  16  18
ATOM     18  C   UNL     1      48.627 238.702 324.663  0.00  0.00    +0.000 A 
ATOM     19  N   UNL     1      47.394 238.589 324.131  0.00  0.00    +0.000 NA
ATOM     20  C   UNL     1      46.933 237.335 323.921  0.00  0.00    +0.000 A 
ATOM     21  C   UNL     1      47.643 236.184 324.213  0.00  0.00    +0.000 A 
ATOM     22  C   UNL     1      48.910 236.335 324.756  0.00  0.00    +0.000 A 
ATOM     23  C   UNL     1      49.417 237.608 324.987  0.00  0.00    +0.000 A 
ENDBRANCH  16  18
ENDBRANCH   7  14
BRANCH   8  24
ATOM     24  O   UNL     1      51.635 241.533 327.176  0.00  0.00    +0.000 OA
ATOM     25  H   UNL     1      51.314 241.432 328.102  0.00  0.00    +0.000 HD
ENDBRANCH   8  24
TORSDOF 3
ENDMDL
MODEL 4
REMARK VINA RESULT:      -4.8     19.516     20.654
REMARK  Name = Piroxicam.pdbqt.pdb
REMARK  3 active torsions:
REMARK  status: ('A' for Active; 'I' for Inactive)
REMARK    1  A    between atoms: C_7  and  C_14
REMARK    2  A    between atoms: C_8  and  O_24
REMARK    3  A    between atoms: N_16  and  C_18
REMARK                            x       y       z     vdW  Elec       q    Type
REMARK                         _______ _______ _______ _____ _____    ______ ____
ROOT
ATOM      1  S   UNL     1      68.426 218.571 339.598  0.00  0.00    +0.000 S 
ATOM      2  O   UNL     1      67.122 219.207 339.612  0.00  0.00    +0.000 OA
ATOM      3  O   UNL     1      68.586 217.199 340.037  0.00  0.00    +0.000 OA
ATOM      4  N   UNL     1      69.124 218.788 338.039  0.00  0.00    +0.000 N 
ATOM      5  C   UNL     1      69.476 219.577 340.574  0.00  0.00    +0.000 A 
ATOM      6  C   UNL     1      70.009 220.718 339.979  0.00  0.00    +0.000 A 
ATOM      7  C   UNL     1      69.278 220.166 337.666  0.00  0.00    +0.000 C 
ATOM      8  C   UNL     1      69.690 221.073 338.582  0.00  0.00    +0.000 C 
ATOM      9  C   UNL     1      69.769 219.204 341.881  0.00  0.00    +0.000 A 
ATOM     10  C   UNL     1      70.300 217.979 337.674  0.00  0.00    +0.000 C 
ATOM     11  C   UNL     1      70.838 221.526 340.760  0.00  0.00    +0.000 A 
ATOM     12  C   UNL     1      70.607 220.017 342.635  0.00  0.00    +0.000 A 
ATOM     13  C   UNL     1      71.137 221.179 342.078  0.00  0.00    +0.000 A 
ENDROOT
BRANCH   7  14
ATOM     14  C   UNL     1      68.957 220.569 336.258  0.00  0.00    +0.000 C 
ATOM     15  O   UNL     1      69.426 221.613 335.809  0.00  0.00    +0.000 OA
ATOM     16  N   UNL     1      68.135 219.706 335.580  0.00  0.00    +0.000 N 
ATOM     17  H   UNL     1      67.845 218.832 336.003  0.00  0.00    +0.000 HD
BRANCH  16  18
ATOM     18  C   UNL     1      67.665 219.861 334.275  0.00  0.00    +0.000 A 
ATOM     19  N   UNL     1      68.500 219.393 333.325  0.00  0.00    +0.000 NA
ATOM     20  C   UNL     1      68.091 219.514 332.041  0.00  0.00    +0.000 A 
ATOM     21  C   UNL     1      66.888 220.076 331.655  0.00  0.00    +0.000 A 
ATOM     22  C   UNL     1      66.050 220.544 332.657  0.00  0.00    +0.000 A 
ATOM     23  C   UNL     1      66.436 220.439 333.988  0.00  0.00    +0.000 A 
ENDBRANCH  16  18
ENDBRANCH   7  14
BRANCH   8  24
ATOM     24  O   UNL     1      69.867 222.418 338.306  0.00  0.00    +0.000 OA
ATOM     25  H   UNL     1      69.101 222.752 337.784  0.00  0.00    +0.000 HD
ENDBRANCH   8  24
TORSDOF 3
ENDMDL
MODEL 5
REMARK VINA RESULT:      -4.7     19.923     21.031
REMARK  Name = Piroxicam.pdbqt.pdb
REMARK  3 active torsions:
REMARK  status: ('A' for Active; 'I' for Inactive)
REMARK    1  A    between atoms: C_7  and  C_14
REMARK    2  A    between atoms: C_8  and  O_24
REMARK    3  A    between atoms: N_16  and  C_18
REMARK                            x       y       z     vdW  Elec       q    Type
REMARK                         _______ _______ _______ _____ _____    ______ ____
ROOT
ATOM      1  S   UNL     1      53.810 232.326 356.269  0.00  0.00    +0.000 S 
ATOM      2  O   UNL     1      52.683 231.678 355.624  0.00  0.00    +0.000 OA
ATOM      3  O   UNL     1      53.825 232.529 357.705  0.00  0.00    +0.000 OA
ATOM      4  N   UNL     1      55.257 231.544 355.759  0.00  0.00    +0.000 N 
ATOM      5  C   UNL     1      53.987 233.888 355.500  0.00  0.00    +0.000 A 
ATOM      6  C   UNL     1      54.647 233.930 354.273  0.00  0.00    +0.000 A 
ATOM      7  C   UNL     1      55.456 231.579 354.338  0.00  0.00    +0.000 C 
ATOM      8  C   UNL     1      55.164 232.701 353.640  0.00  0.00    +0.000 C 
ATOM      9  C   UNL     1      53.503 235.028 356.132  0.00  0.00    +0.000 A 
ATOM     10  C   UNL     1      56.502 231.809 356.501  0.00  0.00    +0.000 C 
ATOM     11  C   UNL     1      54.781 235.174 353.654  0.00  0.00    +0.000 A 
ATOM     12  C   UNL     1      53.659 236.257 355.503  0.00  0.00    +0.000 A 
ATOM     13  C   UNL     1      54.291 236.331 354.263  0.00  0.00    +0.000 A 
ENDROOT
BRANCH   7  14
ATOM     14  C   UNL     1      55.974 230.348 353.654  0.00  0.00    +0.000 C 
ATOM     15  O   UNL     1      56.603 230.462 352.604  0.00  0.00    +0.000 OA
ATOM     16  N   UNL     1      55.681 229.167 354.286  0.00  0.00    +0.000 N 
ATOM     17  H   UNL     1      55.213 229.166 355.185  0.00  0.00    +0.000 HD
BRANCH  16  18
ATOM     18  C   UNL     1      56.019 227.885 353.849  0.00  0.00    +0.000 A 
ATOM     19  N   UNL     1      57.343 227.631 353.848  0.00  0.00    +0.000 NA
ATOM     20  C   UNL     1      57.727 226.401 353.437  0.00  0.00    +0.000 A 
ATOM     21  C   UNL     1      56.856 225.408 353.027  0.00  0.00    +0.000 A 
ATOM     22  C   UNL     1      55.500 225.701 353.042  0.00  0.00    +0.000 A 
ATOM     23  C   UNL     1      55.067 226.955 353.458  0.00  0.00    +0.000 A 
ENDBRANCH  16  18
ENDBRANCH   7  14
BRANCH   8  24
ATOM     24  O   UNL     1      55.329 232.819 352.270  0.00  0.00    +0.000 OA
ATOM     25  H   UNL     1      55.748 233.686 352.061  0.00  0.00    +0.000 HD
ENDBRANCH   8  24
TORSDOF 3
ENDMDL
MODEL 6
REMARK VINA RESULT:      -4.7      2.639      3.697
REMARK  Name = Piroxicam.pdbqt.pdb
REMARK  3 active torsions:
REMARK  status: ('A' for Active; 'I' for Inactive)
REMARK    1  A    between atoms: C_7  and  C_14
REMARK    2  A    between atoms: C_8  and  O_24
REMARK    3  A    between atoms: N_16  and  C_18
REMARK                            x       y       z     vdW  Elec       q    Type
REMARK                         _______ _______ _______ _____ _____    ______ ____
ROOT
ATOM      1  S   UNL     1      65.107 243.467 340.942  0.00  0.00    +0.000 S 
ATOM      2  O   UNL     1      66.407 243.875 340.443  0.00  0.00    +0.000 OA
ATOM      3  O   UNL     1      64.168 244.449 341.449  0.00  0.00    +0.000 OA
ATOM      4  N   UNL     1      64.353 242.471 339.757  0.00  0.00    +0.000 N 
ATOM      5  C   UNL     1      65.409 242.301 342.213  0.00  0.00    +0.000 A 
ATOM      6  C   UNL     1      65.689 240.991 341.830  0.00  0.00    +0.000 A 
ATOM      7  C   UNL     1      65.111 241.296 339.430  0.00  0.00    +0.000 C 
ATOM      8  C   UNL     1      65.743 240.604 340.407  0.00  0.00    +0.000 C 
ATOM      9  C   UNL     1      65.334 242.696 343.544  0.00  0.00    +0.000 A 
ATOM     10  C   UNL     1      62.914 242.185 339.888  0.00  0.00    +0.000 C 
ATOM     11  C   UNL     1      65.939 240.063 342.842  0.00  0.00    +0.000 A 
ATOM     12  C   UNL     1      65.575 241.751 344.534  0.00  0.00    +0.000 A 
ATOM     13  C   UNL     1      65.883 240.438 344.185  0.00  0.00    +0.000 A 
ENDROOT
BRANCH   7  14
ATOM     14  C   UNL     1      65.196 240.873 337.994  0.00  0.00    +0.000 C 
ATOM     15  O   UNL     1      64.232 240.318 337.471  0.00  0.00    +0.000 OA
ATOM     16  N   UNL     1      66.389 241.151 337.377  0.00  0.00    +0.000 N 
ATOM     17  H   UNL     1      67.110 241.672 337.862  0.00  0.00    +0.000 HD
BRANCH  16  18
ATOM     18  C   UNL     1      66.735 240.839 336.061  0.00  0.00    +0.000 A 
ATOM     19  N   UNL     1      67.543 239.766 335.940  0.00  0.00    +0.000 NA
ATOM     20  C   UNL     1      67.907 239.416 334.684  0.00  0.00    +0.000 A 
ATOM     21  C   UNL     1      67.503 240.082 333.541  0.00  0.00    +0.000 A 
ATOM     22  C   UNL     1      66.670 241.180 333.701  0.00  0.00    +0.000 A 
ATOM     23  C   UNL     1      66.276 241.570 334.975  0.00  0.00    +0.000 A 
ENDBRANCH  16  18
ENDBRANCH   7  14
BRANCH   8  24
ATOM     24  O   UNL     1      66.490 239.462 340.178  0.00  0.00    +0.000 OA
ATOM     25  H   UNL     1      66.429 239.210 339.228  0.00  0.00    +0.000 HD
ENDBRANCH   8  24
TORSDOF 3
ENDMDL
MODEL 7
REMARK VINA RESULT:      -4.6     24.394     26.120
REMARK  Name = Piroxicam.pdbqt.pdb
REMARK  3 active torsions:
REMARK  status: ('A' for Active; 'I' for Inactive)
REMARK    1  A    between atoms: C_7  and  C_14
REMARK    2  A    between atoms: C_8  and  O_24
REMARK    3  A    between atoms: N_16  and  C_18
REMARK                            x       y       z     vdW  Elec       q    Type
REMARK                         _______ _______ _______ _____ _____    ______ ____
ROOT
ATOM      1  S   UNL     1      43.229 225.809 342.814  0.00  0.00    +0.000 S 
ATOM      2  O   UNL     1      43.555 224.738 343.738  0.00  0.00    +0.000 OA
ATOM      3  O   UNL     1      42.077 225.707 341.940  0.00  0.00    +0.000 OA
ATOM      4  N   UNL     1      43.192 227.292 343.688  0.00  0.00    +0.000 N 
ATOM      5  C   UNL     1      44.648 226.047 341.816  0.00  0.00    +0.000 A 
ATOM      6  C   UNL     1      45.689 226.804 342.348  0.00  0.00    +0.000 A 
ATOM      7  C   UNL     1      44.432 227.605 344.339  0.00  0.00    +0.000 C 
ATOM      8  C   UNL     1      45.606 227.370 343.709  0.00  0.00    +0.000 C 
ATOM      9  C   UNL     1      44.685 225.513 340.533  0.00  0.00    +0.000 A 
ATOM     10  C   UNL     1      42.587 228.473 343.047  0.00  0.00    +0.000 C 
ATOM     11  C   UNL     1      46.824 226.986 341.556  0.00  0.00    +0.000 A 
ATOM     12  C   UNL     1      45.821 225.719 339.758  0.00  0.00    +0.000 A 
ATOM     13  C   UNL     1      46.891 226.449 340.270  0.00  0.00    +0.000 A 
ENDROOT
BRANCH   7  14
ATOM     14  C   UNL     1      44.391 228.177 345.725  0.00  0.00    +0.000 C 
ATOM     15  O   UNL     1      43.848 227.537 346.624  0.00  0.00    +0.000 OA
ATOM     16  N   UNL     1      44.980 229.407 345.864  0.00  0.00    +0.000 N 
ATOM     17  H   UNL     1      45.465 229.836 345.083  0.00  0.00    +0.000 HD
BRANCH  16  18
ATOM     18  C   UNL     1      45.054 230.165 347.033  0.00  0.00    +0.000 A 
ATOM     19  N   UNL     1      44.287 231.274 347.024  0.00  0.00    +0.000 NA
ATOM     20  C   UNL     1      44.318 232.045 348.136  0.00  0.00    +0.000 A 
ATOM     21  C   UNL     1      45.074 231.764 349.260  0.00  0.00    +0.000 A 
ATOM     22  C   UNL     1      45.850 230.614 349.237  0.00  0.00    +0.000 A 
ATOM     23  C   UNL     1      45.845 229.798 348.112  0.00  0.00    +0.000 A 
ENDBRANCH  16  18
ENDBRANCH   7  14
BRANCH   8  24
ATOM     24  O   UNL     1      46.845 227.645 344.263  0.00  0.00    +0.000 OA
ATOM     25  H   UNL     1      46.741 228.284 345.005  0.00  0.00    +0.000 HD
ENDBRANCH   8  24
TORSDOF 3
ENDMDL
MODEL 8
REMARK VINA RESULT:      -4.6     23.710     24.822
REMARK  Name = Piroxicam.pdbqt.pdb
REMARK  3 active torsions:
REMARK  status: ('A' for Active; 'I' for Inactive)
REMARK    1  A    between atoms: C_7  and  C_14
REMARK    2  A    between atoms: C_8  and  O_24
REMARK    3  A    between atoms: N_16  and  C_18
REMARK                            x       y       z     vdW  Elec       q    Type
REMARK                         _______ _______ _______ _____ _____    ______ ____
ROOT
ATOM      1  S   UNL     1      42.985 231.583 345.797  0.00  0.00    +0.000 S 
ATOM      2  O   UNL     1      43.686 231.936 344.576  0.00  0.00    +0.000 OA
ATOM      3  O   UNL     1      41.577 231.892 345.957  0.00  0.00    +0.000 OA
ATOM      4  N   UNL     1      43.278 229.920 346.135  0.00  0.00    +0.000 N 
ATOM      5  C   UNL     1      43.859 232.348 347.107  0.00  0.00    +0.000 A 
ATOM      6  C   UNL     1      45.011 231.713 347.568  0.00  0.00    +0.000 A 
ATOM      7  C   UNL     1      44.669 229.604 346.294  0.00  0.00    +0.000 C 
ATOM      8  C   UNL     1      45.484 230.452 346.964  0.00  0.00    +0.000 C 
ATOM      9  C   UNL     1      43.377 233.527 347.662  0.00  0.00    +0.000 A 
ATOM     10  C   UNL     1      42.436 229.246 347.140  0.00  0.00    +0.000 C 
ATOM     11  C   UNL     1      45.714 232.328 348.606  0.00  0.00    +0.000 A 
ATOM     12  C   UNL     1      44.086 234.113 348.703  0.00  0.00    +0.000 A 
ATOM     13  C   UNL     1      45.257 233.519 349.171  0.00  0.00    +0.000 A 
ENDROOT
BRANCH   7  14
ATOM     14  C   UNL     1      45.191 228.335 345.691  0.00  0.00    +0.000 C 
ATOM     15  O   UNL     1      45.593 227.437 346.429  0.00  0.00    +0.000 OA
ATOM     16  N   UNL     1      45.175 228.294 344.320  0.00  0.00    +0.000 N 
ATOM     17  H   UNL     1      44.764 229.053 343.788  0.00  0.00    +0.000 HD
BRANCH  16  18
ATOM     18  C   UNL     1      45.628 227.248 343.515  0.00  0.00    +0.000 A 
ATOM     19  N   UNL     1      44.715 226.280 343.298  0.00  0.00    +0.000 NA
ATOM     20  C   UNL     1      45.100 225.242 342.520  0.00  0.00    +0.000 A 
ATOM     21  C   UNL     1      46.351 225.121 341.944  0.00  0.00    +0.000 A 
ATOM     22  C   UNL     1      47.266 226.136 342.184  0.00  0.00    +0.000 A 
ATOM     23  C   UNL     1      46.907 227.218 342.979  0.00  0.00    +0.000 A 
ENDBRANCH  16  18
ENDBRANCH   7  14
BRANCH   8  24
ATOM     24  O   UNL     1      46.834 230.222 347.166  0.00  0.00    +0.000 OA
ATOM     25  H   UNL     1      47.199 230.904 347.775  0.00  0.00    +0.000 HD
ENDBRANCH   8  24
TORSDOF 3
ENDMDL
MODEL 9
REMARK VINA RESULT:      -4.5     19.374     22.407
REMARK  Name = Piroxicam.pdbqt.pdb
REMARK  3 active torsions:
REMARK  status: ('A' for Active; 'I' for Inactive)
REMARK    1  A    between atoms: C_7  and  C_14
REMARK    2  A    between atoms: C_8  and  O_24
REMARK    3  A    between atoms: N_16  and  C_18
REMARK                            x       y       z     vdW  Elec       q    Type
REMARK                         _______ _______ _______ _____ _____    ______ ____
ROOT
ATOM      1  S   UNL     1      71.012 219.939 342.500  0.00  0.00    +0.000 S 
ATOM      2  O   UNL     1      69.952 220.306 343.421  0.00  0.00    +0.000 OA
ATOM      3  O   UNL     1      72.403 220.037 342.896  0.00  0.00    +0.000 OA
ATOM      4  N   UNL     1      70.674 218.369 341.875  0.00  0.00    +0.000 N 
ATOM      5  C   UNL     1      70.786 220.922 341.069  0.00  0.00    +0.000 A 
ATOM      6  C   UNL     1      69.824 220.508 340.150  0.00  0.00    +0.000 A 
ATOM      7  C   UNL     1      69.417 218.285 341.189  0.00  0.00    +0.000 C 
ATOM      8  C   UNL     1      69.017 219.295 340.381  0.00  0.00    +0.000 C 
ATOM      9  C   UNL     1      71.575 222.049 340.876  0.00  0.00    +0.000 A 
ATOM     10  C   UNL     1      71.745 217.648 341.166  0.00  0.00    +0.000 C 
ATOM     11  C   UNL     1      69.637 221.297 339.013  0.00  0.00    +0.000 A 
ATOM     12  C   UNL     1      71.379 222.812 339.730  0.00  0.00    +0.000 A 
ATOM     13  C   UNL     1      70.408 222.441 338.803  0.00  0.00    +0.000 A 
ENDROOT
BRANCH   7  14
ATOM     14  C   UNL     1      68.563 217.071 341.402  0.00  0.00    +0.000 C 
ATOM     15  O   UNL     1      68.390 216.285 340.472  0.00  0.00    +0.000 OA
ATOM     16  N   UNL     1      68.029 216.949 342.659  0.00  0.00    +0.000 N 
ATOM     17  H   UNL     1      68.276 217.609 343.389  0.00  0.00    +0.000 HD
BRANCH  16  18
ATOM     18  C   UNL     1      67.183 215.934 343.108  0.00  0.00    +0.000 A 
ATOM     19  N   UNL     1      67.823 214.831 343.545  0.00  0.00    +0.000 NA
ATOM     20  C   UNL     1      67.050 213.816 343.995  0.00  0.00    +0.000 A 
ATOM     21  C   UNL     1      65.668 213.846 344.034  0.00  0.00    +0.000 A 
ATOM     22  C   UNL     1      65.040 214.997 343.580  0.00  0.00    +0.000 A 
ATOM     23  C   UNL     1      65.801 216.061 343.109  0.00  0.00    +0.000 A 
ENDBRANCH  16  18
ENDBRANCH   7  14
BRANCH   8  24
ATOM     24  O   UNL     1      67.822 219.291 339.681  0.00  0.00    +0.000 OA
ATOM     25  H   UNL     1      67.563 220.216 339.463  0.00  0.00    +0.000 HD
ENDBRANCH   8  24
TORSDOF 3
ENDMDL
