MODEL 1
REMARK VINA RESULT:      -5.4      0.000      0.000
REMARK  Name = PKR_Inhibitor.pdbqt.pdb
REMARK  0 active torsions:
REMARK  status: ('A' for Active; 'I' for Inactive)
REMARK                            x       y       z     vdW  Elec       q    Type
REMARK                         _______ _______ _______ _____ _____    ______ ____
ROOT
ATOM      1  S   UNL     1      57.197 241.988 349.126  0.00  0.00    +0.000 S 
ATOM      2  O   UNL     1      53.322 243.286 345.036  0.00  0.00    +0.000 OA
ATOM      3  N   UNL     1      53.296 241.268 346.233  0.00  0.00    +0.000 N 
ATOM      4  N   UNL     1      56.761 239.645 350.171  0.00  0.00    +0.000 NA
ATOM      5  C   UNL     1      55.098 241.541 347.607  0.00  0.00    +0.000 A 
ATOM      6  C   UNL     1      54.044 240.668 347.234  0.00  0.00    +0.000 A 
ATOM      7  C   UNL     1      54.965 242.757 346.757  0.00  0.00    +0.000 C 
ATOM      8  C   UNL     1      55.913 241.075 348.583  0.00  0.00    +0.000 A 
ATOM      9  C   UNL     1      53.771 242.530 345.876  0.00  0.00    +0.000 C 
ATOM     10  C   UNL     1      55.785 239.855 349.212  0.00  0.00    +0.000 A 
ATOM     11  C   UNL     1      53.812 239.415 347.795  0.00  0.00    +0.000 A 
ATOM     12  C   UNL     1      55.683 243.834 346.719  0.00  0.00    +0.000 C 
ATOM     13  C   UNL     1      54.718 239.020 348.806  0.00  0.00    +0.000 A 
ATOM     14  C   UNL     1      57.548 240.701 350.204  0.00  0.00    +0.000 A 
ATOM     15  H   UNL     1      52.485 240.855 345.792  0.00  0.00    +0.000 HD
ATOM     16  C   UNL     1      56.418 245.039 346.616  0.00  0.00    +0.000 C 
ATOM     17  N   UNL     1      56.131 246.061 345.756  0.00  0.00    +0.000 N 
ATOM     18  C   UNL     1      57.061 247.043 345.955  0.00  0.00    +0.000 C 
ATOM     19  H   UNL     1      55.371 246.093 345.090  0.00  0.00    +0.000 HD
ATOM     20  N   UNL     1      57.921 246.706 346.890  0.00  0.00    +0.000 NA
ATOM     21  C   UNL     1      57.530 245.457 347.310  0.00  0.00    +0.000 C 
ENDROOT
TORSDOF 0
ENDMDL
MODEL 2
REMARK VINA RESULT:      -5.3      2.407      2.894
REMARK  Name = PKR_Inhibitor.pdbqt.pdb
REMARK  0 active torsions:
REMARK  status: ('A' for Active; 'I' for Inactive)
REMARK                            x       y       z     vdW  Elec       q    Type
REMARK                         _______ _______ _______ _____ _____    ______ ____
ROOT
ATOM      1  S   UNL     1      54.965 240.357 350.850  0.00  0.00    +0.000 S 
ATOM      2  O   UNL     1      55.163 242.655 345.549  0.00  0.00    +0.000 OA
ATOM      3  N   UNL     1      53.569 241.060 346.195  0.00  0.00    +0.000 N 
ATOM      4  N   UNL     1      53.027 238.637 351.093  0.00  0.00    +0.000 NA
ATOM      5  C   UNL     1      54.166 240.688 348.366  0.00  0.00    +0.000 A 
ATOM      6  C   UNL     1      53.256 240.339 347.337  0.00  0.00    +0.000 A 
ATOM      7  C   UNL     1      55.096 241.698 347.788  0.00  0.00    +0.000 C 
ATOM      8  C   UNL     1      53.973 240.051 349.546  0.00  0.00    +0.000 A 
ATOM      9  C   UNL     1      54.664 241.908 346.367  0.00  0.00    +0.000 C 
ATOM     10  C   UNL     1      52.985 239.123 349.797  0.00  0.00    +0.000 A 
ATOM     11  C   UNL     1      52.219 239.419 347.469  0.00  0.00    +0.000 A 
ATOM     12  C   UNL     1      56.096 242.319 348.328  0.00  0.00    +0.000 C 
ATOM     13  C   UNL     1      52.100 238.809 348.738  0.00  0.00    +0.000 A 
ATOM     14  C   UNL     1      54.026 239.219 351.725  0.00  0.00    +0.000 A 
ATOM     15  H   UNL     1      53.072 240.998 345.318  0.00  0.00    +0.000 HD
ATOM     16  C   UNL     1      57.202 243.036 348.843  0.00  0.00    +0.000 C 
ATOM     17  N   UNL     1      57.945 243.943 348.140  0.00  0.00    +0.000 N 
ATOM     18  C   UNL     1      58.916 244.419 348.976  0.00  0.00    +0.000 C 
ATOM     19  H   UNL     1      57.808 244.217 347.177  0.00  0.00    +0.000 HD
ATOM     20  N   UNL     1      58.834 243.869 350.168  0.00  0.00    +0.000 NA
ATOM     21  C   UNL     1      57.769 243.005 350.096  0.00  0.00    +0.000 C 
ENDROOT
TORSDOF 0
ENDMDL
MODEL 3
REMARK VINA RESULT:      -5.3     21.614     23.634
REMARK  Name = PKR_Inhibitor.pdbqt.pdb
REMARK  0 active torsions:
REMARK  status: ('A' for Active; 'I' for Inactive)
REMARK                            x       y       z     vdW  Elec       q    Type
REMARK                         _______ _______ _______ _____ _____    ______ ____
ROOT
ATOM      1  S   UNL     1      52.413 246.071 326.442  0.00  0.00    +0.000 S 
ATOM      2  O   UNL     1      53.152 242.007 322.397  0.00  0.00    +0.000 OA
ATOM      3  N   UNL     1      54.292 244.057 322.377  0.00  0.00    +0.000 N 
ATOM      4  N   UNL     1      53.891 248.167 325.997  0.00  0.00    +0.000 NA
ATOM      5  C   UNL     1      53.458 245.049 324.255  0.00  0.00    +0.000 A 
ATOM      6  C   UNL     1      54.345 245.201 323.160  0.00  0.00    +0.000 A 
ATOM      7  C   UNL     1      52.827 243.707 324.111  0.00  0.00    +0.000 C 
ATOM      8  C   UNL     1      53.411 246.102 325.106  0.00  0.00    +0.000 A 
ATOM      9  C   UNL     1      53.405 243.099 322.868  0.00  0.00    +0.000 C 
ATOM     10  C   UNL     1      54.142 247.263 324.979  0.00  0.00    +0.000 A 
ATOM     11  C   UNL     1      55.135 246.322 322.923  0.00  0.00    +0.000 A 
ATOM     12  C   UNL     1      51.952 243.110 324.857  0.00  0.00    +0.000 C 
ATOM     13  C   UNL     1      55.014 247.366 323.869  0.00  0.00    +0.000 A 
ATOM     14  C   UNL     1      53.002 247.639 326.813  0.00  0.00    +0.000 A 
ATOM     15  H   UNL     1      54.830 243.909 321.534  0.00  0.00    +0.000 HD
ATOM     16  C   UNL     1      50.999 242.392 325.617  0.00  0.00    +0.000 C 
ATOM     17  N   UNL     1      50.536 241.142 325.316  0.00  0.00    +0.000 N 
ATOM     18  C   UNL     1      49.634 240.791 326.281  0.00  0.00    +0.000 C 
ATOM     19  H   UNL     1      50.807 240.574 324.524  0.00  0.00    +0.000 HD
ATOM     20  N   UNL     1      49.497 241.743 327.177  0.00  0.00    +0.000 NA
ATOM     21  C   UNL     1      50.343 242.747 326.773  0.00  0.00    +0.000 C 
ENDROOT
TORSDOF 0
ENDMDL
MODEL 4
REMARK VINA RESULT:      -5.2     26.288     27.593
REMARK  Name = PKR_Inhibitor.pdbqt.pdb
REMARK  0 active torsions:
REMARK  status: ('A' for Active; 'I' for Inactive)
REMARK                            x       y       z     vdW  Elec       q    Type
REMARK                         _______ _______ _______ _____ _____    ______ ____
ROOT
ATOM      1  S   UNL     1      68.838 218.649 339.500  0.00  0.00    +0.000 S 
ATOM      2  O   UNL     1      69.479 223.642 336.655  0.00  0.00    +0.000 OA
ATOM      3  N   UNL     1      70.429 223.236 338.762  0.00  0.00    +0.000 N 
ATOM      4  N   UNL     1      70.072 218.670 341.791  0.00  0.00    +0.000 NA
ATOM      5  C   UNL     1      69.722 221.104 339.166  0.00  0.00    +0.000 A 
ATOM      6  C   UNL     1      70.468 222.196 339.677  0.00  0.00    +0.000 A 
ATOM      7  C   UNL     1      69.197 221.531 337.838  0.00  0.00    +0.000 C 
ATOM      8  C   UNL     1      69.677 220.013 339.967  0.00  0.00    +0.000 A 
ATOM      9  C   UNL     1      69.687 222.932 337.620  0.00  0.00    +0.000 C 
ATOM     10  C   UNL     1      70.288 219.902 341.197  0.00  0.00    +0.000 A 
ATOM     11  C   UNL     1      71.128 222.205 340.903  0.00  0.00    +0.000 A 
ATOM     12  C   UNL     1      68.464 220.891 336.984  0.00  0.00    +0.000 C 
ATOM     13  C   UNL     1      71.021 221.018 341.664  0.00  0.00    +0.000 A 
ATOM     14  C   UNL     1      69.326 217.943 340.984  0.00  0.00    +0.000 A 
ATOM     15  H   UNL     1      70.882 224.131 338.884  0.00  0.00    +0.000 HD
ATOM     16  C   UNL     1      67.664 220.261 336.001  0.00  0.00    +0.000 C 
ATOM     17  N   UNL     1      67.281 220.830 334.819  0.00  0.00    +0.000 N 
ATOM     18  C   UNL     1      66.523 219.913 334.145  0.00  0.00    +0.000 C 
ATOM     19  H   UNL     1      67.511 221.759 334.495  0.00  0.00    +0.000 HD
ATOM     20  N   UNL     1      66.402 218.796 334.828  0.00  0.00    +0.000 NA
ATOM     21  C   UNL     1      67.110 219.002 335.988  0.00  0.00    +0.000 C 
ENDROOT
TORSDOF 0
ENDMDL
MODEL 5
REMARK VINA RESULT:      -5.1     21.666     23.837
REMARK  Name = PKR_Inhibitor.pdbqt.pdb
REMARK  0 active torsions:
REMARK  status: ('A' for Active; 'I' for Inactive)
REMARK                            x       y       z     vdW  Elec       q    Type
REMARK                         _______ _______ _______ _____ _____    ______ ____
ROOT
ATOM      1  S   UNL     1      51.393 242.253 322.462  0.00  0.00    +0.000 S 
ATOM      2  O   UNL     1      51.943 242.482 328.213  0.00  0.00    +0.000 OA
ATOM      3  N   UNL     1      53.418 243.559 326.740  0.00  0.00    +0.000 N 
ATOM      4  N   UNL     1      53.262 243.599 321.252  0.00  0.00    +0.000 NA
ATOM      5  C   UNL     1      52.526 242.988 324.719  0.00  0.00    +0.000 A 
ATOM      6  C   UNL     1      53.565 243.700 325.369  0.00  0.00    +0.000 A 
ATOM      7  C   UNL     1      51.694 242.373 325.791  0.00  0.00    +0.000 C 
ATOM      8  C   UNL     1      52.551 243.041 323.366  0.00  0.00    +0.000 A 
ATOM      9  C   UNL     1      52.318 242.776 327.094  0.00  0.00    +0.000 C 
ATOM     10  C   UNL     1      53.485 243.719 322.613  0.00  0.00    +0.000 A 
ATOM     11  C   UNL     1      54.565 244.420 324.720  0.00  0.00    +0.000 A 
ATOM     12  C   UNL     1      50.636 241.632 325.707  0.00  0.00    +0.000 C 
ATOM     13  C   UNL     1      54.503 244.416 323.307  0.00  0.00    +0.000 A 
ATOM     14  C   UNL     1      52.192 242.853 321.068  0.00  0.00    +0.000 A 
ATOM     15  H   UNL     1      54.029 243.970 327.432  0.00  0.00    +0.000 HD
ATOM     16  C   UNL     1      49.478 240.818 325.700  0.00  0.00    +0.000 C 
ATOM     17  N   UNL     1      48.845 240.345 326.816  0.00  0.00    +0.000 N 
ATOM     18  C   UNL     1      47.775 239.603 326.401  0.00  0.00    +0.000 C 
ATOM     19  H   UNL     1      49.115 240.509 327.776  0.00  0.00    +0.000 HD
ATOM     20  N   UNL     1      47.690 239.577 325.089  0.00  0.00    +0.000 NA
ATOM     21  C   UNL     1      48.747 240.331 324.642  0.00  0.00    +0.000 C 
ENDROOT
TORSDOF 0
ENDMDL
MODEL 6
REMARK VINA RESULT:      -5.1     26.979     27.765
REMARK  Name = PKR_Inhibitor.pdbqt.pdb
REMARK  0 active torsions:
REMARK  status: ('A' for Active; 'I' for Inactive)
REMARK                            x       y       z     vdW  Elec       q    Type
REMARK                         _______ _______ _______ _____ _____    ______ ____
ROOT
ATOM      1  S   UNL     1      69.607 222.068 336.985  0.00  0.00    +0.000 S 
ATOM      2  O   UNL     1      66.646 217.750 339.437  0.00  0.00    +0.000 OA
ATOM      3  N   UNL     1      68.425 218.849 340.499  0.00  0.00    +0.000 N 
ATOM      4  N   UNL     1      71.484 222.969 338.545  0.00  0.00    +0.000 NA
ATOM      5  C   UNL     1      69.024 220.370 338.907  0.00  0.00    +0.000 A 
ATOM      6  C   UNL     1      69.307 219.878 340.206  0.00  0.00    +0.000 A 
ATOM      7  C   UNL     1      67.882 219.568 338.386  0.00  0.00    +0.000 C 
ATOM      8  C   UNL     1      69.819 221.385 338.491  0.00  0.00    +0.000 A 
ATOM      9  C   UNL     1      67.526 218.587 339.465  0.00  0.00    +0.000 C 
ATOM     10  C   UNL     1      70.842 221.947 339.223  0.00  0.00    +0.000 A 
ATOM     11  C   UNL     1      70.312 220.361 341.040  0.00  0.00    +0.000 A 
ATOM     12  C   UNL     1      67.261 219.635 337.252  0.00  0.00    +0.000 C 
ATOM     13  C   UNL     1      71.085 221.421 340.515  0.00  0.00    +0.000 A 
ATOM     14  C   UNL     1      70.913 223.111 337.367  0.00  0.00    +0.000 A 
ATOM     15  H   UNL     1      68.414 218.327 341.365  0.00  0.00    +0.000 HD
ATOM     16  C   UNL     1      66.533 219.645 336.038  0.00  0.00    +0.000 C 
ATOM     17  N   UNL     1      65.491 218.811 335.742  0.00  0.00    +0.000 N 
ATOM     18  C   UNL     1      65.054 219.127 334.486  0.00  0.00    +0.000 C 
ATOM     19  H   UNL     1      65.109 218.090 336.338  0.00  0.00    +0.000 HD
ATOM     20  N   UNL     1      65.755 220.110 333.967  0.00  0.00    +0.000 NA
ATOM     21  C   UNL     1      66.681 220.441 334.926  0.00  0.00    +0.000 C 
ENDROOT
TORSDOF 0
ENDMDL
MODEL 7
REMARK VINA RESULT:      -5.1     26.607     27.475
REMARK  Name = PKR_Inhibitor.pdbqt.pdb
REMARK  0 active torsions:
REMARK  status: ('A' for Active; 'I' for Inactive)
REMARK                            x       y       z     vdW  Elec       q    Type
REMARK                         _______ _______ _______ _____ _____    ______ ____
ROOT
ATOM      1  S   UNL     1      70.623 219.837 341.225  0.00  0.00    +0.000 S 
ATOM      2  O   UNL     1      69.857 223.400 336.736  0.00  0.00    +0.000 OA
ATOM      3  N   UNL     1      71.633 223.614 338.254  0.00  0.00    +0.000 N 
ATOM      4  N   UNL     1      72.725 220.470 342.621  0.00  0.00    +0.000 NA
ATOM      5  C   UNL     1      71.219 221.875 339.672  0.00  0.00    +0.000 A 
ATOM      6  C   UNL     1      72.088 222.959 339.388  0.00  0.00    +0.000 A 
ATOM      7  C   UNL     1      70.162 221.888 338.622  0.00  0.00    +0.000 C 
ATOM      8  C   UNL     1      71.550 221.144 340.763  0.00  0.00    +0.000 A 
ATOM      9  C   UNL     1      70.477 223.044 337.719  0.00  0.00    +0.000 C 
ATOM     10  C   UNL     1      72.635 221.379 341.580  0.00  0.00    +0.000 A 
ATOM     11  C   UNL     1      73.212 223.296 340.136  0.00  0.00    +0.000 A 
ATOM     12  C   UNL     1      69.147 221.104 338.448  0.00  0.00    +0.000 C 
ATOM     13  C   UNL     1      73.472 222.472 341.255  0.00  0.00    +0.000 A 
ATOM     14  C   UNL     1      71.720 219.623 342.524  0.00  0.00    +0.000 A 
ATOM     15  H   UNL     1      72.074 224.423 337.838  0.00  0.00    +0.000 HD
ATOM     16  C   UNL     1      68.016 220.293 338.190  0.00  0.00    +0.000 C 
ATOM     17  N   UNL     1      67.146 220.469 337.150  0.00  0.00    +0.000 N 
ATOM     18  C   UNL     1      66.192 219.493 337.239  0.00  0.00    +0.000 C 
ATOM     19  H   UNL     1      67.193 221.188 336.440  0.00  0.00    +0.000 HD
ATOM     20  N   UNL     1      66.405 218.709 338.272  0.00  0.00    +0.000 NA
ATOM     21  C   UNL     1      67.539 219.199 338.873  0.00  0.00    +0.000 C 
ENDROOT
TORSDOF 0
ENDMDL
MODEL 8
REMARK VINA RESULT:      -5.0     28.316     29.406
REMARK  Name = PKR_Inhibitor.pdbqt.pdb
REMARK  0 active torsions:
REMARK  status: ('A' for Active; 'I' for Inactive)
REMARK                            x       y       z     vdW  Elec       q    Type
REMARK                         _______ _______ _______ _____ _____    ______ ____
ROOT
ATOM      1  S   UNL     1      59.609 223.798 323.793  0.00  0.00    +0.000 S 
ATOM      2  O   UNL     1      63.635 225.316 327.656  0.00  0.00    +0.000 OA
ATOM      3  N   UNL     1      61.559 224.404 328.259  0.00  0.00    +0.000 N 
ATOM      4  N   UNL     1      57.479 222.835 324.936  0.00  0.00    +0.000 NA
ATOM      5  C   UNL     1      60.596 224.096 326.213  0.00  0.00    +0.000 A 
ATOM      6  C   UNL     1      60.419 223.952 327.612  0.00  0.00    +0.000 A 
ATOM      7  C   UNL     1      61.951 224.683 326.012  0.00  0.00    +0.000 C 
ATOM      8  C   UNL     1      59.549 223.689 325.456  0.00  0.00    +0.000 A 
ATOM      9  C   UNL     1      62.540 224.865 327.380  0.00  0.00    +0.000 C 
ATOM     10  C   UNL     1      58.371 223.164 325.942  0.00  0.00    +0.000 A 
ATOM     11  C   UNL     1      59.278 223.436 328.222  0.00  0.00    +0.000 A 
ATOM     12  C   UNL     1      62.572 225.000 324.921  0.00  0.00    +0.000 C 
ATOM     13  C   UNL     1      58.243 223.039 327.345  0.00  0.00    +0.000 A 
ATOM     14  C   UNL     1      58.031 223.127 323.776  0.00  0.00    +0.000 A 
ATOM     15  H   UNL     1      61.691 224.410 329.261  0.00  0.00    +0.000 HD
ATOM     16  C   UNL     1      63.315 225.374 323.777  0.00  0.00    +0.000 C 
ATOM     17  N   UNL     1      64.574 225.906 323.798  0.00  0.00    +0.000 N 
ATOM     18  C   UNL     1      64.950 226.131 322.503  0.00  0.00    +0.000 C 
ATOM     19  H   UNL     1      65.131 226.101 324.619  0.00  0.00    +0.000 HD
ATOM     20  N   UNL     1      64.006 225.774 321.661  0.00  0.00    +0.000 NA
ATOM     21  C   UNL     1      62.981 225.300 322.444  0.00  0.00    +0.000 C 
ENDROOT
TORSDOF 0
ENDMDL
MODEL 9
REMARK VINA RESULT:      -5.0     19.087     21.152
REMARK  Name = PKR_Inhibitor.pdbqt.pdb
REMARK  0 active torsions:
REMARK  status: ('A' for Active; 'I' for Inactive)
REMARK                            x       y       z     vdW  Elec       q    Type
REMARK                         _______ _______ _______ _____ _____    ______ ____
ROOT
ATOM      1  S   UNL     1      52.409 247.997 327.097  0.00  0.00    +0.000 S 
ATOM      2  O   UNL     1      52.450 242.311 328.142  0.00  0.00    +0.000 OA
ATOM      3  N   UNL     1      53.392 243.267 326.218  0.00  0.00    +0.000 N 
ATOM      4  N   UNL     1      53.572 248.580 324.844  0.00  0.00    +0.000 NA
ATOM      5  C   UNL     1      52.967 245.482 326.567  0.00  0.00    +0.000 A 
ATOM      6  C   UNL     1      53.547 244.537 325.684  0.00  0.00    +0.000 A 
ATOM      7  C   UNL     1      52.422 244.710 327.720  0.00  0.00    +0.000 C 
ATOM      8  C   UNL     1      53.047 246.772 326.163  0.00  0.00    +0.000 A 
ATOM      9  C   UNL     1      52.726 243.267 327.444  0.00  0.00    +0.000 C 
ATOM     10  C   UNL     1      53.636 247.206 324.995  0.00  0.00    +0.000 A 
ATOM     11  C   UNL     1      54.169 244.851 324.478  0.00  0.00    +0.000 A 
ATOM     12  C   UNL     1      51.802 245.118 328.781  0.00  0.00    +0.000 C 
ATOM     13  C   UNL     1      54.203 246.225 324.147  0.00  0.00    +0.000 A 
ATOM     14  C   UNL     1      52.950 249.087 325.889  0.00  0.00    +0.000 A 
ATOM     15  H   UNL     1      53.719 242.414 325.785  0.00  0.00    +0.000 HD
ATOM     16  C   UNL     1      51.119 245.482 329.965  0.00  0.00    +0.000 C 
ATOM     17  N   UNL     1      50.693 244.608 330.926  0.00  0.00    +0.000 N 
ATOM     18  C   UNL     1      50.081 245.337 331.907  0.00  0.00    +0.000 C 
ATOM     19  H   UNL     1      50.805 243.603 330.918  0.00  0.00    +0.000 HD
ATOM     20  N   UNL     1      50.093 246.621 331.628  0.00  0.00    +0.000 NA
ATOM     21  C   UNL     1      50.738 246.724 330.419  0.00  0.00    +0.000 C 
ENDROOT
TORSDOF 0
ENDMDL
