MODEL 1
REMARK VINA RESULT:      -6.6      0.000      0.000
REMARK  Name = 
REMARK  14 active torsions:
REMARK  status: ('A' for Active; 'I' for Inactive)
REMARK    1  A    between atoms: O_1  and  C_14
REMARK    2  A    between atoms: O_1  and  C_15
REMARK    3  A    between atoms: O_4  and  C_16
REMARK    4  A    between atoms: O_5  and  C_18
REMARK    5  A    between atoms: O_6  and  C_26
REMARK    6  A    between atoms: O_7  and  C_29
REMARK    7  A    between atoms: O_8  and  C_35
REMARK    8  A    between atoms: O_9  and  C_36
REMARK    9  A    between atoms: O_10  and  C_39
REMARK   10  A    between atoms: O_11  and  C_40
REMARK   11  A    between atoms: O_12  and  C_41
REMARK   12  A    between atoms: O_13  and  C_43
REMARK   13  A    between atoms: C_14  and  C_20
REMARK   14  A    between atoms: C_17  and  C_24
REMARK                            x       y       z     vdW  Elec       q    Type
REMARK                         _______ _______ _______ _____ _____    ______ ____
ROOT
ATOM      1  O   UNL     1      43.767 234.148 325.790  0.00  0.00    +0.000 OA
ATOM      2  C   UNL     1      43.685 234.039 324.362  0.00  0.00    +0.000 C 
ATOM      3  C   UNL     1      42.244 234.357 323.857  0.00  0.00    +0.000 C 
ATOM      4  C   UNL     1      41.225 233.458 324.551  0.00  0.00    +0.000 C 
ATOM      5  C   UNL     1      41.444 233.430 326.034  0.00  0.00    +0.000 A 
ATOM      6  C   UNL     1      42.699 233.764 326.551  0.00  0.00    +0.000 A 
ATOM      7  C   UNL     1      40.441 233.036 326.932  0.00  0.00    +0.000 A 
ATOM      8  C   UNL     1      42.934 233.723 327.928  0.00  0.00    +0.000 A 
ATOM      9  C   UNL     1      40.671 232.972 328.303  0.00  0.00    +0.000 A 
ATOM     10  C   UNL     1      41.921 233.322 328.791  0.00  0.00    +0.000 A 
ENDROOT
BRANCH   2  11
ATOM     11  C   UNL     1      44.166 232.673 323.835  0.00  0.00    +0.000 A 
ATOM     12  C   UNL     1      44.743 231.727 324.711  0.00  0.00    +0.000 A 
ATOM     13  C   UNL     1      44.033 232.323 322.475  0.00  0.00    +0.000 A 
ATOM     14  C   UNL     1      45.173 230.495 324.229  0.00  0.00    +0.000 A 
ATOM     15  C   UNL     1      44.482 231.088 321.998  0.00  0.00    +0.000 A 
ATOM     16  C   UNL     1      45.054 230.188 322.879  0.00  0.00    +0.000 A 
BRANCH  14  17
ATOM     17  O   UNL     1      45.717 229.539 325.041  0.00  0.00    +0.000 OA
ATOM     18  H   UNL     1      45.798 228.698 324.547  0.00  0.00    +0.000 HD
ENDBRANCH  14  17
BRANCH  16  19
ATOM     19  O   UNL     1      45.488 228.980 322.414  0.00  0.00    +0.000 OA
ATOM     20  H   UNL     1      44.679 228.544 322.076  0.00  0.00    +0.000 HD
ENDBRANCH  16  19
ENDBRANCH   2  11
BRANCH   3  21
ATOM     21  O   UNL     1      41.874 235.744 324.099  0.00  0.00    +0.000 OA
ATOM     22  H   UNL     1      42.696 236.252 323.952  0.00  0.00    +0.000 HD
ENDBRANCH   3  21
BRANCH   4  23
ATOM     23  O   UNL     1      39.897 233.937 324.274  0.00  0.00    +0.000 OA
ATOM     24  H   UNL     1      40.010 234.509 323.482  0.00  0.00    +0.000 HD
ENDBRANCH   4  23
BRANCH   7  25
ATOM     25  O   UNL     1      39.180 232.714 326.503  0.00  0.00    +0.000 OA
ATOM     26  H   UNL     1      38.716 233.559 326.311  0.00  0.00    +0.000 HD
ENDBRANCH   7  25
BRANCH  10  27
ATOM     27  O   UNL     1      42.199 233.286 330.127  0.00  0.00    +0.000 OA
ATOM     28  H   UNL     1      42.039 232.383 330.449  0.00  0.00    +0.000 HD
ENDBRANCH  10  27
BRANCH   2  29
ATOM     29  O   UNL     1      44.481 235.109 323.778  0.00  0.00    +0.000 OA
BRANCH  29  31
ATOM     30  O   UNL     1      47.821 236.500 324.578  0.00  0.00    +0.000 OA
ATOM     31  C   UNL     1      45.472 235.725 324.624  0.00  0.00    +0.000 C 
ATOM     32  C   UNL     1      46.755 235.957 323.787  0.00  0.00    +0.000 C 
ATOM     33  C   UNL     1      45.007 237.091 325.140  0.00  0.00    +0.000 C 
ATOM     34  C   UNL     1      46.151 237.953 325.595  0.00  0.00    +0.000 A 
ATOM     35  C   UNL     1      47.474 237.612 325.295  0.00  0.00    +0.000 A 
ATOM     36  C   UNL     1      45.914 239.123 326.326  0.00  0.00    +0.000 A 
ATOM     37  C   UNL     1      48.536 238.394 325.753  0.00  0.00    +0.000 A 
ATOM     38  C   UNL     1      46.965 239.921 326.775  0.00  0.00    +0.000 A 
ATOM     39  C   UNL     1      48.270 239.544 326.488  0.00  0.00    +0.000 A 
BRANCH  32  40
ATOM     40  C   UNL     1      47.255 234.654 323.177  0.00  0.00    +0.000 A 
ATOM     41  C   UNL     1      47.699 233.599 323.990  0.00  0.00    +0.000 A 
ATOM     42  C   UNL     1      47.200 234.464 321.784  0.00  0.00    +0.000 A 
ATOM     43  C   UNL     1      48.029 232.372 323.419  0.00  0.00    +0.000 A 
ATOM     44  C   UNL     1      47.551 233.238 321.216  0.00  0.00    +0.000 A 
ATOM     45  C   UNL     1      47.950 232.190 322.039  0.00  0.00    +0.000 A 
BRANCH  43  46
ATOM     46  O   UNL     1      48.369 231.314 324.212  0.00  0.00    +0.000 OA
ATOM     47  H   UNL     1      48.242 230.489 323.714  0.00  0.00    +0.000 HD
ENDBRANCH  43  46
BRANCH  45  48
ATOM     48  O   UNL     1      48.238 230.964 321.511  0.00  0.00    +0.000 OA
ATOM     49  H   UNL     1      49.201 230.844 321.494  0.00  0.00    +0.000 HD
ENDBRANCH  45  48
ENDBRANCH  32  40
BRANCH  36  50
ATOM     50  O   UNL     1      44.621 239.473 326.599  0.00  0.00    +0.000 OA
ATOM     51  H   UNL     1      44.258 239.954 325.837  0.00  0.00    +0.000 HD
ENDBRANCH  36  50
BRANCH  39  52
ATOM     52  O   UNL     1      49.277 240.342 326.948  0.00  0.00    +0.000 OA
ATOM     53  H   UNL     1      48.943 241.253 327.023  0.00  0.00    +0.000 HD
ENDBRANCH  39  52
ENDBRANCH  29  31
ENDBRANCH   2  29
TORSDOF 14
ENDMDL
MODEL 2
REMARK VINA RESULT:      -5.9      3.261      7.424
REMARK  Name = 
REMARK  14 active torsions:
REMARK  status: ('A' for Active; 'I' for Inactive)
REMARK    1  A    between atoms: O_1  and  C_14
REMARK    2  A    between atoms: O_1  and  C_15
REMARK    3  A    between atoms: O_4  and  C_16
REMARK    4  A    between atoms: O_5  and  C_18
REMARK    5  A    between atoms: O_6  and  C_26
REMARK    6  A    between atoms: O_7  and  C_29
REMARK    7  A    between atoms: O_8  and  C_35
REMARK    8  A    between atoms: O_9  and  C_36
REMARK    9  A    between atoms: O_10  and  C_39
REMARK   10  A    between atoms: O_11  and  C_40
REMARK   11  A    between atoms: O_12  and  C_41
REMARK   12  A    between atoms: O_13  and  C_43
REMARK   13  A    between atoms: C_14  and  C_20
REMARK   14  A    between atoms: C_17  and  C_24
REMARK                            x       y       z     vdW  Elec       q    Type
REMARK                         _______ _______ _______ _____ _____    ______ ____
ROOT
ATOM      1  O   UNL     1      47.779 235.550 321.942  0.00  0.00    +0.000 OA
ATOM      2  C   UNL     1      47.751 235.734 323.364  0.00  0.00    +0.000 C 
ATOM      3  C   UNL     1      48.393 234.519 324.100  0.00  0.00    +0.000 C 
ATOM      4  C   UNL     1      47.709 233.220 323.686  0.00  0.00    +0.000 C 
ATOM      5  C   UNL     1      47.571 233.129 322.196  0.00  0.00    +0.000 A 
ATOM      6  C   UNL     1      47.603 234.296 321.428  0.00  0.00    +0.000 A 
ATOM      7  C   UNL     1      47.366 231.907 321.536  0.00  0.00    +0.000 A 
ATOM      8  C   UNL     1      47.453 234.238 320.040  0.00  0.00    +0.000 A 
ATOM      9  C   UNL     1      47.195 231.841 320.156  0.00  0.00    +0.000 A 
ATOM     10  C   UNL     1      47.246 233.013 319.417  0.00  0.00    +0.000 A 
ENDROOT
BRANCH   2  11
ATOM     11  C   UNL     1      46.337 236.022 323.905  0.00  0.00    +0.000 A 
ATOM     12  C   UNL     1      45.943 235.552 325.178  0.00  0.00    +0.000 A 
ATOM     13  C   UNL     1      45.403 236.770 323.157  0.00  0.00    +0.000 A 
ATOM     14  C   UNL     1      44.666 235.818 325.661  0.00  0.00    +0.000 A 
ATOM     15  C   UNL     1      44.117 237.019 323.645  0.00  0.00    +0.000 A 
ATOM     16  C   UNL     1      43.759 236.535 324.890  0.00  0.00    +0.000 A 
BRANCH  14  17
ATOM     17  O   UNL     1      44.247 235.403 326.894  0.00  0.00    +0.000 OA
ATOM     18  H   UNL     1      44.858 235.745 327.578  0.00  0.00    +0.000 HD
ENDBRANCH  14  17
BRANCH  16  19
ATOM     19  O   UNL     1      42.504 236.782 325.369  0.00  0.00    +0.000 OA
ATOM     20  H   UNL     1      41.984 237.025 324.575  0.00  0.00    +0.000 HD
ENDBRANCH  16  19
ENDBRANCH   2  11
BRANCH   3  21
ATOM     21  O   UNL     1      49.816 234.398 323.816  0.00  0.00    +0.000 OA
ATOM     22  H   UNL     1      49.906 234.647 322.874  0.00  0.00    +0.000 HD
ENDBRANCH   3  21
BRANCH   4  23
ATOM     23  O   UNL     1      48.475 232.101 324.164  0.00  0.00    +0.000 OA
ATOM     24  H   UNL     1      48.227 231.366 323.559  0.00  0.00    +0.000 HD
ENDBRANCH   4  23
BRANCH   7  25
ATOM     25  O   UNL     1      47.343 230.719 322.217  0.00  0.00    +0.000 OA
ATOM     26  H   UNL     1      47.425 230.002 321.550  0.00  0.00    +0.000 HD
ENDBRANCH   7  25
BRANCH  10  27
ATOM     27  O   UNL     1      47.094 233.005 318.061  0.00  0.00    +0.000 OA
ATOM     28  H   UNL     1      47.108 232.082 317.756  0.00  0.00    +0.000 HD
ENDBRANCH  10  27
BRANCH   2  29
ATOM     29  O   UNL     1      48.646 236.832 323.698  0.00  0.00    +0.000 OA
BRANCH  29  31
ATOM     30  O   UNL     1      48.726 240.444 322.878  0.00  0.00    +0.000 OA
ATOM     31  C   UNL     1      48.642 237.973 322.818  0.00  0.00    +0.000 C 
ATOM     32  C   UNL     1      48.798 239.253 323.675  0.00  0.00    +0.000 C 
ATOM     33  C   UNL     1      49.814 237.933 321.832  0.00  0.00    +0.000 C 
ATOM     34  C   UNL     1      50.125 239.286 321.255  0.00  0.00    +0.000 A 
ATOM     35  C   UNL     1      49.569 240.447 321.801  0.00  0.00    +0.000 A 
ATOM     36  C   UNL     1      50.986 239.411 320.158  0.00  0.00    +0.000 A 
ATOM     37  C   UNL     1      49.830 241.698 321.237  0.00  0.00    +0.000 A 
ATOM     38  C   UNL     1      51.267 240.655 319.597  0.00  0.00    +0.000 A 
ATOM     39  C   UNL     1      50.679 241.790 320.141  0.00  0.00    +0.000 A 
BRANCH  32  40
ATOM     40  C   UNL     1      47.705 239.344 324.732  0.00  0.00    +0.000 A 
ATOM     41  C   UNL     1      47.884 238.782 326.006  0.00  0.00    +0.000 A 
ATOM     42  C   UNL     1      46.530 240.070 324.466  0.00  0.00    +0.000 A 
ATOM     43  C   UNL     1      46.927 238.988 326.997  0.00  0.00    +0.000 A 
ATOM     44  C   UNL     1      45.565 240.257 325.459  0.00  0.00    +0.000 A 
ATOM     45  C   UNL     1      45.777 239.727 326.728  0.00  0.00    +0.000 A 
BRANCH  43  46
ATOM     46  O   UNL     1      47.140 238.526 328.264  0.00  0.00    +0.000 OA
ATOM     47  H   UNL     1      47.465 239.255 328.819  0.00  0.00    +0.000 HD
ENDBRANCH  43  46
BRANCH  45  48
ATOM     48  O   UNL     1      44.878 239.951 327.731  0.00  0.00    +0.000 OA
ATOM     49  H   UNL     1      44.398 239.127 327.916  0.00  0.00    +0.000 HD
ENDBRANCH  45  48
ENDBRANCH  32  40
BRANCH  36  50
ATOM     50  O   UNL     1      51.551 238.280 319.638  0.00  0.00    +0.000 OA
ATOM     51  H   UNL     1      50.844 237.659 319.394  0.00  0.00    +0.000 HD
ENDBRANCH  36  50
BRANCH  39  52
ATOM     52  O   UNL     1      50.968 242.992 319.564  0.00  0.00    +0.000 OA
ATOM     53  H   UNL     1      51.410 243.556 320.222  0.00  0.00    +0.000 HD
ENDBRANCH  39  52
ENDBRANCH  29  31
ENDBRANCH   2  29
TORSDOF 14
ENDMDL
MODEL 3
REMARK VINA RESULT:      -5.8     23.268     26.893
REMARK  Name = 
REMARK  14 active torsions:
REMARK  status: ('A' for Active; 'I' for Inactive)
REMARK    1  A    between atoms: O_1  and  C_14
REMARK    2  A    between atoms: O_1  and  C_15
REMARK    3  A    between atoms: O_4  and  C_16
REMARK    4  A    between atoms: O_5  and  C_18
REMARK    5  A    between atoms: O_6  and  C_26
REMARK    6  A    between atoms: O_7  and  C_29
REMARK    7  A    between atoms: O_8  and  C_35
REMARK    8  A    between atoms: O_9  and  C_36
REMARK    9  A    between atoms: O_10  and  C_39
REMARK   10  A    between atoms: O_11  and  C_40
REMARK   11  A    between atoms: O_12  and  C_41
REMARK   12  A    between atoms: O_13  and  C_43
REMARK   13  A    between atoms: C_14  and  C_20
REMARK   14  A    between atoms: C_17  and  C_24
REMARK                            x       y       z     vdW  Elec       q    Type
REMARK                         _______ _______ _______ _____ _____    ______ ____
ROOT
ATOM      1  O   UNL     1      67.503 241.958 332.348  0.00  0.00    +0.000 OA
ATOM      2  C   UNL     1      66.837 242.029 333.616  0.00  0.00    +0.000 C 
ATOM      3  C   UNL     1      65.294 242.162 333.432  0.00  0.00    +0.000 C 
ATOM      4  C   UNL     1      64.963 243.364 332.553  0.00  0.00    +0.000 C 
ATOM      5  C   UNL     1      65.808 243.382 331.314  0.00  0.00    +0.000 A 
ATOM      6  C   UNL     1      67.022 242.690 331.299  0.00  0.00    +0.000 A 
ATOM      7  C   UNL     1      65.445 244.109 330.171  0.00  0.00    +0.000 A 
ATOM      8  C   UNL     1      67.838 242.712 330.165  0.00  0.00    +0.000 A 
ATOM      9  C   UNL     1      66.261 244.154 329.044  0.00  0.00    +0.000 A 
ATOM     10  C   UNL     1      67.454 243.447 329.050  0.00  0.00    +0.000 A 
ENDROOT
BRANCH   2  11
ATOM     11  C   UNL     1      67.384 243.149 334.520  0.00  0.00    +0.000 A 
ATOM     12  C   UNL     1      68.665 243.700 334.290  0.00  0.00    +0.000 A 
ATOM     13  C   UNL     1      66.622 243.668 335.589  0.00  0.00    +0.000 A 
ATOM     14  C   UNL     1      69.151 244.713 335.110  0.00  0.00    +0.000 A 
ATOM     15  C   UNL     1      67.126 244.676 336.416  0.00  0.00    +0.000 A 
ATOM     16  C   UNL     1      68.389 245.184 336.172  0.00  0.00    +0.000 A 
BRANCH  14  17
ATOM     17  O   UNL     1      70.374 245.290 334.914  0.00  0.00    +0.000 OA
ATOM     18  H   UNL     1      70.601 245.847 335.686  0.00  0.00    +0.000 HD
ENDBRANCH  14  17
BRANCH  16  19
ATOM     19  O   UNL     1      68.880 246.173 336.976  0.00  0.00    +0.000 OA
ATOM     20  H   UNL     1      69.236 245.698 337.755  0.00  0.00    +0.000 HD
ENDBRANCH  16  19
ENDBRANCH   2  11
BRANCH   3  21
ATOM     21  O   UNL     1      64.712 240.974 332.824  0.00  0.00    +0.000 OA
ATOM     22  H   UNL     1      65.450 240.334 332.766  0.00  0.00    +0.000 HD
ENDBRANCH   3  21
BRANCH   4  23
ATOM     23  O   UNL     1      63.574 243.318 332.181  0.00  0.00    +0.000 OA
ATOM     24  H   UNL     1      63.351 244.252 331.972  0.00  0.00    +0.000 HD
ENDBRANCH   4  23
BRANCH   7  25
ATOM     25  O   UNL     1      64.262 244.795 330.102  0.00  0.00    +0.000 OA
ATOM     26  H   UNL     1      63.595 244.271 330.599  0.00  0.00    +0.000 HD
ENDBRANCH   7  25
BRANCH  10  27
ATOM     27  O   UNL     1      68.287 243.449 327.969  0.00  0.00    +0.000 OA
ATOM     28  H   UNL     1      67.937 244.075 327.313  0.00  0.00    +0.000 HD
ENDBRANCH  10  27
BRANCH   2  29
ATOM     29  O   UNL     1      66.979 240.739 334.276  0.00  0.00    +0.000 OA
BRANCH  29  31
ATOM     30  O   UNL     1      69.361 239.328 336.738  0.00  0.00    +0.000 OA
ATOM     31  C   UNL     1      68.284 240.406 334.789  0.00  0.00    +0.000 C 
ATOM     32  C   UNL     1      68.104 239.632 336.119  0.00  0.00    +0.000 C 
ATOM     33  C   UNL     1      69.055 239.496 333.828  0.00  0.00    +0.000 C 
ATOM     34  C   UNL     1      70.167 238.750 334.513  0.00  0.00    +0.000 A 
ATOM     35  C   UNL     1      70.257 238.711 335.908  0.00  0.00    +0.000 A 
ATOM     36  C   UNL     1      71.135 238.070 333.763  0.00  0.00    +0.000 A 
ATOM     37  C   UNL     1      71.314 238.050 336.539  0.00  0.00    +0.000 A 
ATOM     38  C   UNL     1      72.185 237.393 334.381  0.00  0.00    +0.000 A 
ATOM     39  C   UNL     1      72.267 237.395 335.768  0.00  0.00    +0.000 A 
BRANCH  32  40
ATOM     40  C   UNL     1      67.286 240.440 337.119  0.00  0.00    +0.000 A 
ATOM     41  C   UNL     1      65.899 240.260 337.230  0.00  0.00    +0.000 A 
ATOM     42  C   UNL     1      67.933 241.321 338.004  0.00  0.00    +0.000 A 
ATOM     43  C   UNL     1      65.191 240.913 338.237  0.00  0.00    +0.000 A 
ATOM     44  C   UNL     1      67.215 241.988 339.000  0.00  0.00    +0.000 A 
ATOM     45  C   UNL     1      65.847 241.768 339.122  0.00  0.00    +0.000 A 
BRANCH  43  46
ATOM     46  O   UNL     1      63.859 240.669 338.411  0.00  0.00    +0.000 OA
ATOM     47  H   UNL     1      63.663 240.636 339.362  0.00  0.00    +0.000 HD
ENDBRANCH  43  46
BRANCH  45  48
ATOM     48  O   UNL     1      65.136 242.360 340.127  0.00  0.00    +0.000 OA
ATOM     49  H   UNL     1      65.383 241.952 340.973  0.00  0.00    +0.000 HD
ENDBRANCH  45  48
ENDBRANCH  32  40
BRANCH  36  50
ATOM     50  O   UNL     1      71.036 238.085 332.400  0.00  0.00    +0.000 OA
ATOM     51  H   UNL     1      70.283 237.530 332.134  0.00  0.00    +0.000 HD
ENDBRANCH  36  50
BRANCH  39  52
ATOM     52  O   UNL     1      73.311 236.730 336.342  0.00  0.00    +0.000 OA
ATOM     53  H   UNL     1      73.335 235.824 335.989  0.00  0.00    +0.000 HD
ENDBRANCH  39  52
ENDBRANCH  29  31
ENDBRANCH   2  29
TORSDOF 14
ENDMDL
MODEL 4
REMARK VINA RESULT:      -5.7     10.583     15.509
REMARK  Name = 
REMARK  14 active torsions:
REMARK  status: ('A' for Active; 'I' for Inactive)
REMARK    1  A    between atoms: O_1  and  C_14
REMARK    2  A    between atoms: O_1  and  C_15
REMARK    3  A    between atoms: O_4  and  C_16
REMARK    4  A    between atoms: O_5  and  C_18
REMARK    5  A    between atoms: O_6  and  C_26
REMARK    6  A    between atoms: O_7  and  C_29
REMARK    7  A    between atoms: O_8  and  C_35
REMARK    8  A    between atoms: O_9  and  C_36
REMARK    9  A    between atoms: O_10  and  C_39
REMARK   10  A    between atoms: O_11  and  C_40
REMARK   11  A    between atoms: O_12  and  C_41
REMARK   12  A    between atoms: O_13  and  C_43
REMARK   13  A    between atoms: C_14  and  C_20
REMARK   14  A    between atoms: C_17  and  C_24
REMARK                            x       y       z     vdW  Elec       q    Type
REMARK                         _______ _______ _______ _____ _____    ______ ____
ROOT
ATOM      1  O   UNL     1      53.154 247.372 327.161  0.00  0.00    +0.000 OA
ATOM      2  C   UNL     1      51.822 247.232 326.648  0.00  0.00    +0.000 C 
ATOM      3  C   UNL     1      51.092 248.608 326.598  0.00  0.00    +0.000 C 
ATOM      4  C   UNL     1      51.099 249.267 327.974  0.00  0.00    +0.000 C 
ATOM      5  C   UNL     1      52.468 249.235 328.586  0.00  0.00    +0.000 A 
ATOM      6  C   UNL     1      53.396 248.286 328.148  0.00  0.00    +0.000 A 
ATOM      7  C   UNL     1      52.846 250.102 329.622  0.00  0.00    +0.000 A 
ATOM      8  C   UNL     1      54.669 248.221 328.720  0.00  0.00    +0.000 A 
ATOM      9  C   UNL     1      54.105 250.032 330.211  0.00  0.00    +0.000 A 
ATOM     10  C   UNL     1      55.012 249.090 329.749  0.00  0.00    +0.000 A 
ENDROOT
BRANCH   2  11
ATOM     11  C   UNL     1      50.987 246.192 327.419  0.00  0.00    +0.000 A 
ATOM     12  C   UNL     1      51.463 245.643 328.632  0.00  0.00    +0.000 A 
ATOM     13  C   UNL     1      49.725 245.769 326.951  0.00  0.00    +0.000 A 
ATOM     14  C   UNL     1      50.702 244.706 329.324  0.00  0.00    +0.000 A 
ATOM     15  C   UNL     1      48.975 244.817 327.647  0.00  0.00    +0.000 A 
ATOM     16  C   UNL     1      49.474 244.289 328.823  0.00  0.00    +0.000 A 
BRANCH  14  17
ATOM     17  O   UNL     1      51.110 244.163 330.510  0.00  0.00    +0.000 OA
ATOM     18  H   UNL     1      52.072 243.985 330.474  0.00  0.00    +0.000 HD
ENDBRANCH  14  17
BRANCH  16  19
ATOM     19  O   UNL     1      48.740 243.362 329.506  0.00  0.00    +0.000 OA
ATOM     20  H   UNL     1      47.876 243.797 329.655  0.00  0.00    +0.000 HD
ENDBRANCH  16  19
ENDBRANCH   2  11
BRANCH   3  21
ATOM     21  O   UNL     1      51.712 249.522 325.649  0.00  0.00    +0.000 OA
ATOM     22  H   UNL     1      51.648 249.067 324.785  0.00  0.00    +0.000 HD
ENDBRANCH   3  21
BRANCH   4  23
ATOM     23  O   UNL     1      50.663 250.632 327.855  0.00  0.00    +0.000 OA
ATOM     24  H   UNL     1      51.161 251.105 328.558  0.00  0.00    +0.000 HD
ENDBRANCH   4  23
BRANCH   7  25
ATOM     25  O   UNL     1      52.000 251.072 330.090  0.00  0.00    +0.000 OA
ATOM     26  H   UNL     1      51.089 250.810 329.833  0.00  0.00    +0.000 HD
ENDBRANCH   7  25
BRANCH  10  27
ATOM     27  O   UNL     1      56.262 248.984 330.284  0.00  0.00    +0.000 OA
ATOM     28  H   UNL     1      56.534 249.860 330.606  0.00  0.00    +0.000 HD
ENDBRANCH  10  27
BRANCH   2  29
ATOM     29  O   UNL     1      51.913 246.857 325.244  0.00  0.00    +0.000 OA
BRANCH  29  31
ATOM     30  O   UNL     1      54.280 244.686 323.398  0.00  0.00    +0.000 OA
ATOM     31  C   UNL     1      53.207 246.453 324.756  0.00  0.00    +0.000 C 
ATOM     32  C   UNL     1      53.025 245.200 323.865  0.00  0.00    +0.000 C 
ATOM     33  C   UNL     1      53.853 247.542 323.892  0.00  0.00    +0.000 C 
ATOM     34  C   UNL     1      54.928 246.998 322.993  0.00  0.00    +0.000 A 
ATOM     35  C   UNL     1      55.080 245.622 322.802  0.00  0.00    +0.000 A 
ATOM     36  C   UNL     1      55.799 247.865 322.320  0.00  0.00    +0.000 A 
ATOM     37  C   UNL     1      56.105 245.120 321.997  0.00  0.00    +0.000 A 
ATOM     38  C   UNL     1      56.814 247.377 321.501  0.00  0.00    +0.000 A 
ATOM     39  C   UNL     1      56.962 246.004 321.352  0.00  0.00    +0.000 A 
BRANCH  32  40
ATOM     40  C   UNL     1      52.327 244.080 324.626  0.00  0.00    +0.000 A 
ATOM     41  C   UNL     1      52.865 243.575 325.820  0.00  0.00    +0.000 A 
ATOM     42  C   UNL     1      51.084 243.597 324.180  0.00  0.00    +0.000 A 
ATOM     43  C   UNL     1      52.147 242.644 326.567  0.00  0.00    +0.000 A 
ATOM     44  C   UNL     1      50.377 242.649 324.924  0.00  0.00    +0.000 A 
ATOM     45  C   UNL     1      50.906 242.188 326.125  0.00  0.00    +0.000 A 
BRANCH  43  46
ATOM     46  O   UNL     1      52.620 242.220 327.776  0.00  0.00    +0.000 OA
ATOM     47  H   UNL     1      52.262 242.791 328.476  0.00  0.00    +0.000 HD
ENDBRANCH  43  46
BRANCH  45  48
ATOM     48  O   UNL     1      50.204 241.309 326.900  0.00  0.00    +0.000 OA
ATOM     49  H   UNL     1      50.808 240.897 327.539  0.00  0.00    +0.000 HD
ENDBRANCH  45  48
ENDBRANCH  32  40
BRANCH  36  50
ATOM     50  O   UNL     1      55.637 249.212 322.485  0.00  0.00    +0.000 OA
ATOM     51  H   UNL     1      55.188 249.573 321.702  0.00  0.00    +0.000 HD
ENDBRANCH  36  50
BRANCH  39  52
ATOM     52  O   UNL     1      57.971 245.558 320.549  0.00  0.00    +0.000 OA
ATOM     53  H   UNL     1      58.282 244.701 320.887  0.00  0.00    +0.000 HD
ENDBRANCH  39  52
ENDBRANCH  29  31
ENDBRANCH   2  29
TORSDOF 14
ENDMDL
MODEL 5
REMARK VINA RESULT:      -5.5     27.966     31.358
REMARK  Name = 
REMARK  14 active torsions:
REMARK  status: ('A' for Active; 'I' for Inactive)
REMARK    1  A    between atoms: O_1  and  C_14
REMARK    2  A    between atoms: O_1  and  C_15
REMARK    3  A    between atoms: O_4  and  C_16
REMARK    4  A    between atoms: O_5  and  C_18
REMARK    5  A    between atoms: O_6  and  C_26
REMARK    6  A    between atoms: O_7  and  C_29
REMARK    7  A    between atoms: O_8  and  C_35
REMARK    8  A    between atoms: O_9  and  C_36
REMARK    9  A    between atoms: O_10  and  C_39
REMARK   10  A    between atoms: O_11  and  C_40
REMARK   11  A    between atoms: O_12  and  C_41
REMARK   12  A    between atoms: O_13  and  C_43
REMARK   13  A    between atoms: C_14  and  C_20
REMARK   14  A    between atoms: C_17  and  C_24
REMARK                            x       y       z     vdW  Elec       q    Type
REMARK                         _______ _______ _______ _____ _____    ______ ____
ROOT
ATOM      1  O   UNL     1      69.069 220.148 334.686  0.00  0.00    +0.000 OA
ATOM      2  C   UNL     1      69.851 219.829 335.845  0.00  0.00    +0.000 C 
ATOM      3  C   UNL     1      69.393 218.479 336.477  0.00  0.00    +0.000 C 
ATOM      4  C   UNL     1      67.901 218.517 336.795  0.00  0.00    +0.000 C 
ATOM      5  C   UNL     1      67.109 219.038 335.633  0.00  0.00    +0.000 A 
ATOM      6  C   UNL     1      67.741 219.825 334.666  0.00  0.00    +0.000 A 
ATOM      7  C   UNL     1      65.734 218.799 335.497  0.00  0.00    +0.000 A 
ATOM      8  C   UNL     1      67.019 220.340 333.587  0.00  0.00    +0.000 A 
ATOM      9  C   UNL     1      65.002 219.325 334.436  0.00  0.00    +0.000 A 
ATOM     10  C   UNL     1      65.656 220.091 333.483  0.00  0.00    +0.000 A 
ENDROOT
BRANCH   2  11
ATOM     11  C   UNL     1      69.855 220.957 336.896  0.00  0.00    +0.000 A 
ATOM     12  C   UNL     1      69.632 222.298 336.512  0.00  0.00    +0.000 A 
ATOM     13  C   UNL     1      70.065 220.685 338.264  0.00  0.00    +0.000 A 
ATOM     14  C   UNL     1      69.635 223.311 337.466  0.00  0.00    +0.000 A 
ATOM     15  C   UNL     1      70.080 221.711 339.213  0.00  0.00    +0.000 A 
ATOM     16  C   UNL     1      69.872 223.015 338.804  0.00  0.00    +0.000 A 
BRANCH  14  17
ATOM     17  O   UNL     1      69.403 224.619 337.147  0.00  0.00    +0.000 OA
ATOM     18  H   UNL     1      70.134 224.954 336.589  0.00  0.00    +0.000 HD
ENDBRANCH  14  17
BRANCH  16  19
ATOM     19  O   UNL     1      69.882 224.018 339.731  0.00  0.00    +0.000 OA
ATOM     20  H   UNL     1      69.904 223.552 340.592  0.00  0.00    +0.000 HD
ENDBRANCH  16  19
ENDBRANCH   2  11
BRANCH   3  21
ATOM     21  O   UNL     1      69.645 217.350 335.594  0.00  0.00    +0.000 OA
ATOM     22  H   UNL     1      70.619 217.302 335.519  0.00  0.00    +0.000 HD
ENDBRANCH   3  21
BRANCH   4  23
ATOM     23  O   UNL     1      67.448 217.193 337.126  0.00  0.00    +0.000 OA
ATOM     24  H   UNL     1      68.172 216.824 337.680  0.00  0.00    +0.000 HD
ENDBRANCH   4  23
BRANCH   7  25
ATOM     25  O   UNL     1      65.049 218.020 336.391  0.00  0.00    +0.000 OA
ATOM     26  H   UNL     1      65.395 217.105 336.303  0.00  0.00    +0.000 HD
ENDBRANCH   7  25
BRANCH  10  27
ATOM     27  O   UNL     1      64.989 220.624 332.419  0.00  0.00    +0.000 OA
ATOM     28  H   UNL     1      64.483 221.394 332.728  0.00  0.00    +0.000 HD
ENDBRANCH  10  27
BRANCH   2  29
ATOM     29  O   UNL     1      71.211 219.545 335.412  0.00  0.00    +0.000 OA
BRANCH  29  31
ATOM     30  O   UNL     1      73.701 221.399 333.390  0.00  0.00    +0.000 OA
ATOM     31  C   UNL     1      71.688 220.244 334.246  0.00  0.00    +0.000 C 
ATOM     32  C   UNL     1      73.170 220.629 334.477  0.00  0.00    +0.000 C 
ATOM     33  C   UNL     1      71.631 219.363 332.994  0.00  0.00    +0.000 C 
ATOM     34  C   UNL     1      72.541 219.857 331.903  0.00  0.00    +0.000 A 
ATOM     35  C   UNL     1      73.508 220.834 332.159  0.00  0.00    +0.000 A 
ATOM     36  C   UNL     1      72.443 219.340 330.605  0.00  0.00    +0.000 A 
ATOM     37  C   UNL     1      74.325 221.317 331.134  0.00  0.00    +0.000 A 
ATOM     38  C   UNL     1      73.263 219.802 329.579  0.00  0.00    +0.000 A 
ATOM     39  C   UNL     1      74.196 220.794 329.853  0.00  0.00    +0.000 A 
BRANCH  32  40
ATOM     40  C   UNL     1      73.332 221.457 335.745  0.00  0.00    +0.000 A 
ATOM     41  C   UNL     1      73.034 222.829 335.755  0.00  0.00    +0.000 A 
ATOM     42  C   UNL     1      73.704 220.832 336.949  0.00  0.00    +0.000 A 
ATOM     43  C   UNL     1      73.064 223.539 336.953  0.00  0.00    +0.000 A 
ATOM     44  C   UNL     1      73.751 221.553 338.144  0.00  0.00    +0.000 A 
ATOM     45  C   UNL     1      73.414 222.903 338.143  0.00  0.00    +0.000 A 
BRANCH  43  46
ATOM     46  O   UNL     1      72.684 224.850 336.985  0.00  0.00    +0.000 OA
ATOM     47  H   UNL     1      73.434 225.405 336.716  0.00  0.00    +0.000 HD
ENDBRANCH  43  46
BRANCH  45  48
ATOM     48  O   UNL     1      73.392 223.613 339.310  0.00  0.00    +0.000 OA
ATOM     49  H   UNL     1      74.299 223.696 339.648  0.00  0.00    +0.000 HD
ENDBRANCH  45  48
ENDBRANCH  32  40
BRANCH  36  50
ATOM     50  O   UNL     1      71.516 218.366 330.358  0.00  0.00    +0.000 OA
ATOM     51  H   UNL     1      70.668 218.631 330.753  0.00  0.00    +0.000 HD
ENDBRANCH  36  50
BRANCH  39  52
ATOM     52  O   UNL     1      74.979 221.231 328.825  0.00  0.00    +0.000 OA
ATOM     53  H   UNL     1      74.694 220.789 328.007  0.00  0.00    +0.000 HD
ENDBRANCH  39  52
ENDBRANCH  29  31
ENDBRANCH   2  29
TORSDOF 14
ENDMDL
MODEL 6
REMARK VINA RESULT:      -5.5     10.974     15.193
REMARK  Name = 
REMARK  14 active torsions:
REMARK  status: ('A' for Active; 'I' for Inactive)
REMARK    1  A    between atoms: O_1  and  C_14
REMARK    2  A    between atoms: O_1  and  C_15
REMARK    3  A    between atoms: O_4  and  C_16
REMARK    4  A    between atoms: O_5  and  C_18
REMARK    5  A    between atoms: O_6  and  C_26
REMARK    6  A    between atoms: O_7  and  C_29
REMARK    7  A    between atoms: O_8  and  C_35
REMARK    8  A    between atoms: O_9  and  C_36
REMARK    9  A    between atoms: O_10  and  C_39
REMARK   10  A    between atoms: O_11  and  C_40
REMARK   11  A    between atoms: O_12  and  C_41
REMARK   12  A    between atoms: O_13  and  C_43
REMARK   13  A    between atoms: C_14  and  C_20
REMARK   14  A    between atoms: C_17  and  C_24
REMARK                            x       y       z     vdW  Elec       q    Type
REMARK                         _______ _______ _______ _____ _____    ______ ____
ROOT
ATOM      1  O   UNL     1      48.908 245.373 329.844  0.00  0.00    +0.000 OA
ATOM      2  C   UNL     1      49.875 245.439 330.901  0.00  0.00    +0.000 C 
ATOM      3  C   UNL     1      49.639 244.310 331.950  0.00  0.00    +0.000 C 
ATOM      4  C   UNL     1      48.212 244.369 332.486  0.00  0.00    +0.000 C 
ATOM      5  C   UNL     1      47.216 244.494 331.372  0.00  0.00    +0.000 A 
ATOM      6  C   UNL     1      47.627 244.996 330.134  0.00  0.00    +0.000 A 
ATOM      7  C   UNL     1      45.863 244.162 331.536  0.00  0.00    +0.000 A 
ATOM      8  C   UNL     1      46.712 245.144 329.089  0.00  0.00    +0.000 A 
ATOM      9  C   UNL     1      44.940 244.324 330.507  0.00  0.00    +0.000 A 
ATOM     10  C   UNL     1      45.376 244.812 329.285  0.00  0.00    +0.000 A 
ENDROOT
BRANCH   2  11
ATOM     11  C   UNL     1      49.928 246.821 331.581  0.00  0.00    +0.000 A 
ATOM     12  C   UNL     1      50.773 247.046 332.691  0.00  0.00    +0.000 A 
ATOM     13  C   UNL     1      49.151 247.901 331.111  0.00  0.00    +0.000 A 
ATOM     14  C   UNL     1      50.818 248.297 333.298  0.00  0.00    +0.000 A 
ATOM     15  C   UNL     1      49.192 249.151 331.737  0.00  0.00    +0.000 A 
ATOM     16  C   UNL     1      50.020 249.334 332.829  0.00  0.00    +0.000 A 
BRANCH  14  17
ATOM     17  O   UNL     1      51.634 248.567 334.360  0.00  0.00    +0.000 OA
ATOM     18  H   UNL     1      51.312 248.089 335.150  0.00  0.00    +0.000 HD
ENDBRANCH  14  17
BRANCH  16  19
ATOM     19  O   UNL     1      50.064 250.555 333.438  0.00  0.00    +0.000 OA
ATOM     20  H   UNL     1      50.984 250.631 333.764  0.00  0.00    +0.000 HD
ENDBRANCH  16  19
ENDBRANCH   2  11
BRANCH   3  21
ATOM     21  O   UNL     1      49.863 242.986 331.386  0.00  0.00    +0.000 OA
ATOM     22  H   UNL     1      50.069 242.418 332.156  0.00  0.00    +0.000 HD
ENDBRANCH   3  21
BRANCH   4  23
ATOM     23  O   UNL     1      47.934 243.177 333.242  0.00  0.00    +0.000 OA
ATOM     24  H   UNL     1      47.542 243.511 334.080  0.00  0.00    +0.000 HD
ENDBRANCH   4  23
BRANCH   7  25
ATOM     25  O   UNL     1      45.389 243.644 332.712  0.00  0.00    +0.000 OA
ATOM     26  H   UNL     1      46.029 242.960 333.006  0.00  0.00    +0.000 HD
ENDBRANCH   7  25
BRANCH  10  27
ATOM     27  O   UNL     1      44.517 244.983 328.239  0.00  0.00    +0.000 OA
ATOM     28  H   UNL     1      43.810 244.319 328.311  0.00  0.00    +0.000 HD
ENDBRANCH  10  27
BRANCH   2  29
ATOM     29  O   UNL     1      51.178 245.106 330.346  0.00  0.00    +0.000 OA
BRANCH  29  31
ATOM     30  O   UNL     1      52.747 246.120 327.146  0.00  0.00    +0.000 OA
ATOM     31  C   UNL     1      51.311 245.149 328.912  0.00  0.00    +0.000 C 
ATOM     32  C   UNL     1      52.582 245.963 328.563  0.00  0.00    +0.000 C 
ATOM     33  C   UNL     1      51.483 243.749 328.315  0.00  0.00    +0.000 C 
ATOM     34  C   UNL     1      52.098 243.781 326.943  0.00  0.00    +0.000 A 
ATOM     35  C   UNL     1      52.684 244.948 326.443  0.00  0.00    +0.000 A 
ATOM     36  C   UNL     1      52.103 242.635 326.138  0.00  0.00    +0.000 A 
ATOM     37  C   UNL     1      53.219 244.985 325.154  0.00  0.00    +0.000 A 
ATOM     38  C   UNL     1      52.648 242.654 324.856  0.00  0.00    +0.000 A 
ATOM     39  C   UNL     1      53.198 243.835 324.373  0.00  0.00    +0.000 A 
BRANCH  32  40
ATOM     40  C   UNL     1      52.528 247.357 329.174  0.00  0.00    +0.000 A 
ATOM     41  C   UNL     1      53.332 247.695 330.274  0.00  0.00    +0.000 A 
ATOM     42  C   UNL     1      51.726 248.351 328.585  0.00  0.00    +0.000 A 
ATOM     43  C   UNL     1      53.363 249.009 330.735  0.00  0.00    +0.000 A 
ATOM     44  C   UNL     1      51.746 249.663 329.064  0.00  0.00    +0.000 A 
ATOM     45  C   UNL     1      52.579 249.990 330.129  0.00  0.00    +0.000 A 
BRANCH  43  46
ATOM     46  O   UNL     1      54.214 249.365 331.742  0.00  0.00    +0.000 OA
ATOM     47  H   UNL     1      53.699 249.538 332.548  0.00  0.00    +0.000 HD
ENDBRANCH  43  46
BRANCH  45  48
ATOM     48  O   UNL     1      52.662 251.279 330.573  0.00  0.00    +0.000 OA
ATOM     49  H   UNL     1      52.851 251.274 331.526  0.00  0.00    +0.000 HD
ENDBRANCH  45  48
ENDBRANCH  32  40
BRANCH  36  50
ATOM     50  O   UNL     1      51.553 241.486 326.634  0.00  0.00    +0.000 OA
ATOM     51  H   UNL     1      50.632 241.662 326.889  0.00  0.00    +0.000 HD
ENDBRANCH  36  50
BRANCH  39  52
ATOM     52  O   UNL     1      53.717 243.823 323.111  0.00  0.00    +0.000 OA
ATOM     53  H   UNL     1      54.434 243.167 323.075  0.00  0.00    +0.000 HD
ENDBRANCH  39  52
ENDBRANCH  29  31
ENDBRANCH   2  29
TORSDOF 14
ENDMDL
MODEL 7
REMARK VINA RESULT:      -5.5     19.364     23.653
REMARK  Name = 
REMARK  14 active torsions:
REMARK  status: ('A' for Active; 'I' for Inactive)
REMARK    1  A    between atoms: O_1  and  C_14
REMARK    2  A    between atoms: O_1  and  C_15
REMARK    3  A    between atoms: O_4  and  C_16
REMARK    4  A    between atoms: O_5  and  C_18
REMARK    5  A    between atoms: O_6  and  C_26
REMARK    6  A    between atoms: O_7  and  C_29
REMARK    7  A    between atoms: O_8  and  C_35
REMARK    8  A    between atoms: O_9  and  C_36
REMARK    9  A    between atoms: O_10  and  C_39
REMARK   10  A    between atoms: O_11  and  C_40
REMARK   11  A    between atoms: O_12  and  C_41
REMARK   12  A    between atoms: O_13  and  C_43
REMARK   13  A    between atoms: C_14  and  C_20
REMARK   14  A    between atoms: C_17  and  C_24
REMARK                            x       y       z     vdW  Elec       q    Type
REMARK                         _______ _______ _______ _____ _____    ______ ____
ROOT
ATOM      1  O   UNL     1      44.461 233.699 346.751  0.00  0.00    +0.000 OA
ATOM      2  C   UNL     1      45.212 233.619 347.970  0.00  0.00    +0.000 C 
ATOM      3  C   UNL     1      46.354 232.565 347.857  0.00  0.00    +0.000 C 
ATOM      4  C   UNL     1      45.790 231.206 347.453  0.00  0.00    +0.000 C 
ATOM      5  C   UNL     1      44.850 231.331 346.291  0.00  0.00    +0.000 A 
ATOM      6  C   UNL     1      44.242 232.561 346.026  0.00  0.00    +0.000 A 
ATOM      7  C   UNL     1      44.521 230.239 345.474  0.00  0.00    +0.000 A 
ATOM      8  C   UNL     1      43.346 232.695 344.963  0.00  0.00    +0.000 A 
ATOM      9  C   UNL     1      43.613 230.358 344.426  0.00  0.00    +0.000 A 
ATOM     10  C   UNL     1      43.034 231.593 344.176  0.00  0.00    +0.000 A 
ENDROOT
BRANCH   2  11
ATOM     11  C   UNL     1      44.329 233.347 349.203  0.00  0.00    +0.000 A 
ATOM     12  C   UNL     1      42.929 233.205 349.068  0.00  0.00    +0.000 A 
ATOM     13  C   UNL     1      44.887 233.217 350.492  0.00  0.00    +0.000 A 
ATOM     14  C   UNL     1      42.138 232.956 350.186  0.00  0.00    +0.000 A 
ATOM     15  C   UNL     1      44.082 232.982 351.611  0.00  0.00    +0.000 A 
ATOM     16  C   UNL     1      42.715 232.861 351.447  0.00  0.00    +0.000 A 
BRANCH  14  17
ATOM     17  O   UNL     1      40.785 232.791 350.103  0.00  0.00    +0.000 OA
ATOM     18  H   UNL     1      40.441 233.284 349.331  0.00  0.00    +0.000 HD
ENDBRANCH  14  17
BRANCH  16  19
ATOM     19  O   UNL     1      41.928 232.627 352.539  0.00  0.00    +0.000 OA
ATOM     20  H   UNL     1      41.836 233.504 352.964  0.00  0.00    +0.000 HD
ENDBRANCH  16  19
ENDBRANCH   2  11
BRANCH   3  21
ATOM     21  O   UNL     1      47.361 232.952 346.879  0.00  0.00    +0.000 OA
ATOM     22  H   UNL     1      46.893 232.944 346.020  0.00  0.00    +0.000 HD
ENDBRANCH   3  21
BRANCH   4  23
ATOM     23  O   UNL     1      46.870 230.324 347.101  0.00  0.00    +0.000 OA
ATOM     24  H   UNL     1      47.101 230.584 346.181  0.00  0.00    +0.000 HD
ENDBRANCH   4  23
BRANCH   7  25
ATOM     25  O   UNL     1      45.091 229.007 345.658  0.00  0.00    +0.000 OA
ATOM     26  H   UNL     1      45.532 228.764 344.815  0.00  0.00    +0.000 HD
ENDBRANCH   7  25
BRANCH  10  27
ATOM     27  O   UNL     1      42.145 231.769 343.156  0.00  0.00    +0.000 OA
ATOM     28  H   UNL     1      42.622 232.138 342.393  0.00  0.00    +0.000 HD
ENDBRANCH  10  27
BRANCH   2  29
ATOM     29  O   UNL     1      45.935 234.871 348.140  0.00  0.00    +0.000 OA
BRANCH  29  31
ATOM     30  O   UNL     1      45.034 238.403 347.476  0.00  0.00    +0.000 OA
ATOM     31  C   UNL     1      45.524 235.983 347.321  0.00  0.00    +0.000 C 
ATOM     32  C   UNL     1      45.508 237.259 348.199  0.00  0.00    +0.000 C 
ATOM     33  C   UNL     1      46.502 236.230 346.168  0.00  0.00    +0.000 C 
ATOM     34  C   UNL     1      46.390 237.622 345.609  0.00  0.00    +0.000 A 
ATOM     35  C   UNL     1      45.671 238.613 346.283  0.00  0.00    +0.000 A 
ATOM     36  C   UNL     1      47.014 237.956 344.401  0.00  0.00    +0.000 A 
ATOM     37  C   UNL     1      45.538 239.894 345.742  0.00  0.00    +0.000 A 
ATOM     38  C   UNL     1      46.902 239.234 343.858  0.00  0.00    +0.000 A 
ATOM     39  C   UNL     1      46.157 240.192 344.534  0.00  0.00    +0.000 A 
BRANCH  32  40
ATOM     40  C   UNL     1      44.606 237.080 349.413  0.00  0.00    +0.000 A 
ATOM     41  C   UNL     1      43.220 236.917 349.265  0.00  0.00    +0.000 A 
ATOM     42  C   UNL     1      45.170 236.992 350.699  0.00  0.00    +0.000 A 
ATOM     43  C   UNL     1      42.432 236.625 350.377  0.00  0.00    +0.000 A 
ATOM     44  C   UNL     1      44.371 236.718 351.812  0.00  0.00    +0.000 A 
ATOM     45  C   UNL     1      43.005 236.520 351.642  0.00  0.00    +0.000 A 
BRANCH  43  46
ATOM     46  O   UNL     1      41.098 236.371 350.226  0.00  0.00    +0.000 OA
ATOM     47  H   UNL     1      40.883 236.353 349.278  0.00  0.00    +0.000 HD
ENDBRANCH  43  46
BRANCH  45  48
ATOM     48  O   UNL     1      42.215 236.189 352.707  0.00  0.00    +0.000 OA
ATOM     49  H   UNL     1      41.510 235.593 352.405  0.00  0.00    +0.000 HD
ENDBRANCH  45  48
ENDBRANCH  32  40
BRANCH  36  50
ATOM     50  O   UNL     1      47.738 236.996 343.752  0.00  0.00    +0.000 OA
ATOM     51  H   UNL     1      48.528 237.407 343.361  0.00  0.00    +0.000 HD
ENDBRANCH  36  50
BRANCH  39  52
ATOM     52  O   UNL     1      46.061 241.433 343.973  0.00  0.00    +0.000 OA
ATOM     53  H   UNL     1      46.951 241.732 343.722  0.00  0.00    +0.000 HD
ENDBRANCH  39  52
ENDBRANCH  29  31
ENDBRANCH   2  29
TORSDOF 14
ENDMDL
MODEL 8
REMARK VINA RESULT:      -5.4     16.983     21.589
REMARK  Name = 
REMARK  14 active torsions:
REMARK  status: ('A' for Active; 'I' for Inactive)
REMARK    1  A    between atoms: O_1  and  C_14
REMARK    2  A    between atoms: O_1  and  C_15
REMARK    3  A    between atoms: O_4  and  C_16
REMARK    4  A    between atoms: O_5  and  C_18
REMARK    5  A    between atoms: O_6  and  C_26
REMARK    6  A    between atoms: O_7  and  C_29
REMARK    7  A    between atoms: O_8  and  C_35
REMARK    8  A    between atoms: O_9  and  C_36
REMARK    9  A    between atoms: O_10  and  C_39
REMARK   10  A    between atoms: O_11  and  C_40
REMARK   11  A    between atoms: O_12  and  C_41
REMARK   12  A    between atoms: O_13  and  C_43
REMARK   13  A    between atoms: C_14  and  C_20
REMARK   14  A    between atoms: C_17  and  C_24
REMARK                            x       y       z     vdW  Elec       q    Type
REMARK                         _______ _______ _______ _____ _____    ______ ____
ROOT
ATOM      1  O   UNL     1      44.761 235.005 345.968  0.00  0.00    +0.000 OA
ATOM      2  C   UNL     1      43.821 234.259 346.754  0.00  0.00    +0.000 C 
ATOM      3  C   UNL     1      43.323 235.093 347.973  0.00  0.00    +0.000 C 
ATOM      4  C   UNL     1      44.504 235.572 348.811  0.00  0.00    +0.000 C 
ATOM      5  C   UNL     1      45.571 236.180 347.951  0.00  0.00    +0.000 A 
ATOM      6  C   UNL     1      45.635 235.848 346.595  0.00  0.00    +0.000 A 
ATOM      7  C   UNL     1      46.546 237.047 348.467  0.00  0.00    +0.000 A 
ATOM      8  C   UNL     1      46.634 236.383 345.779  0.00  0.00    +0.000 A 
ATOM      9  C   UNL     1      47.558 237.569 347.667  0.00  0.00    +0.000 A 
ATOM     10  C   UNL     1      47.590 237.234 346.321  0.00  0.00    +0.000 A 
ENDROOT
BRANCH   2  11
ATOM     11  C   UNL     1      44.368 232.892 347.207  0.00  0.00    +0.000 A 
ATOM     12  C   UNL     1      45.646 232.455 346.792  0.00  0.00    +0.000 A 
ATOM     13  C   UNL     1      43.621 232.047 348.055  0.00  0.00    +0.000 A 
ATOM     14  C   UNL     1      46.134 231.220 347.207  0.00  0.00    +0.000 A 
ATOM     15  C   UNL     1      44.115 230.801 348.455  0.00  0.00    +0.000 A 
ATOM     16  C   UNL     1      45.364 230.397 348.021  0.00  0.00    +0.000 A 
BRANCH  14  17
ATOM     17  O   UNL     1      47.371 230.763 346.849  0.00  0.00    +0.000 OA
ATOM     18  H   UNL     1      47.797 230.336 347.619  0.00  0.00    +0.000 HD
ENDBRANCH  14  17
BRANCH  16  19
ATOM     19  O   UNL     1      45.848 229.182 348.414  0.00  0.00    +0.000 OA
ATOM     20  H   UNL     1      46.100 228.739 347.578  0.00  0.00    +0.000 HD
ENDBRANCH  16  19
ENDBRANCH   2  11
BRANCH   3  21
ATOM     21  O   UNL     1      42.551 236.257 347.561  0.00  0.00    +0.000 OA
ATOM     22  H   UNL     1      43.144 236.750 346.957  0.00  0.00    +0.000 HD
ENDBRANCH   3  21
BRANCH   4  23
ATOM     23  O   UNL     1      44.050 236.546 349.767  0.00  0.00    +0.000 OA
ATOM     24  H   UNL     1      43.485 236.030 350.384  0.00  0.00    +0.000 HD
ENDBRANCH   4  23
BRANCH   7  25
ATOM     25  O   UNL     1      46.538 237.435 349.780  0.00  0.00    +0.000 OA
ATOM     26  H   UNL     1      45.656 237.201 350.146  0.00  0.00    +0.000 HD
ENDBRANCH   7  25
BRANCH  10  27
ATOM     27  O   UNL     1      48.554 237.724 345.489  0.00  0.00    +0.000 OA
ATOM     28  H   UNL     1      48.702 237.079 344.777  0.00  0.00    +0.000 HD
ENDBRANCH  10  27
BRANCH   2  29
ATOM     29  O   UNL     1      42.612 234.077 345.964  0.00  0.00    +0.000 OA
BRANCH  29  31
ATOM     30  O   UNL     1      41.930 233.052 342.470  0.00  0.00    +0.000 OA
ATOM     31  C   UNL     1      42.747 234.148 344.531  0.00  0.00    +0.000 C 
ATOM     32  C   UNL     1      41.799 233.100 343.897  0.00  0.00    +0.000 C 
ATOM     33  C   UNL     1      42.340 235.523 343.991  0.00  0.00    +0.000 C 
ATOM     34  C   UNL     1      42.003 235.486 342.526  0.00  0.00    +0.000 A 
ATOM     35  C   UNL     1      41.822 234.271 341.858  0.00  0.00    +0.000 A 
ATOM     36  C   UNL     1      41.855 236.674 341.799  0.00  0.00    +0.000 A 
ATOM     37  C   UNL     1      41.547 234.241 340.489  0.00  0.00    +0.000 A 
ATOM     38  C   UNL     1      41.565 236.657 340.437  0.00  0.00    +0.000 A 
ATOM     39  C   UNL     1      41.419 235.436 339.792  0.00  0.00    +0.000 A 
BRANCH  32  40
ATOM     40  C   UNL     1      42.090 231.703 344.430  0.00  0.00    +0.000 A 
ATOM     41  C   UNL     1      43.315 231.070 344.167  0.00  0.00    +0.000 A 
ATOM     42  C   UNL     1      41.158 231.063 345.267  0.00  0.00    +0.000 A 
ATOM     43  C   UNL     1      43.611 229.849 344.770  0.00  0.00    +0.000 A 
ATOM     44  C   UNL     1      41.453 229.830 345.853  0.00  0.00    +0.000 A 
ATOM     45  C   UNL     1      42.688 229.235 345.614  0.00  0.00    +0.000 A 
BRANCH  43  46
ATOM     46  O   UNL     1      44.838 229.275 344.594  0.00  0.00    +0.000 OA
ATOM     47  H   UNL     1      45.337 229.332 345.426  0.00  0.00    +0.000 HD
ENDBRANCH  43  46
BRANCH  45  48
ATOM     48  O   UNL     1      43.022 228.061 346.227  0.00  0.00    +0.000 OA
ATOM     49  H   UNL     1      42.311 227.416 346.085  0.00  0.00    +0.000 HD
ENDBRANCH  45  48
ENDBRANCH  32  40
BRANCH  36  50
ATOM     50  O   UNL     1      42.006 237.864 342.455  0.00  0.00    +0.000 OA
ATOM     51  H   UNL     1      41.681 238.581 341.884  0.00  0.00    +0.000 HD
ENDBRANCH  36  50
BRANCH  39  52
ATOM     52  O   UNL     1      41.143 235.453 338.455  0.00  0.00    +0.000 OA
ATOM     53  H   UNL     1      41.825 234.941 337.989  0.00  0.00    +0.000 HD
ENDBRANCH  39  52
ENDBRANCH  29  31
ENDBRANCH   2  29
TORSDOF 14
ENDMDL
MODEL 9
REMARK VINA RESULT:      -5.4     30.633     33.557
REMARK  Name = 
REMARK  14 active torsions:
REMARK  status: ('A' for Active; 'I' for Inactive)
REMARK    1  A    between atoms: O_1  and  C_14
REMARK    2  A    between atoms: O_1  and  C_15
REMARK    3  A    between atoms: O_4  and  C_16
REMARK    4  A    between atoms: O_5  and  C_18
REMARK    5  A    between atoms: O_6  and  C_26
REMARK    6  A    between atoms: O_7  and  C_29
REMARK    7  A    between atoms: O_8  and  C_35
REMARK    8  A    between atoms: O_9  and  C_36
REMARK    9  A    between atoms: O_10  and  C_39
REMARK   10  A    between atoms: O_11  and  C_40
REMARK   11  A    between atoms: O_12  and  C_41
REMARK   12  A    between atoms: O_13  and  C_43
REMARK   13  A    between atoms: C_14  and  C_20
REMARK   14  A    between atoms: C_17  and  C_24
REMARK                            x       y       z     vdW  Elec       q    Type
REMARK                         _______ _______ _______ _____ _____    ______ ____
ROOT
ATOM      1  O   UNL     1      72.687 219.911 339.421  0.00  0.00    +0.000 OA
ATOM      2  C   UNL     1      71.397 220.371 339.845  0.00  0.00    +0.000 C 
ATOM      3  C   UNL     1      71.348 220.554 341.393  0.00  0.00    +0.000 C 
ATOM      4  C   UNL     1      71.744 219.260 342.097  0.00  0.00    +0.000 C 
ATOM      5  C   UNL     1      72.998 218.684 341.511  0.00  0.00    +0.000 A 
ATOM      6  C   UNL     1      73.378 219.038 340.213  0.00  0.00    +0.000 A 
ATOM      7  C   UNL     1      73.794 217.760 342.206  0.00  0.00    +0.000 A 
ATOM      8  C   UNL     1      74.530 218.496 339.638  0.00  0.00    +0.000 A 
ATOM      9  C   UNL     1      74.932 217.199 341.633  0.00  0.00    +0.000 A 
ATOM     10  C   UNL     1      75.294 217.578 340.349  0.00  0.00    +0.000 A 
ENDROOT
BRANCH   2  11
ATOM     11  C   UNL     1      70.247 219.468 339.359  0.00  0.00    +0.000 A 
ATOM     12  C   UNL     1      68.909 219.755 339.710  0.00  0.00    +0.000 A 
ATOM     13  C   UNL     1      70.491 218.344 338.542  0.00  0.00    +0.000 A 
ATOM     14  C   UNL     1      67.875 218.936 339.265  0.00  0.00    +0.000 A 
ATOM     15  C   UNL     1      69.448 217.520 338.112  0.00  0.00    +0.000 A 
ATOM     16  C   UNL     1      68.150 217.820 338.484  0.00  0.00    +0.000 A 
BRANCH  14  17
ATOM     17  O   UNL     1      66.565 219.185 339.561  0.00  0.00    +0.000 OA
ATOM     18  H   UNL     1      66.458 220.125 339.811  0.00  0.00    +0.000 HD
ENDBRANCH  14  17
BRANCH  16  19
ATOM     19  O   UNL     1      67.130 217.018 338.061  0.00  0.00    +0.000 OA
ATOM     20  H   UNL     1      67.040 217.221 337.107  0.00  0.00    +0.000 HD
ENDBRANCH  16  19
ENDBRANCH   2  11
BRANCH   3  21
ATOM     21  O   UNL     1      72.237 221.614 341.847  0.00  0.00    +0.000 OA
ATOM     22  H   UNL     1      72.848 221.177 342.473  0.00  0.00    +0.000 HD
ENDBRANCH   3  21
BRANCH   4  23
ATOM     23  O   UNL     1      71.947 219.518 343.497  0.00  0.00    +0.000 OA
ATOM     24  H   UNL     1      72.484 218.755 343.806  0.00  0.00    +0.000 HD
ENDBRANCH   4  23
BRANCH   7  25
ATOM     25  O   UNL     1      73.499 217.380 343.488  0.00  0.00    +0.000 OA
ATOM     26  H   UNL     1      72.965 216.557 343.430  0.00  0.00    +0.000 HD
ENDBRANCH   7  25
BRANCH  10  27
ATOM     27  O   UNL     1      76.404 217.067 339.743  0.00  0.00    +0.000 OA
ATOM     28  H   UNL     1      77.153 217.144 340.359  0.00  0.00    +0.000 HD
ENDBRANCH  10  27
BRANCH   2  29
ATOM     29  O   UNL     1      71.212 221.727 339.348  0.00  0.00    +0.000 OA
BRANCH  29  31
ATOM     30  O   UNL     1      72.536 223.354 336.294  0.00  0.00    +0.000 OA
ATOM     31  C   UNL     1      72.243 222.258 338.492  0.00  0.00    +0.000 C 
ATOM     32  C   UNL     1      71.571 222.869 337.237  0.00  0.00    +0.000 C 
ATOM     33  C   UNL     1      73.032 223.375 339.182  0.00  0.00    +0.000 C 
ATOM     34  C   UNL     1      73.752 224.258 338.200  0.00  0.00    +0.000 A 
ATOM     35  C   UNL     1      73.470 224.196 336.833  0.00  0.00    +0.000 A 
ATOM     36  C   UNL     1      74.720 225.170 338.640  0.00  0.00    +0.000 A 
ATOM     37  C   UNL     1      74.168 224.991 335.920  0.00  0.00    +0.000 A 
ATOM     38  C   UNL     1      75.412 225.980 337.742  0.00  0.00    +0.000 A 
ATOM     39  C   UNL     1      75.132 225.877 336.386  0.00  0.00    +0.000 A 
BRANCH  32  40
ATOM     40  C   UNL     1      70.707 221.840 336.520  0.00  0.00    +0.000 A 
ATOM     41  C   UNL     1      71.289 220.788 335.796  0.00  0.00    +0.000 A 
ATOM     42  C   UNL     1      69.307 221.887 336.648  0.00  0.00    +0.000 A 
ATOM     43  C   UNL     1      70.484 219.786 335.257  0.00  0.00    +0.000 A 
ATOM     44  C   UNL     1      68.504 220.890 336.089  0.00  0.00    +0.000 A 
ATOM     45  C   UNL     1      69.099 219.833 335.408  0.00  0.00    +0.000 A 
BRANCH  43  46
ATOM     46  O   UNL     1      71.050 218.711 334.634  0.00  0.00    +0.000 OA
ATOM     47  H   UNL     1      71.564 218.201 335.282  0.00  0.00    +0.000 HD
ENDBRANCH  43  46
BRANCH  45  48
ATOM     48  O   UNL     1      68.339 218.815 334.908  0.00  0.00    +0.000 OA
ATOM     49  H   UNL     1      68.805 218.409 334.159  0.00  0.00    +0.000 HD
ENDBRANCH  45  48
ENDBRANCH  32  40
BRANCH  36  50
ATOM     50  O   UNL     1      74.981 225.251 339.979  0.00  0.00    +0.000 OA
ATOM     51  H   UNL     1      75.349 224.403 340.281  0.00  0.00    +0.000 HD
ENDBRANCH  36  50
BRANCH  39  52
ATOM     52  O   UNL     1      75.833 226.678 335.531  0.00  0.00    +0.000 OA
ATOM     53  H   UNL     1      76.443 226.125 335.015  0.00  0.00    +0.000 HD
ENDBRANCH  39  52
ENDBRANCH  29  31
ENDBRANCH   2  29
TORSDOF 14
ENDMDL
