MODEL 1
REMARK VINA RESULT:      -5.5      0.000      0.000
REMARK  Name = Progesterone.pdbqt.pdb
REMARK  1 active torsions:
REMARK  status: ('A' for Active; 'I' for Inactive)
REMARK    1  A    between atoms: C_7  and  C_21
REMARK                            x       y       z     vdW  Elec       q    Type
REMARK                         _______ _______ _______ _____ _____    ______ ____
ROOT
ATOM      1  O   UNL     1      67.191 214.501 336.094  0.00  0.00    +0.000 OA
ATOM      2  C   UNL     1      69.362 221.297 338.875  0.00  0.00    +0.000 C 
ATOM      3  C   UNL     1      69.996 222.452 337.926  0.00  0.00    +0.000 C 
ATOM      4  C   UNL     1      68.438 220.267 338.360  0.00  0.00    +0.000 C 
ATOM      5  C   UNL     1      68.166 219.966 336.912  0.00  0.00    +0.000 C 
ATOM      6  C   UNL     1      67.101 218.960 336.424  0.00  0.00    +0.000 C 
ATOM      7  C   UNL     1      71.425 222.510 338.378  0.00  0.00    +0.000 C 
ATOM      8  C   UNL     1      69.792 221.948 336.568  0.00  0.00    +0.000 C 
ATOM      9  C   UNL     1      68.931 220.816 336.065  0.00  0.00    +0.000 C 
ATOM     10  C   UNL     1      70.357 220.951 339.843  0.00  0.00    +0.000 C 
ATOM     11  C   UNL     1      67.807 219.349 339.230  0.00  0.00    +0.000 C 
ATOM     12  C   UNL     1      71.633 221.680 339.515  0.00  0.00    +0.000 C 
ATOM     13  C   UNL     1      66.641 217.828 337.543  0.00  0.00    +0.000 C 
ATOM     14  C   UNL     1      69.236 223.759 338.254  0.00  0.00    +0.000 C 
ATOM     15  C   UNL     1      66.945 218.173 338.883  0.00  0.00    +0.000 C 
ATOM     16  C   UNL     1      67.650 218.118 335.309  0.00  0.00    +0.000 C 
ATOM     17  C   UNL     1      65.818 219.720 335.995  0.00  0.00    +0.000 C 
ATOM     18  C   UNL     1      67.710 216.592 335.079  0.00  0.00    +0.000 C 
ATOM     19  C   UNL     1      66.719 216.559 337.200  0.00  0.00    +0.000 C 
ATOM     20  C   UNL     1      67.188 215.717 336.110  0.00  0.00    +0.000 C 
ENDROOT
BRANCH   7  21
ATOM     21  C   UNL     1      72.432 223.338 337.762  0.00  0.00    +0.000 C 
ATOM     22  O   UNL     1      72.353 223.832 336.649  0.00  0.00    +0.000 OA
ATOM     23  C   UNL     1      73.680 223.784 338.450  0.00  0.00    +0.000 C 
ENDBRANCH   7  21
TORSDOF 1
ENDMDL
MODEL 2
REMARK VINA RESULT:      -5.1     27.517     29.720
REMARK  Name = Progesterone.pdbqt.pdb
REMARK  1 active torsions:
REMARK  status: ('A' for Active; 'I' for Inactive)
REMARK    1  A    between atoms: C_7  and  C_21
REMARK                            x       y       z     vdW  Elec       q    Type
REMARK                         _______ _______ _______ _____ _____    ______ ____
ROOT
ATOM      1  O   UNL     1      46.991 240.490 351.508  0.00  0.00    +0.000 OA
ATOM      2  C   UNL     1      53.618 240.922 347.699  0.00  0.00    +0.000 C 
ATOM      3  C   UNL     1      54.685 242.119 347.959  0.00  0.00    +0.000 C 
ATOM      4  C   UNL     1      52.669 240.469 348.734  0.00  0.00    +0.000 C 
ATOM      5  C   UNL     1      52.358 241.178 350.023  0.00  0.00    +0.000 C 
ATOM      6  C   UNL     1      51.445 240.601 351.127  0.00  0.00    +0.000 C 
ATOM      7  C   UNL     1      54.618 242.910 346.687  0.00  0.00    +0.000 C 
ATOM      8  C   UNL     1      54.168 242.803 349.145  0.00  0.00    +0.000 C 
ATOM      9  C   UNL     1      53.110 242.380 350.134  0.00  0.00    +0.000 C 
ATOM     10  C   UNL     1      53.205 241.014 346.332  0.00  0.00    +0.000 C 
ATOM     11  C   UNL     1      51.836 239.346 348.520  0.00  0.00    +0.000 C 
ATOM     12  C   UNL     1      53.801 242.255 345.723  0.00  0.00    +0.000 C 
ATOM     13  C   UNL     1      50.390 239.427 350.623  0.00  0.00    +0.000 C 
ATOM     14  C   UNL     1      56.065 241.448 348.148  0.00  0.00    +0.000 C 
ATOM     15  C   UNL     1      50.738 238.816 349.394  0.00  0.00    +0.000 C 
ATOM     16  C   UNL     1      50.528 241.666 351.653  0.00  0.00    +0.000 C 
ATOM     17  C   UNL     1      52.312 239.979 352.253  0.00  0.00    +0.000 C 
ATOM     18  C   UNL     1      48.997 241.726 351.855  0.00  0.00    +0.000 C 
ATOM     19  C   UNL     1      49.112 239.597 350.887  0.00  0.00    +0.000 C 
ATOM     20  C   UNL     1      48.201 240.585 351.447  0.00  0.00    +0.000 C 
ENDROOT
BRANCH   7  21
ATOM     21  C   UNL     1      55.332 244.144 346.466  0.00  0.00    +0.000 C 
ATOM     22  O   UNL     1      56.317 244.270 345.759  0.00  0.00    +0.000 OA
ATOM     23  C   UNL     1      54.896 245.466 347.006  0.00  0.00    +0.000 C 
ENDBRANCH   7  21
TORSDOF 1
ENDMDL
MODEL 3
REMARK VINA RESULT:      -4.9     12.834     16.105
REMARK  Name = Progesterone.pdbqt.pdb
REMARK  1 active torsions:
REMARK  status: ('A' for Active; 'I' for Inactive)
REMARK    1  A    between atoms: C_7  and  C_21
REMARK                            x       y       z     vdW  Elec       q    Type
REMARK                         _______ _______ _______ _____ _____    ______ ____
ROOT
ATOM      1  O   UNL     1      76.577 226.200 343.920  0.00  0.00    +0.000 OA
ATOM      2  C   UNL     1      78.903 232.676 340.562  0.00  0.00    +0.000 C 
ATOM      3  C   UNL     1      79.813 233.771 341.342  0.00  0.00    +0.000 C 
ATOM      4  C   UNL     1      78.915 231.242 340.912  0.00  0.00    +0.000 C 
ATOM      5  C   UNL     1      79.519 230.638 342.150  0.00  0.00    +0.000 C 
ATOM      6  C   UNL     1      79.611 229.119 342.413  0.00  0.00    +0.000 C 
ATOM      7  C   UNL     1      78.874 234.929 341.509  0.00  0.00    +0.000 C 
ATOM      8  C   UNL     1      80.195 233.096 342.582  0.00  0.00    +0.000 C 
ATOM      9  C   UNL     1      80.095 231.643 342.975  0.00  0.00    +0.000 C 
ATOM     10  C   UNL     1      77.675 233.320 340.208  0.00  0.00    +0.000 C 
ATOM     11  C   UNL     1      78.206 230.294 340.139  0.00  0.00    +0.000 C 
ATOM     12  C   UNL     1      77.651 234.696 340.817  0.00  0.00    +0.000 C 
ATOM     13  C   UNL     1      78.545 228.191 341.548  0.00  0.00    +0.000 C 
ATOM     14  C   UNL     1      80.990 234.118 340.402  0.00  0.00    +0.000 C 
ATOM     15  C   UNL     1      78.004 228.833 340.406  0.00  0.00    +0.000 C 
ATOM     16  C   UNL     1      79.238 228.812 343.834  0.00  0.00    +0.000 C 
ATOM     17  C   UNL     1      81.036 228.612 342.069  0.00  0.00    +0.000 C 
ATOM     18  C   UNL     1      78.237 227.818 344.465  0.00  0.00    +0.000 C 
ATOM     19  C   UNL     1      77.768 227.365 342.216  0.00  0.00    +0.000 C 
ATOM     20  C   UNL     1      77.426 227.001 343.583  0.00  0.00    +0.000 C 
ENDROOT
BRANCH   7  21
ATOM     21  C   UNL     1      79.198 236.132 342.236  0.00  0.00    +0.000 C 
ATOM     22  O   UNL     1      79.291 237.246 341.748  0.00  0.00    +0.000 OA
ATOM     23  C   UNL     1      79.372 236.188 343.718  0.00  0.00    +0.000 C 
ENDBRANCH   7  21
TORSDOF 1
ENDMDL
MODEL 4
REMARK VINA RESULT:      -4.8     29.524     31.730
REMARK  Name = Progesterone.pdbqt.pdb
REMARK  1 active torsions:
REMARK  status: ('A' for Active; 'I' for Inactive)
REMARK    1  A    between atoms: C_7  and  C_21
REMARK                            x       y       z     vdW  Elec       q    Type
REMARK                         _______ _______ _______ _____ _____    ______ ____
ROOT
ATOM      1  O   UNL     1      45.959 244.955 342.070  0.00  0.00    +0.000 OA
ATOM      2  C   UNL     1      46.592 237.832 344.807  0.00  0.00    +0.000 C 
ATOM      3  C   UNL     1      45.541 237.229 345.887  0.00  0.00    +0.000 C 
ATOM      4  C   UNL     1      46.225 238.899 343.854  0.00  0.00    +0.000 C 
ATOM      5  C   UNL     1      44.982 239.744 343.908  0.00  0.00    +0.000 C 
ATOM      6  C   UNL     1      44.586 240.766 342.820  0.00  0.00    +0.000 C 
ATOM      7  C   UNL     1      46.369 237.113 347.132  0.00  0.00    +0.000 C 
ATOM      8  C   UNL     1      44.473 238.228 345.940  0.00  0.00    +0.000 C 
ATOM      9  C   UNL     1      44.174 239.387 345.023  0.00  0.00    +0.000 C 
ATOM     10  C   UNL     1      47.882 237.833 345.426  0.00  0.00    +0.000 C 
ATOM     11  C   UNL     1      47.122 239.320 342.846  0.00  0.00    +0.000 C 
ATOM     12  C   UNL     1      47.734 237.417 346.865  0.00  0.00    +0.000 C 
ATOM     13  C   UNL     1      45.833 241.293 341.865  0.00  0.00    +0.000 C 
ATOM     14  C   UNL     1      45.107 235.843 345.355  0.00  0.00    +0.000 C 
ATOM     15  C   UNL     1      46.975 240.455 341.878  0.00  0.00    +0.000 C 
ATOM     16  C   UNL     1      44.094 242.035 343.452  0.00  0.00    +0.000 C 
ATOM     17  C   UNL     1      43.524 240.142 341.876  0.00  0.00    +0.000 C 
ATOM     18  C   UNL     1      44.470 243.521 343.253  0.00  0.00    +0.000 C 
ATOM     19  C   UNL     1      46.022 242.592 341.765  0.00  0.00    +0.000 C 
ATOM     20  C   UNL     1      45.527 243.845 342.314  0.00  0.00    +0.000 C 
ENDROOT
BRANCH   7  21
ATOM     21  C   UNL     1      45.848 236.703 348.413  0.00  0.00    +0.000 C 
ATOM     22  O   UNL     1      45.345 235.618 348.653  0.00  0.00    +0.000 OA
ATOM     23  C   UNL     1      45.941 237.527 349.654  0.00  0.00    +0.000 C 
ENDBRANCH   7  21
TORSDOF 1
ENDMDL
MODEL 5
REMARK VINA RESULT:      -4.6     20.428     21.975
REMARK  Name = Progesterone.pdbqt.pdb
REMARK  1 active torsions:
REMARK  status: ('A' for Active; 'I' for Inactive)
REMARK    1  A    between atoms: C_7  and  C_21
REMARK                            x       y       z     vdW  Elec       q    Type
REMARK                         _______ _______ _______ _____ _____    ______ ____
ROOT
ATOM      1  O   UNL     1      55.069 216.941 356.947  0.00  0.00    +0.000 OA
ATOM      2  C   UNL     1      55.291 223.437 352.900  0.00  0.00    +0.000 C 
ATOM      3  C   UNL     1      55.932 224.803 353.500  0.00  0.00    +0.000 C 
ATOM      4  C   UNL     1      55.716 222.098 353.352  0.00  0.00    +0.000 C 
ATOM      5  C   UNL     1      56.557 221.797 354.562  0.00  0.00    +0.000 C 
ATOM      6  C   UNL     1      57.075 220.388 354.924  0.00  0.00    +0.000 C 
ATOM      7  C   UNL     1      54.732 225.686 353.677  0.00  0.00    +0.000 C 
ATOM      8  C   UNL     1      56.580 224.377 354.740  0.00  0.00    +0.000 C 
ATOM      9  C   UNL     1      56.906 222.994 355.246  0.00  0.00    +0.000 C 
ATOM     10  C   UNL     1      53.910 223.701 352.629  0.00  0.00    +0.000 C 
ATOM     11  C   UNL     1      55.229 220.926 352.727  0.00  0.00    +0.000 C 
ATOM     12  C   UNL     1      53.566 225.076 353.135  0.00  0.00    +0.000 C 
ATOM     13  C   UNL     1      56.232 219.134 354.244  0.00  0.00    +0.000 C 
ATOM     14  C   UNL     1      56.894 225.351 352.420  0.00  0.00    +0.000 C 
ATOM     15  C   UNL     1      55.450 219.496 353.120  0.00  0.00    +0.000 C 
ATOM     16  C   UNL     1      56.913 220.136 356.395  0.00  0.00    +0.000 C 
ATOM     17  C   UNL     1      58.552 220.239 354.473  0.00  0.00    +0.000 C 
ATOM     18  C   UNL     1      56.271 218.981 357.197  0.00  0.00    +0.000 C 
ATOM     19  C   UNL     1      55.763 218.203 355.048  0.00  0.00    +0.000 C 
ATOM     20  C   UNL     1      55.642 217.899 356.466  0.00  0.00    +0.000 C 
ENDROOT
BRANCH   7  21
ATOM     21  C   UNL     1      54.778 226.997 354.277  0.00  0.00    +0.000 C 
ATOM     22  O   UNL     1      54.863 227.222 355.473  0.00  0.00    +0.000 OA
ATOM     23  C   UNL     1      54.823 228.270 353.497  0.00  0.00    +0.000 C 
ENDBRANCH   7  21
TORSDOF 1
ENDMDL
MODEL 6
REMARK VINA RESULT:      -4.6     23.769     27.552
REMARK  Name = Progesterone.pdbqt.pdb
REMARK  1 active torsions:
REMARK  status: ('A' for Active; 'I' for Inactive)
REMARK    1  A    between atoms: C_7  and  C_21
REMARK                            x       y       z     vdW  Elec       q    Type
REMARK                         _______ _______ _______ _____ _____    ______ ____
ROOT
ATOM      1  O   UNL     1      66.356 252.042 331.703  0.00  0.00    +0.000 OA
ATOM      2  C   UNL     1      65.123 244.507 331.144  0.00  0.00    +0.000 C 
ATOM      3  C   UNL     1      65.331 243.505 332.405  0.00  0.00    +0.000 C 
ATOM      4  C   UNL     1      64.786 245.934 331.314  0.00  0.00    +0.000 C 
ATOM      5  C   UNL     1      64.850 246.712 332.599  0.00  0.00    +0.000 C 
ATOM      6  C   UNL     1      64.373 248.173 332.748  0.00  0.00    +0.000 C 
ATOM      7  C   UNL     1      66.535 242.707 332.003  0.00  0.00    +0.000 C 
ATOM      8  C   UNL     1      65.529 244.402 333.543  0.00  0.00    +0.000 C 
ATOM      9  C   UNL     1      65.291 245.886 333.670  0.00  0.00    +0.000 C 
ATOM     10  C   UNL     1      66.040 244.100 330.124  0.00  0.00    +0.000 C 
ATOM     11  C   UNL     1      64.492 246.754 330.199  0.00  0.00    +0.000 C 
ATOM     12  C   UNL     1      66.926 243.011 330.668  0.00  0.00    +0.000 C 
ATOM     13  C   UNL     1      64.290 249.032 331.334  0.00  0.00    +0.000 C 
ATOM     14  C   UNL     1      64.060 242.626 332.485  0.00  0.00    +0.000 C 
ATOM     15  C   UNL     1      64.250 248.233 330.165  0.00  0.00    +0.000 C 
ATOM     16  C   UNL     1      65.359 248.964 333.557  0.00  0.00    +0.000 C 
ATOM     17  C   UNL     1      62.955 248.201 333.379  0.00  0.00    +0.000 C 
ATOM     18  C   UNL     1      66.079 250.309 333.312  0.00  0.00    +0.000 C 
ATOM     19  C   UNL     1      64.933 250.179 331.274  0.00  0.00    +0.000 C 
ATOM     20  C   UNL     1      65.844 250.999 332.059  0.00  0.00    +0.000 C 
ENDROOT
BRANCH   7  21
ATOM     21  C   UNL     1      67.174 241.730 332.850  0.00  0.00    +0.000 C 
ATOM     22  O   UNL     1      67.032 240.522 332.763  0.00  0.00    +0.000 OA
ATOM     23  C   UNL     1      68.182 242.068 333.899  0.00  0.00    +0.000 C 
ENDBRANCH   7  21
TORSDOF 1
ENDMDL
MODEL 7
REMARK VINA RESULT:      -4.6     30.311     32.849
REMARK  Name = Progesterone.pdbqt.pdb
REMARK  1 active torsions:
REMARK  status: ('A' for Active; 'I' for Inactive)
REMARK    1  A    between atoms: C_7  and  C_21
REMARK                            x       y       z     vdW  Elec       q    Type
REMARK                         _______ _______ _______ _____ _____    ______ ____
ROOT
ATOM      1  O   UNL     1      47.826 248.703 330.848  0.00  0.00    +0.000 OA
ATOM      2  C   UNL     1      52.159 243.607 327.124  0.00  0.00    +0.000 C 
ATOM      3  C   UNL     1      52.990 243.999 325.785  0.00  0.00    +0.000 C 
ATOM      4  C   UNL     1      51.808 244.601 328.158  0.00  0.00    +0.000 C 
ATOM      5  C   UNL     1      51.910 246.095 328.020  0.00  0.00    +0.000 C 
ATOM      6  C   UNL     1      51.644 247.088 329.173  0.00  0.00    +0.000 C 
ATOM      7  C   UNL     1      52.270 243.240 324.710  0.00  0.00    +0.000 C 
ATOM      8  C   UNL     1      52.870 245.455 325.706  0.00  0.00    +0.000 C 
ATOM      9  C   UNL     1      52.399 246.453 326.734  0.00  0.00    +0.000 C 
ATOM     10  C   UNL     1      51.223 242.588 326.758  0.00  0.00    +0.000 C 
ATOM     11  C   UNL     1      51.191 244.210 329.368  0.00  0.00    +0.000 C 
ATOM     12  C   UNL     1      51.277 242.386 325.267  0.00  0.00    +0.000 C 
ATOM     13  C   UNL     1      50.721 246.491 330.414  0.00  0.00    +0.000 C 
ATOM     14  C   UNL     1      54.431 243.476 325.990  0.00  0.00    +0.000 C 
ATOM     15  C   UNL     1      50.658 245.077 330.469  0.00  0.00    +0.000 C 
ATOM     16  C   UNL     1      50.829 248.249 328.684  0.00  0.00    +0.000 C 
ATOM     17  C   UNL     1      52.991 247.548 329.791  0.00  0.00    +0.000 C 
ATOM     18  C   UNL     1      49.526 248.905 329.193  0.00  0.00    +0.000 C 
ATOM     19  C   UNL     1      49.648 247.170 330.761  0.00  0.00    +0.000 C 
ATOM     20  C   UNL     1      48.868 248.327 330.348  0.00  0.00    +0.000 C 
ENDROOT
BRANCH   7  21
ATOM     21  C   UNL     1      52.585 243.338 323.305  0.00  0.00    +0.000 C 
ATOM     22  O   UNL     1      53.368 242.617 322.708  0.00  0.00    +0.000 OA
ATOM     23  C   UNL     1      51.916 244.284 322.364  0.00  0.00    +0.000 C 
ENDBRANCH   7  21
TORSDOF 1
ENDMDL
MODEL 8
REMARK VINA RESULT:      -4.5     28.908     30.560
REMARK  Name = Progesterone.pdbqt.pdb
REMARK  1 active torsions:
REMARK  status: ('A' for Active; 'I' for Inactive)
REMARK    1  A    between atoms: C_7  and  C_21
REMARK                            x       y       z     vdW  Elec       q    Type
REMARK                         _______ _______ _______ _____ _____    ______ ____
ROOT
ATOM      1  O   UNL     1      40.474 230.374 324.032  0.00  0.00    +0.000 OA
ATOM      2  C   UNL     1      47.375 233.596 323.249  0.00  0.00    +0.000 C 
ATOM      3  C   UNL     1      47.594 235.201 323.367  0.00  0.00    +0.000 C 
ATOM      4  C   UNL     1      46.267 232.896 323.928  0.00  0.00    +0.000 C 
ATOM      5  C   UNL     1      45.073 233.544 324.571  0.00  0.00    +0.000 C 
ATOM      6  C   UNL     1      44.000 232.774 325.374  0.00  0.00    +0.000 C 
ATOM      7  C   UNL     1      47.939 235.596 321.962  0.00  0.00    +0.000 C 
ATOM      8  C   UNL     1      46.309 235.700 323.857  0.00  0.00    +0.000 C 
ATOM      9  C   UNL     1      45.133 234.959 324.444  0.00  0.00    +0.000 C 
ATOM     10  C   UNL     1      47.768 233.212 321.928  0.00  0.00    +0.000 C 
ATOM     11  C   UNL     1      46.171 231.485 323.907  0.00  0.00    +0.000 C 
ATOM     12  C   UNL     1      48.086 234.449 321.132  0.00  0.00    +0.000 C 
ATOM     13  C   UNL     1      43.913 231.151 325.050  0.00  0.00    +0.000 C 
ATOM     14  C   UNL     1      48.784 235.414 324.332  0.00  0.00    +0.000 C 
ATOM     15  C   UNL     1      45.068 230.615 324.429  0.00  0.00    +0.000 C 
ATOM     16  C   UNL     1      42.628 233.258 325.008  0.00  0.00    +0.000 C 
ATOM     17  C   UNL     1      44.278 232.919 326.894  0.00  0.00    +0.000 C 
ATOM     18  C   UNL     1      41.341 232.527 324.563  0.00  0.00    +0.000 C 
ATOM     19  C   UNL     1      42.742 230.657 324.707  0.00  0.00    +0.000 C 
ATOM     20  C   UNL     1      41.386 231.087 324.404  0.00  0.00    +0.000 C 
ENDROOT
BRANCH   7  21
ATOM     21  C   UNL     1      48.138 236.959 321.534  0.00  0.00    +0.000 C 
ATOM     22  O   UNL     1      49.196 237.564 321.579  0.00  0.00    +0.000 OA
ATOM     23  C   UNL     1      47.083 237.791 320.882  0.00  0.00    +0.000 C 
ENDBRANCH   7  21
TORSDOF 1
ENDMDL
MODEL 9
REMARK VINA RESULT:      -4.4     28.169     30.588
REMARK  Name = Progesterone.pdbqt.pdb
REMARK  1 active torsions:
REMARK  status: ('A' for Active; 'I' for Inactive)
REMARK    1  A    between atoms: C_7  and  C_21
REMARK                            x       y       z     vdW  Elec       q    Type
REMARK                         _______ _______ _______ _____ _____    ______ ____
ROOT
ATOM      1  O   UNL     1      45.198 242.550 351.127  0.00  0.00    +0.000 OA
ATOM      2  C   UNL     1      51.907 239.364 349.267  0.00  0.00    +0.000 C 
ATOM      3  C   UNL     1      53.310 240.169 349.407  0.00  0.00    +0.000 C 
ATOM      4  C   UNL     1      50.730 239.673 350.103  0.00  0.00    +0.000 C 
ATOM      5  C   UNL     1      50.555 240.887 350.971  0.00  0.00    +0.000 C 
ATOM      6  C   UNL     1      49.355 241.105 351.919  0.00  0.00    +0.000 C 
ATOM      7  C   UNL     1      53.721 240.376 347.980  0.00  0.00    +0.000 C 
ATOM      8  C   UNL     1      52.950 241.386 350.135  0.00  0.00    +0.000 C 
ATOM      9  C   UNL     1      51.693 241.737 350.890  0.00  0.00    +0.000 C 
ATOM     10  C   UNL     1      51.742 239.039 347.883  0.00  0.00    +0.000 C 
ATOM     11  C   UNL     1      49.562 238.877 350.043  0.00  0.00    +0.000 C 
ATOM     12  C   UNL     1      52.846 239.688 347.093  0.00  0.00    +0.000 C 
ATOM     13  C   UNL     1      48.002 240.222 351.553  0.00  0.00    +0.000 C 
ATOM     14  C   UNL     1      54.285 239.230 350.155  0.00  0.00    +0.000 C 
ATOM     15  C   UNL     1      48.242 239.103 350.717  0.00  0.00    +0.000 C 
ATOM     16  C   UNL     1      48.862 242.520 351.820  0.00  0.00    +0.000 C 
ATOM     17  C   UNL     1      49.759 240.736 353.371  0.00  0.00    +0.000 C 
ATOM     18  C   UNL     1      47.463 243.129 351.580  0.00  0.00    +0.000 C 
ATOM     19  C   UNL     1      46.867 240.871 351.402  0.00  0.00    +0.000 C 
ATOM     20  C   UNL     1      46.347 242.230 351.360  0.00  0.00    +0.000 C 
ENDROOT
BRANCH   7  21
ATOM     21  C   UNL     1      54.879 241.136 347.577  0.00  0.00    +0.000 C 
ATOM     22  O   UNL     1      56.016 240.954 347.980  0.00  0.00    +0.000 OA
ATOM     23  C   UNL     1      54.856 242.197 346.526  0.00  0.00    +0.000 C 
ENDBRANCH   7  21
TORSDOF 1
ENDMDL
