MODEL 1
REMARK VINA RESULT:      -5.9      0.000      0.000
REMARK  Name = Quercetin.pdbqt.pdb
REMARK  6 active torsions:
REMARK  status: ('A' for Active; 'I' for Inactive)
REMARK    1  A    between atoms: C_5  and  C_12
REMARK    2  A    between atoms: C_6  and  O_22
REMARK    3  A    between atoms: C_8  and  O_24
REMARK    4  A    between atoms: C_10  and  O_26
REMARK    5  A    between atoms: C_15  and  O_18
REMARK    6  A    between atoms: C_17  and  O_20
REMARK                            x       y       z     vdW  Elec       q    Type
REMARK                         _______ _______ _______ _____ _____    ______ ____
ROOT
ATOM      1  O   UNL     1      53.831 245.405 324.464  0.00  0.00    +0.000 OA
ATOM      2  O   UNL     1      54.324 243.170 321.104  0.00  0.00    +0.000 OA
ATOM      3  C   UNL     1      54.881 245.092 322.301  0.00  0.00    +0.000 A 
ATOM      4  C   UNL     1      54.672 245.819 323.468  0.00  0.00    +0.000 A 
ATOM      5  C   UNL     1      53.163 244.197 324.319  0.00  0.00    +0.000 A 
ATOM      6  C   UNL     1      53.260 243.395 323.237  0.00  0.00    +0.000 A 
ATOM      7  C   UNL     1      54.163 243.825 322.132  0.00  0.00    +0.000 A 
ATOM      8  C   UNL     1      55.757 245.577 321.321  0.00  0.00    +0.000 A 
ATOM      9  C   UNL     1      55.333 247.030 323.665  0.00  0.00    +0.000 A 
ATOM     10  C   UNL     1      56.202 247.503 322.687  0.00  0.00    +0.000 A 
ATOM     11  C   UNL     1      56.419 246.786 321.514  0.00  0.00    +0.000 A 
ENDROOT
BRANCH   5  12
ATOM     12  C   UNL     1      52.321 243.890 325.484  0.00  0.00    +0.000 A 
ATOM     13  C   UNL     1      52.853 243.247 326.606  0.00  0.00    +0.000 A 
ATOM     14  C   UNL     1      50.982 244.300 325.499  0.00  0.00    +0.000 A 
ATOM     15  C   UNL     1      52.043 243.002 327.708  0.00  0.00    +0.000 A 
ATOM     16  C   UNL     1      50.176 244.068 326.613  0.00  0.00    +0.000 A 
ATOM     17  C   UNL     1      50.721 243.433 327.720  0.00  0.00    +0.000 A 
BRANCH  15  18
ATOM     18  O   UNL     1      52.559 242.302 328.759  0.00  0.00    +0.000 OA
ATOM     19  H   UNL     1      53.416 242.711 328.982  0.00  0.00    +0.000 HD
ENDBRANCH  15  18
BRANCH  17  20
ATOM     20  O   UNL     1      49.948 243.257 328.830  0.00  0.00    +0.000 OA
ATOM     21  H   UNL     1      50.381 242.565 329.364  0.00  0.00    +0.000 HD
ENDBRANCH  17  20
ENDBRANCH   5  12
BRANCH   6  22
ATOM     22  O   UNL     1      52.573 242.209 323.057  0.00  0.00    +0.000 OA
ATOM     23  H   UNL     1      52.963 241.704 322.326  0.00  0.00    +0.000 HD
ENDBRANCH   6  22
BRANCH   8  24
ATOM     24  O   UNL     1      56.008 244.917 320.149  0.00  0.00    +0.000 OA
ATOM     25  H   UNL     1      55.755 243.971 320.267  0.00  0.00    +0.000 HD
ENDBRANCH   8  24
BRANCH  10  26
ATOM     26  O   UNL     1      56.837 248.690 322.903  0.00  0.00    +0.000 OA
ATOM     27  H   UNL     1      56.693 248.947 323.832  0.00  0.00    +0.000 HD
ENDBRANCH  10  26
TORSDOF 6
ENDMDL
MODEL 2
REMARK VINA RESULT:      -5.4     22.347     23.889
REMARK  Name = Quercetin.pdbqt.pdb
REMARK  6 active torsions:
REMARK  status: ('A' for Active; 'I' for Inactive)
REMARK    1  A    between atoms: C_5  and  C_12
REMARK    2  A    between atoms: C_6  and  O_22
REMARK    3  A    between atoms: C_8  and  O_24
REMARK    4  A    between atoms: C_10  and  O_26
REMARK    5  A    between atoms: C_15  and  O_18
REMARK    6  A    between atoms: C_17  and  O_20
REMARK                            x       y       z     vdW  Elec       q    Type
REMARK                         _______ _______ _______ _____ _____    ______ ____
ROOT
ATOM      1  O   UNL     1      57.655 221.568 327.447  0.00  0.00    +0.000 OA
ATOM      2  O   UNL     1      57.821 222.535 323.503  0.00  0.00    +0.000 OA
ATOM      3  C   UNL     1      58.511 222.992 325.682  0.00  0.00    +0.000 A 
ATOM      4  C   UNL     1      58.416 222.621 327.018  0.00  0.00    +0.000 A 
ATOM      5  C   UNL     1      56.956 220.820 326.511  0.00  0.00    +0.000 A 
ATOM      6  C   UNL     1      56.946 221.073 325.184  0.00  0.00    +0.000 A 
ATOM      7  C   UNL     1      57.760 222.220 324.689  0.00  0.00    +0.000 A 
ATOM      8  C   UNL     1      59.310 224.083 325.314  0.00  0.00    +0.000 A 
ATOM      9  C   UNL     1      59.113 223.332 327.993  0.00  0.00    +0.000 A 
ATOM     10  C   UNL     1      59.904 224.413 327.618  0.00  0.00    +0.000 A 
ATOM     11  C   UNL     1      60.008 224.796 326.285  0.00  0.00    +0.000 A 
ENDROOT
BRANCH   5  12
ATOM     12  C   UNL     1      56.211 219.716 327.132  0.00  0.00    +0.000 A 
ATOM     13  C   UNL     1      54.875 219.874 327.513  0.00  0.00    +0.000 A 
ATOM     14  C   UNL     1      56.826 218.467 327.289  0.00  0.00    +0.000 A 
ATOM     15  C   UNL     1      54.183 218.802 328.064  0.00  0.00    +0.000 A 
ATOM     16  C   UNL     1      56.124 217.389 327.826  0.00  0.00    +0.000 A 
ATOM     17  C   UNL     1      54.797 217.561 328.195  0.00  0.00    +0.000 A 
BRANCH  15  18
ATOM     18  O   UNL     1      52.907 219.001 328.504  0.00  0.00    +0.000 OA
ATOM     19  H   UNL     1      52.917 218.882 329.472  0.00  0.00    +0.000 HD
ENDBRANCH  15  18
BRANCH  17  20
ATOM     20  O   UNL     1      54.096 216.491 328.667  0.00  0.00    +0.000 OA
ATOM     21  H   UNL     1      53.625 216.108 327.904  0.00  0.00    +0.000 HD
ENDBRANCH  17  20
ENDBRANCH   5  12
BRANCH   6  22
ATOM     22  O   UNL     1      56.225 220.365 324.241  0.00  0.00    +0.000 OA
ATOM     23  H   UNL     1      56.584 220.527 323.354  0.00  0.00    +0.000 HD
ENDBRANCH   6  22
BRANCH   8  24
ATOM     24  O   UNL     1      59.448 224.506 324.020  0.00  0.00    +0.000 OA
ATOM     25  H   UNL     1      59.645 223.720 323.458  0.00  0.00    +0.000 HD
ENDBRANCH   8  24
BRANCH  10  26
ATOM     26  O   UNL     1      60.576 225.093 328.591  0.00  0.00    +0.000 OA
ATOM     27  H   UNL     1      60.745 225.997 328.268  0.00  0.00    +0.000 HD
ENDBRANCH  10  26
TORSDOF 6
ENDMDL
MODEL 3
REMARK VINA RESULT:      -5.3     26.710     28.750
REMARK  Name = Quercetin.pdbqt.pdb
REMARK  6 active torsions:
REMARK  status: ('A' for Active; 'I' for Inactive)
REMARK    1  A    between atoms: C_5  and  C_12
REMARK    2  A    between atoms: C_6  and  O_22
REMARK    3  A    between atoms: C_8  and  O_24
REMARK    4  A    between atoms: C_10  and  O_26
REMARK    5  A    between atoms: C_15  and  O_18
REMARK    6  A    between atoms: C_17  and  O_20
REMARK                            x       y       z     vdW  Elec       q    Type
REMARK                         _______ _______ _______ _____ _____    ______ ____
ROOT
ATOM      1  O   UNL     1      55.758 218.545 334.093  0.00  0.00    +0.000 OA
ATOM      2  O   UNL     1      58.238 216.489 331.614  0.00  0.00    +0.000 OA
ATOM      3  C   UNL     1      56.258 217.691 331.880  0.00  0.00    +0.000 A 
ATOM      4  C   UNL     1      55.445 218.381 332.771  0.00  0.00    +0.000 A 
ATOM      5  C   UNL     1      56.948 218.016 334.571  0.00  0.00    +0.000 A 
ATOM      6  C   UNL     1      57.827 217.314 333.824  0.00  0.00    +0.000 A 
ATOM      7  C   UNL     1      57.508 217.112 332.382  0.00  0.00    +0.000 A 
ATOM      8  C   UNL     1      55.874 217.561 330.539  0.00  0.00    +0.000 A 
ATOM      9  C   UNL     1      54.247 218.944 332.334  0.00  0.00    +0.000 A 
ATOM     10  C   UNL     1      53.875 218.810 331.000  0.00  0.00    +0.000 A 
ATOM     11  C   UNL     1      54.679 218.121 330.097  0.00  0.00    +0.000 A 
ENDROOT
BRANCH   5  12
ATOM     12  C   UNL     1      57.143 218.301 336.000  0.00  0.00    +0.000 A 
ATOM     13  C   UNL     1      56.638 217.441 336.980  0.00  0.00    +0.000 A 
ATOM     14  C   UNL     1      57.898 219.415 336.388  0.00  0.00    +0.000 A 
ATOM     15  C   UNL     1      56.870 217.714 338.322  0.00  0.00    +0.000 A 
ATOM     16  C   UNL     1      58.143 219.677 337.735  0.00  0.00    +0.000 A 
ATOM     17  C   UNL     1      57.639 218.811 338.695  0.00  0.00    +0.000 A 
BRANCH  15  18
ATOM     18  O   UNL     1      56.299 216.908 339.264  0.00  0.00    +0.000 OA
ATOM     19  H   UNL     1      55.409 217.265 339.444  0.00  0.00    +0.000 HD
ENDBRANCH  15  18
BRANCH  17  20
ATOM     20  O   UNL     1      57.927 219.037 340.009  0.00  0.00    +0.000 OA
ATOM     21  H   UNL     1      57.328 218.468 340.527  0.00  0.00    +0.000 HD
ENDBRANCH  17  20
ENDBRANCH   5  12
BRANCH   6  22
ATOM     22  O   UNL     1      58.997 216.745 334.290  0.00  0.00    +0.000 OA
ATOM     23  H   UNL     1      59.435 216.250 333.580  0.00  0.00    +0.000 HD
ENDBRANCH   6  22
BRANCH   8  24
ATOM     24  O   UNL     1      56.624 216.894 329.608  0.00  0.00    +0.000 OA
ATOM     25  H   UNL     1      56.431 217.280 328.721  0.00  0.00    +0.000 HD
ENDBRANCH   8  24
BRANCH  10  26
ATOM     26  O   UNL     1      52.699 219.369 330.596  0.00  0.00    +0.000 OA
ATOM     27  H   UNL     1      52.377 219.948 331.310  0.00  0.00    +0.000 HD
ENDBRANCH  10  26
TORSDOF 6
ENDMDL
MODEL 4
REMARK VINA RESULT:      -5.2     27.300     29.370
REMARK  Name = Quercetin.pdbqt.pdb
REMARK  6 active torsions:
REMARK  status: ('A' for Active; 'I' for Inactive)
REMARK    1  A    between atoms: C_5  and  C_12
REMARK    2  A    between atoms: C_6  and  O_22
REMARK    3  A    between atoms: C_8  and  O_24
REMARK    4  A    between atoms: C_10  and  O_26
REMARK    5  A    between atoms: C_15  and  O_18
REMARK    6  A    between atoms: C_17  and  O_20
REMARK                            x       y       z     vdW  Elec       q    Type
REMARK                         _______ _______ _______ _____ _____    ______ ____
ROOT
ATOM      1  O   UNL     1      56.264 218.227 335.646  0.00  0.00    +0.000 OA
ATOM      2  O   UNL     1      60.049 217.278 334.505  0.00  0.00    +0.000 OA
ATOM      3  C   UNL     1      58.607 217.953 336.208  0.00  0.00    +0.000 A 
ATOM      4  C   UNL     1      57.296 218.270 336.544  0.00  0.00    +0.000 A 
ATOM      5  C   UNL     1      56.527 217.832 334.342  0.00  0.00    +0.000 A 
ATOM      6  C   UNL     1      57.751 217.508 333.873  0.00  0.00    +0.000 A 
ATOM      7  C   UNL     1      58.896 217.554 334.827  0.00  0.00    +0.000 A 
ATOM      8  C   UNL     1      59.614 218.021 337.179  0.00  0.00    +0.000 A 
ATOM      9  C   UNL     1      56.981 218.657 337.845  0.00  0.00    +0.000 A 
ATOM     10  C   UNL     1      57.988 218.720 338.803  0.00  0.00    +0.000 A 
ATOM     11  C   UNL     1      59.304 218.406 338.481  0.00  0.00    +0.000 A 
ENDROOT
BRANCH   5  12
ATOM     12  C   UNL     1      55.311 217.816 333.516  0.00  0.00    +0.000 A 
ATOM     13  C   UNL     1      54.506 216.674 333.442  0.00  0.00    +0.000 A 
ATOM     14  C   UNL     1      54.917 218.978 332.840  0.00  0.00    +0.000 A 
ATOM     15  C   UNL     1      53.343 216.699 332.683  0.00  0.00    +0.000 A 
ATOM     16  C   UNL     1      53.740 219.004 332.093  0.00  0.00    +0.000 A 
ATOM     17  C   UNL     1      52.951 217.864 332.034  0.00  0.00    +0.000 A 
BRANCH  15  18
ATOM     18  O   UNL     1      52.617 215.551 332.558  0.00  0.00    +0.000 OA
ATOM     19  H   UNL     1      53.204 214.813 332.805  0.00  0.00    +0.000 HD
ENDBRANCH  15  18
BRANCH  17  20
ATOM     20  O   UNL     1      51.771 217.910 331.349  0.00  0.00    +0.000 OA
ATOM     21  H   UNL     1      51.559 216.991 331.100  0.00  0.00    +0.000 HD
ENDBRANCH  17  20
ENDBRANCH   5  12
BRANCH   6  22
ATOM     22  O   UNL     1      58.039 217.150 332.570  0.00  0.00    +0.000 OA
ATOM     23  H   UNL     1      58.545 216.322 332.553  0.00  0.00    +0.000 HD
ENDBRANCH   6  22
BRANCH   8  24
ATOM     24  O   UNL     1      60.925 217.725 336.920  0.00  0.00    +0.000 OA
ATOM     25  H   UNL     1      61.252 218.348 336.229  0.00  0.00    +0.000 HD
ENDBRANCH   8  24
BRANCH  10  26
ATOM     26  O   UNL     1      57.655 219.101 340.070  0.00  0.00    +0.000 OA
ATOM     27  H   UNL     1      56.776 218.734 340.276  0.00  0.00    +0.000 HD
ENDBRANCH  10  26
TORSDOF 6
ENDMDL
MODEL 5
REMARK VINA RESULT:      -5.2     31.925     34.200
REMARK  Name = Quercetin.pdbqt.pdb
REMARK  6 active torsions:
REMARK  status: ('A' for Active; 'I' for Inactive)
REMARK    1  A    between atoms: C_5  and  C_12
REMARK    2  A    between atoms: C_6  and  O_22
REMARK    3  A    between atoms: C_8  and  O_24
REMARK    4  A    between atoms: C_10  and  O_26
REMARK    5  A    between atoms: C_15  and  O_18
REMARK    6  A    between atoms: C_17  and  O_20
REMARK                            x       y       z     vdW  Elec       q    Type
REMARK                         _______ _______ _______ _____ _____    ______ ____
ROOT
ATOM      1  O   UNL     1      71.010 221.558 341.177  0.00  0.00    +0.000 OA
ATOM      2  O   UNL     1      68.366 218.777 339.836  0.00  0.00    +0.000 OA
ATOM      3  C   UNL     1      69.530 220.756 339.432  0.00  0.00    +0.000 A 
ATOM      4  C   UNL     1      70.437 221.679 339.940  0.00  0.00    +0.000 A 
ATOM      5  C   UNL     1      70.691 220.458 341.959  0.00  0.00    +0.000 A 
ATOM      6  C   UNL     1      69.819 219.492 341.600  0.00  0.00    +0.000 A 
ATOM      7  C   UNL     1      69.172 219.601 340.261  0.00  0.00    +0.000 A 
ATOM      8  C   UNL     1      68.981 220.943 338.157  0.00  0.00    +0.000 A 
ATOM      9  C   UNL     1      70.800 222.792 339.184  0.00  0.00    +0.000 A 
ATOM     10  C   UNL     1      70.250 222.969 337.918  0.00  0.00    +0.000 A 
ATOM     11  C   UNL     1      69.342 222.053 337.398  0.00  0.00    +0.000 A 
ENDROOT
BRANCH   5  12
ATOM     12  C   UNL     1      71.408 220.468 343.242  0.00  0.00    +0.000 A 
ATOM     13  C   UNL     1      70.715 220.559 344.453  0.00  0.00    +0.000 A 
ATOM     14  C   UNL     1      72.801 220.321 343.259  0.00  0.00    +0.000 A 
ATOM     15  C   UNL     1      71.415 220.529 345.653  0.00  0.00    +0.000 A 
ATOM     16  C   UNL     1      73.499 220.273 344.465  0.00  0.00    +0.000 A 
ATOM     17  C   UNL     1      72.795 220.361 345.658  0.00  0.00    +0.000 A 
BRANCH  15  18
ATOM     18  O   UNL     1      70.728 220.702 346.818  0.00  0.00    +0.000 OA
ATOM     19  H   UNL     1      71.134 221.460 347.279  0.00  0.00    +0.000 HD
ENDBRANCH  15  18
BRANCH  17  20
ATOM     20  O   UNL     1      73.474 220.257 346.837  0.00  0.00    +0.000 OA
ATOM     21  H   UNL     1      72.852 220.524 347.539  0.00  0.00    +0.000 HD
ENDBRANCH  17  20
ENDBRANCH   5  12
BRANCH   6  22
ATOM     22  O   UNL     1      69.458 218.410 342.381  0.00  0.00    +0.000 OA
ATOM     23  H   UNL     1      69.418 217.605 341.841  0.00  0.00    +0.000 HD
ENDBRANCH   6  22
BRANCH   8  24
ATOM     24  O   UNL     1      68.083 220.077 337.594  0.00  0.00    +0.000 OA
ATOM     25  H   UNL     1      68.269 219.172 337.938  0.00  0.00    +0.000 HD
ENDBRANCH   8  24
BRANCH  10  26
ATOM     26  O   UNL     1      70.622 224.065 337.197  0.00  0.00    +0.000 OA
ATOM     27  H   UNL     1      69.903 224.277 336.575  0.00  0.00    +0.000 HD
ENDBRANCH  10  26
TORSDOF 6
ENDMDL
MODEL 6
REMARK VINA RESULT:      -5.2     29.560     31.906
REMARK  Name = Quercetin.pdbqt.pdb
REMARK  6 active torsions:
REMARK  status: ('A' for Active; 'I' for Inactive)
REMARK    1  A    between atoms: C_5  and  C_12
REMARK    2  A    between atoms: C_6  and  O_22
REMARK    3  A    between atoms: C_8  and  O_24
REMARK    4  A    between atoms: C_10  and  O_26
REMARK    5  A    between atoms: C_15  and  O_18
REMARK    6  A    between atoms: C_17  and  O_20
REMARK                            x       y       z     vdW  Elec       q    Type
REMARK                         _______ _______ _______ _____ _____    ______ ____
ROOT
ATOM      1  O   UNL     1      68.077 220.770 337.163  0.00  0.00    +0.000 OA
ATOM      2  O   UNL     1      66.523 217.764 339.415  0.00  0.00    +0.000 OA
ATOM      3  C   UNL     1      66.459 218.984 337.429  0.00  0.00    +0.000 A 
ATOM      4  C   UNL     1      67.026 220.025 336.703  0.00  0.00    +0.000 A 
ATOM      5  C   UNL     1      68.619 220.470 338.404  0.00  0.00    +0.000 A 
ATOM      6  C   UNL     1      68.163 219.497 339.223  0.00  0.00    +0.000 A 
ATOM      7  C   UNL     1      67.014 218.673 338.751  0.00  0.00    +0.000 A 
ATOM      8  C   UNL     1      65.384 218.263 336.896  0.00  0.00    +0.000 A 
ATOM      9  C   UNL     1      66.526 220.353 335.444  0.00  0.00    +0.000 A 
ATOM     10  C   UNL     1      65.457 219.630 334.923  0.00  0.00    +0.000 A 
ATOM     11  C   UNL     1      64.881 218.586 335.639  0.00  0.00    +0.000 A 
ENDROOT
BRANCH   5  12
ATOM     12  C   UNL     1      69.751 221.346 338.738  0.00  0.00    +0.000 A 
ATOM     13  C   UNL     1      70.235 222.280 337.816  0.00  0.00    +0.000 A 
ATOM     14  C   UNL     1      70.317 221.290 340.018  0.00  0.00    +0.000 A 
ATOM     15  C   UNL     1      71.282 223.121 338.171  0.00  0.00    +0.000 A 
ATOM     16  C   UNL     1      71.357 222.147 340.377  0.00  0.00    +0.000 A 
ATOM     17  C   UNL     1      71.821 223.071 339.452  0.00  0.00    +0.000 A 
BRANCH  15  18
ATOM     18  O   UNL     1      71.792 223.967 337.230  0.00  0.00    +0.000 OA
ATOM     19  H   UNL     1      72.746 223.776 337.162  0.00  0.00    +0.000 HD
ENDBRANCH  15  18
BRANCH  17  20
ATOM     20  O   UNL     1      72.800 223.947 339.823  0.00  0.00    +0.000 OA
ATOM     21  H   UNL     1      73.436 223.981 339.085  0.00  0.00    +0.000 HD
ENDBRANCH  17  20
ENDBRANCH   5  12
BRANCH   6  22
ATOM     22  O   UNL     1      68.664 219.208 340.478  0.00  0.00    +0.000 OA
ATOM     23  H   UNL     1      68.168 219.693 341.156  0.00  0.00    +0.000 HD
ENDBRANCH   6  22
BRANCH   8  24
ATOM     24  O   UNL     1      64.776 217.228 337.555  0.00  0.00    +0.000 OA
ATOM     25  H   UNL     1      65.407 216.876 338.225  0.00  0.00    +0.000 HD
ENDBRANCH   8  24
BRANCH  10  26
ATOM     26  O   UNL     1      64.985 219.970 333.689  0.00  0.00    +0.000 OA
ATOM     27  H   UNL     1      64.048 220.218 333.781  0.00  0.00    +0.000 HD
ENDBRANCH  10  26
TORSDOF 6
ENDMDL
MODEL 7
REMARK VINA RESULT:      -5.1     19.380     21.462
REMARK  Name = Quercetin.pdbqt.pdb
REMARK  6 active torsions:
REMARK  status: ('A' for Active; 'I' for Inactive)
REMARK    1  A    between atoms: C_5  and  C_12
REMARK    2  A    between atoms: C_6  and  O_22
REMARK    3  A    between atoms: C_8  and  O_24
REMARK    4  A    between atoms: C_10  and  O_26
REMARK    5  A    between atoms: C_15  and  O_18
REMARK    6  A    between atoms: C_17  and  O_20
REMARK                            x       y       z     vdW  Elec       q    Type
REMARK                         _______ _______ _______ _____ _____    ______ ____
ROOT
ATOM      1  O   UNL     1      61.301 225.921 324.732  0.00  0.00    +0.000 OA
ATOM      2  O   UNL     1      63.620 225.060 327.958  0.00  0.00    +0.000 OA
ATOM      3  C   UNL     1      61.703 224.589 326.718  0.00  0.00    +0.000 A 
ATOM      4  C   UNL     1      60.946 224.927 325.602  0.00  0.00    +0.000 A 
ATOM      5  C   UNL     1      62.480 226.618 324.956  0.00  0.00    +0.000 A 
ATOM      6  C   UNL     1      63.306 226.406 326.004  0.00  0.00    +0.000 A 
ATOM      7  C   UNL     1      62.939 225.334 326.973  0.00  0.00    +0.000 A 
ATOM      8  C   UNL     1      61.277 223.559 327.567  0.00  0.00    +0.000 A 
ATOM      9  C   UNL     1      59.763 224.244 325.327  0.00  0.00    +0.000 A 
ATOM     10  C   UNL     1      59.349 223.222 326.176  0.00  0.00    +0.000 A 
ATOM     11  C   UNL     1      60.097 222.874 327.295  0.00  0.00    +0.000 A 
ENDROOT
BRANCH   5  12
ATOM     12  C   UNL     1      62.726 227.632 323.921  0.00  0.00    +0.000 A 
ATOM     13  C   UNL     1      63.993 227.782 323.347  0.00  0.00    +0.000 A 
ATOM     14  C   UNL     1      61.665 228.420 323.456  0.00  0.00    +0.000 A 
ATOM     15  C   UNL     1      64.189 228.722 322.344  0.00  0.00    +0.000 A 
ATOM     16  C   UNL     1      61.861 229.352 322.437  0.00  0.00    +0.000 A 
ATOM     17  C   UNL     1      63.123 229.484 321.876  0.00  0.00    +0.000 A 
BRANCH  15  18
ATOM     18  O   UNL     1      65.448 228.909 321.856  0.00  0.00    +0.000 OA
ATOM     19  H   UNL     1      65.738 228.057 321.479  0.00  0.00    +0.000 HD
ENDBRANCH  15  18
BRANCH  17  20
ATOM     20  O   UNL     1      63.300 230.355 320.841  0.00  0.00    +0.000 OA
ATOM     21  H   UNL     1      63.825 229.884 320.167  0.00  0.00    +0.000 HD
ENDBRANCH  17  20
ENDBRANCH   5  12
BRANCH   6  22
ATOM     22  O   UNL     1      64.462 227.116 326.266  0.00  0.00    +0.000 OA
ATOM     23  H   UNL     1      64.892 227.376 325.436  0.00  0.00    +0.000 HD
ENDBRANCH   6  22
BRANCH   8  24
ATOM     24  O   UNL     1      61.971 223.175 328.682  0.00  0.00    +0.000 OA
ATOM     25  H   UNL     1      62.488 222.366 328.461  0.00  0.00    +0.000 HD
ENDBRANCH   8  24
BRANCH  10  26
ATOM     26  O   UNL     1      58.187 222.568 325.885  0.00  0.00    +0.000 OA
ATOM     27  H   UNL     1      57.616 223.175 325.379  0.00  0.00    +0.000 HD
ENDBRANCH  10  26
TORSDOF 6
ENDMDL
MODEL 8
REMARK VINA RESULT:      -5.1     29.712     31.262
REMARK  Name = Quercetin.pdbqt.pdb
REMARK  6 active torsions:
REMARK  status: ('A' for Active; 'I' for Inactive)
REMARK    1  A    between atoms: C_5  and  C_12
REMARK    2  A    between atoms: C_6  and  O_22
REMARK    3  A    between atoms: C_8  and  O_24
REMARK    4  A    between atoms: C_10  and  O_26
REMARK    5  A    between atoms: C_15  and  O_18
REMARK    6  A    between atoms: C_17  and  O_20
REMARK                            x       y       z     vdW  Elec       q    Type
REMARK                         _______ _______ _______ _____ _____    ______ ____
ROOT
ATOM      1  O   UNL     1      69.089 220.268 335.928  0.00  0.00    +0.000 OA
ATOM      2  O   UNL     1      65.049 219.839 335.805  0.00  0.00    +0.000 OA
ATOM      3  C   UNL     1      67.076 219.823 334.653  0.00  0.00    +0.000 A 
ATOM      4  C   UNL     1      68.453 219.984 334.750  0.00  0.00    +0.000 A 
ATOM      5  C   UNL     1      68.335 220.387 337.086  0.00  0.00    +0.000 A 
ATOM      6  C   UNL     1      66.990 220.269 337.138  0.00  0.00    +0.000 A 
ATOM      7  C   UNL     1      66.269 219.967 335.868  0.00  0.00    +0.000 A 
ATOM      8  C   UNL     1      66.491 219.533 333.413  0.00  0.00    +0.000 A 
ATOM      9  C   UNL     1      69.254 219.857 333.617  0.00  0.00    +0.000 A 
ATOM     10  C   UNL     1      68.664 219.569 332.391  0.00  0.00    +0.000 A 
ATOM     11  C   UNL     1      67.287 219.406 332.278  0.00  0.00    +0.000 A 
ENDROOT
BRANCH   5  12
ATOM     12  C   UNL     1      69.170 220.669 338.262  0.00  0.00    +0.000 A 
ATOM     13  C   UNL     1      69.611 221.968 338.536  0.00  0.00    +0.000 A 
ATOM     14  C   UNL     1      69.480 219.636 339.156  0.00  0.00    +0.000 A 
ATOM     15  C   UNL     1      70.368 222.213 339.675  0.00  0.00    +0.000 A 
ATOM     16  C   UNL     1      70.226 219.888 340.307  0.00  0.00    +0.000 A 
ATOM     17  C   UNL     1      70.652 221.184 340.566  0.00  0.00    +0.000 A 
BRANCH  15  18
ATOM     18  O   UNL     1      70.856 223.469 339.881  0.00  0.00    +0.000 OA
ATOM     19  H   UNL     1      70.483 224.039 339.182  0.00  0.00    +0.000 HD
ENDBRANCH  15  18
BRANCH  17  20
ATOM     20  O   UNL     1      71.332 221.439 341.721  0.00  0.00    +0.000 OA
ATOM     21  H   UNL     1      71.196 222.383 341.921  0.00  0.00    +0.000 HD
ENDBRANCH  17  20
ENDBRANCH   5  12
BRANCH   6  22
ATOM     22  O   UNL     1      66.218 220.423 338.273  0.00  0.00    +0.000 OA
ATOM     23  H   UNL     1      65.781 221.289 338.267  0.00  0.00    +0.000 HD
ENDBRANCH   6  22
BRANCH   8  24
ATOM     24  O   UNL     1      65.144 219.364 333.243  0.00  0.00    +0.000 OA
ATOM     25  H   UNL     1      64.915 219.617 332.318  0.00  0.00    +0.000 HD
ENDBRANCH   8  24
BRANCH  10  26
ATOM     26  O   UNL     1      69.470 219.450 331.296  0.00  0.00    +0.000 OA
ATOM     27  H   UNL     1      68.902 219.408 330.505  0.00  0.00    +0.000 HD
ENDBRANCH  10  26
TORSDOF 6
ENDMDL
MODEL 9
REMARK VINA RESULT:      -5.1     19.701     21.838
REMARK  Name = Quercetin.pdbqt.pdb
REMARK  6 active torsions:
REMARK  status: ('A' for Active; 'I' for Inactive)
REMARK    1  A    between atoms: C_5  and  C_12
REMARK    2  A    between atoms: C_6  and  O_22
REMARK    3  A    between atoms: C_8  and  O_24
REMARK    4  A    between atoms: C_10  and  O_26
REMARK    5  A    between atoms: C_15  and  O_18
REMARK    6  A    between atoms: C_17  and  O_20
REMARK                            x       y       z     vdW  Elec       q    Type
REMARK                         _______ _______ _______ _____ _____    ______ ____
ROOT
ATOM      1  O   UNL     1      60.736 225.123 324.321  0.00  0.00    +0.000 OA
ATOM      2  O   UNL     1      61.337 224.188 328.230  0.00  0.00    +0.000 OA
ATOM      3  C   UNL     1      60.057 223.904 326.303  0.00  0.00    +0.000 A 
ATOM      4  C   UNL     1      59.895 224.261 324.969  0.00  0.00    +0.000 A 
ATOM      5  C   UNL     1      61.813 225.658 325.013  0.00  0.00    +0.000 A 
ATOM      6  C   UNL     1      62.085 225.411 326.313  0.00  0.00    +0.000 A 
ATOM      7  C   UNL     1      61.180 224.481 327.048  0.00  0.00    +0.000 A 
ATOM      8  C   UNL     1      59.156 223.016 326.904  0.00  0.00    +0.000 A 
ATOM      9  C   UNL     1      58.838 223.736 324.228  0.00  0.00    +0.000 A 
ATOM     10  C   UNL     1      57.949 222.854 324.834  0.00  0.00    +0.000 A 
ATOM     11  C   UNL     1      58.099 222.489 326.168  0.00  0.00    +0.000 A 
ENDROOT
BRANCH   5  12
ATOM     12  C   UNL     1      62.628 226.542 324.168  0.00  0.00    +0.000 A 
ATOM     13  C   UNL     1      62.203 227.840 323.865  0.00  0.00    +0.000 A 
ATOM     14  C   UNL     1      63.876 226.104 323.708  0.00  0.00    +0.000 A 
ATOM     15  C   UNL     1      63.011 228.667 323.095  0.00  0.00    +0.000 A 
ATOM     16  C   UNL     1      64.692 226.943 322.950  0.00  0.00    +0.000 A 
ATOM     17  C   UNL     1      64.258 228.230 322.662  0.00  0.00    +0.000 A 
BRANCH  15  18
ATOM     18  O   UNL     1      62.542 229.899 322.743  0.00  0.00    +0.000 OA
ATOM     19  H   UNL     1      63.253 230.344 322.245  0.00  0.00    +0.000 HD
ENDBRANCH  15  18
BRANCH  17  20
ATOM     20  O   UNL     1      65.081 229.067 321.968  0.00  0.00    +0.000 OA
ATOM     21  H   UNL     1      64.694 229.164 321.078  0.00  0.00    +0.000 HD
ENDBRANCH  17  20
ENDBRANCH   5  12
BRANCH   6  22
ATOM     22  O   UNL     1      63.128 225.964 327.031  0.00  0.00    +0.000 OA
ATOM     23  H   UNL     1      63.318 226.860 326.709  0.00  0.00    +0.000 HD
ENDBRANCH   6  22
BRANCH   8  24
ATOM     24  O   UNL     1      59.252 222.623 328.212  0.00  0.00    +0.000 OA
ATOM     25  H   UNL     1      58.931 223.361 328.781  0.00  0.00    +0.000 HD
ENDBRANCH   8  24
BRANCH  10  26
ATOM     26  O   UNL     1      56.923 222.353 324.087  0.00  0.00    +0.000 OA
ATOM     27  H   UNL     1      57.299 221.957 323.281  0.00  0.00    +0.000 HD
ENDBRANCH  10  26
TORSDOF 6
ENDMDL
