MODEL 1
REMARK VINA RESULT:      -5.0      0.000      0.000
REMARK  Name = 
REMARK  14 active torsions:
REMARK  status: ('A' for Active; 'I' for Inactive)
REMARK    1  A    between atoms: O_1  and  C_24
REMARK    2  A    between atoms: O_1  and  C_36
REMARK    3  A    between atoms: O_4  and  C_30
REMARK    4  A    between atoms: O_4  and  C_37
REMARK    5  A    between atoms: O_7  and  C_33
REMARK    6  A    between atoms: O_7  and  C_38
REMARK    7  A    between atoms: N_10  and  C_23
REMARK    8  A    between atoms: C_15  and  C_26
REMARK    9  A    between atoms: C_16  and  C_24
REMARK   10  A    between atoms: C_31  and  C_34
REMARK   11  A    between atoms: C_32  and  C_35
REMARK   12  A    between atoms: C_36  and  C_39
REMARK   13  A    between atoms: C_39  and  C_40
REMARK   14  A    between atoms: C_41  and  C_42
REMARK                            x       y       z     vdW  Elec       q    Type
REMARK                         _______ _______ _______ _____ _____    ______ ____
ROOT
ATOM      1  O   UNL     1      51.031 247.498 322.227  0.00  0.00    +0.000 OA
ATOM      2  O   UNL     1      55.478 244.583 322.223  0.00  0.00    +0.000 OA
ATOM      3  O   UNL     1      48.125 246.891 325.823  0.00  0.00    +0.000 OA
ATOM      4  O   UNL     1      48.905 241.847 327.313  0.00  0.00    +0.000 OA
ATOM      5  N   UNL     1      50.791 243.122 323.711  0.00  0.00    +0.000 NA
ATOM      6  N   UNL     1      50.765 243.605 320.814  0.00  0.00    +0.000 NA
ATOM      7  C   UNL     1      49.977 244.198 323.089  0.00  0.00    +0.000 C 
ATOM      8  C   UNL     1      50.651 244.751 321.761  0.00  0.00    +0.000 C 
ATOM      9  C   UNL     1      51.702 242.605 321.386  0.00  0.00    +0.000 C 
ATOM     10  C   UNL     1      51.115 242.035 322.732  0.00  0.00    +0.000 C 
ATOM     11  C   UNL     1      50.316 242.615 325.028  0.00  0.00    +0.000 C 
ATOM     12  C   UNL     1      49.708 245.336 324.097  0.00  0.00    +0.000 C 
ATOM     13  C   UNL     1      53.124 243.193 321.609  0.00  0.00    +0.000 C 
ATOM     14  C   UNL     1      52.010 245.375 322.045  0.00  0.00    +0.000 C 
ATOM     15  C   UNL     1      53.138 244.651 321.994  0.00  0.00    +0.000 C 
ATOM     16  C   UNL     1      49.412 243.568 325.794  0.00  0.00    +0.000 C 
ATOM     17  C   UNL     1      49.151 244.816 325.388  0.00  0.00    +0.000 C 
ATOM     18  C   UNL     1      51.083 244.006 319.447  0.00  0.00    +0.000 C 
ATOM     19  C   UNL     1      52.056 246.830 322.318  0.00  0.00    +0.000 C 
ATOM     20  C   UNL     1      54.455 245.257 322.281  0.00  0.00    +0.000 C 
ATOM     21  C   UNL     1      48.309 245.734 326.185  0.00  0.00    +0.000 C 
ATOM     22  C   UNL     1      48.768 243.030 327.021  0.00  0.00    +0.000 C 
ATOM     23  C   UNL     1      53.375 247.433 322.702  0.00  0.00    +0.000 C 
ATOM     24  C   UNL     1      54.495 246.693 322.659  0.00  0.00    +0.000 C 
ATOM     25  C   UNL     1      47.725 245.225 327.451  0.00  0.00    +0.000 C 
ATOM     26  C   UNL     1      47.951 243.967 327.861  0.00  0.00    +0.000 C 
ATOM     27  C   UNL     1      55.864 247.225 322.972  0.00  0.00    +0.000 C 
ATOM     28  C   UNL     1      46.889 246.218 328.206  0.00  0.00    +0.000 C 
ENDROOT
BRANCH  23  29
ATOM     29  O   UNL     1      53.471 248.776 323.045  0.00  0.00    +0.000 OA
ATOM     30  C   UNL     1      53.537 249.687 321.950  0.00  0.00    +0.000 C 
ENDBRANCH  23  29
BRANCH  26  31
ATOM     31  O   UNL     1      47.362 243.528 329.043  0.00  0.00    +0.000 OA
ATOM     32  C   UNL     1      46.056 242.974 328.896  0.00  0.00    +0.000 C 
ENDBRANCH  26  31
BRANCH  10  34
ATOM     33  N   UNL     1      49.063 240.464 322.132  0.00  0.00    +0.000 NA
ATOM     34  C   UNL     1      49.969 241.136 322.406  0.00  0.00    +0.000 C 
ENDBRANCH  10  34
BRANCH  11  35
ATOM     35  C   UNL     1      51.575 242.276 325.881  0.00  0.00    +0.000 C 
BRANCH  35  36
ATOM     36  O   UNL     1      52.550 243.328 325.724  0.00  0.00    +0.000 OA
BRANCH  36  38
ATOM     37  O   UNL     1      53.778 243.405 327.656  0.00  0.00    +0.000 OA
ATOM     38  C   UNL     1      52.970 243.890 326.881  0.00  0.00    +0.000 C 
BRANCH  38  39
ATOM     39  C   UNL     1      52.414 245.266 327.029  0.00  0.00    +0.000 C 
ATOM     40  C   UNL     1      52.862 246.207 325.946  0.00  0.00    +0.000 C 
ATOM     41  C   UNL     1      51.602 245.667 328.027  0.00  0.00    +0.000 C 
ATOM     42  C   UNL     1      51.151 244.892 329.224  0.00  0.00    +0.000 C 
ENDBRANCH  38  39
ENDBRANCH  36  38
ENDBRANCH  35  36
ENDBRANCH  11  35
TORSDOF 7
ENDMDL
MODEL 2
REMARK VINA RESULT:      -4.9      2.276      3.632
REMARK  Name = 
REMARK  14 active torsions:
REMARK  status: ('A' for Active; 'I' for Inactive)
REMARK    1  A    between atoms: O_1  and  C_24
REMARK    2  A    between atoms: O_1  and  C_36
REMARK    3  A    between atoms: O_4  and  C_30
REMARK    4  A    between atoms: O_4  and  C_37
REMARK    5  A    between atoms: O_7  and  C_33
REMARK    6  A    between atoms: O_7  and  C_38
REMARK    7  A    between atoms: N_10  and  C_23
REMARK    8  A    between atoms: C_15  and  C_26
REMARK    9  A    between atoms: C_16  and  C_24
REMARK   10  A    between atoms: C_31  and  C_34
REMARK   11  A    between atoms: C_32  and  C_35
REMARK   12  A    between atoms: C_36  and  C_39
REMARK   13  A    between atoms: C_39  and  C_40
REMARK   14  A    between atoms: C_41  and  C_42
REMARK                            x       y       z     vdW  Elec       q    Type
REMARK                         _______ _______ _______ _____ _____    ______ ____
ROOT
ATOM      1  O   UNL     1      48.905 245.657 322.247  0.00  0.00    +0.000 OA
ATOM      2  O   UNL     1      51.840 241.376 321.096  0.00  0.00    +0.000 OA
ATOM      3  O   UNL     1      49.536 247.567 326.454  0.00  0.00    +0.000 OA
ATOM      4  O   UNL     1      51.000 243.495 329.546  0.00  0.00    +0.000 OA
ATOM      5  N   UNL     1      49.690 242.565 325.599  0.00  0.00    +0.000 NA
ATOM      6  N   UNL     1      47.569 241.987 323.651  0.00  0.00    +0.000 NA
ATOM      7  C   UNL     1      48.715 243.593 325.154  0.00  0.00    +0.000 C 
ATOM      8  C   UNL     1      48.220 243.329 323.668  0.00  0.00    +0.000 C 
ATOM      9  C   UNL     1      48.595 240.956 323.952  0.00  0.00    +0.000 C 
ATOM     10  C   UNL     1      49.160 241.177 325.405  0.00  0.00    +0.000 C 
ATOM     11  C   UNL     1      50.314 242.783 326.934  0.00  0.00    +0.000 C 
ATOM     12  C   UNL     1      49.304 245.012 325.305  0.00  0.00    +0.000 C 
ATOM     13  C   UNL     1      49.744 240.949 322.906  0.00  0.00    +0.000 C 
ATOM     14  C   UNL     1      49.373 243.399 322.676  0.00  0.00    +0.000 C 
ATOM     15  C   UNL     1      50.081 242.309 322.348  0.00  0.00    +0.000 C 
ATOM     16  C   UNL     1      50.288 244.222 327.427  0.00  0.00    +0.000 C 
ATOM     17  C   UNL     1      49.852 245.244 326.680  0.00  0.00    +0.000 C 
ATOM     18  C   UNL     1      46.798 241.726 322.440  0.00  0.00    +0.000 C 
ATOM     19  C   UNL     1      49.649 244.705 322.034  0.00  0.00    +0.000 C 
ATOM     20  C   UNL     1      51.207 242.383 321.393  0.00  0.00    +0.000 C 
ATOM     21  C   UNL     1      49.890 246.638 327.172  0.00  0.00    +0.000 C 
ATOM     22  C   UNL     1      50.730 244.452 328.827  0.00  0.00    +0.000 C 
ATOM     23  C   UNL     1      50.847 244.808 321.138  0.00  0.00    +0.000 C 
ATOM     24  C   UNL     1      51.556 243.711 320.825  0.00  0.00    +0.000 C 
ATOM     25  C   UNL     1      50.402 246.882 328.544  0.00  0.00    +0.000 C 
ATOM     26  C   UNL     1      50.817 245.866 329.319  0.00  0.00    +0.000 C 
ATOM     27  C   UNL     1      52.734 243.709 319.895  0.00  0.00    +0.000 C 
ATOM     28  C   UNL     1      50.416 248.322 328.968  0.00  0.00    +0.000 C 
ENDROOT
BRANCH  23  29
ATOM     29  O   UNL     1      51.206 246.023 320.565  0.00  0.00    +0.000 OA
ATOM     30  C   UNL     1      51.989 246.882 321.390  0.00  0.00    +0.000 C 
ENDBRANCH  23  29
BRANCH  26  31
ATOM     31  O   UNL     1      51.266 246.142 330.606  0.00  0.00    +0.000 OA
ATOM     32  C   UNL     1      50.304 245.934 331.638  0.00  0.00    +0.000 C 
ENDBRANCH  26  31
BRANCH  10  34
ATOM     33  N   UNL     1      47.311 240.420 327.150  0.00  0.00    +0.000 NA
ATOM     34  C   UNL     1      48.114 240.772 326.389  0.00  0.00    +0.000 C 
ENDBRANCH  10  34
BRANCH  11  35
ATOM     35  C   UNL     1      51.785 242.276 326.852  0.00  0.00    +0.000 C 
BRANCH  35  36
ATOM     36  O   UNL     1      52.398 242.794 325.653  0.00  0.00    +0.000 OA
BRANCH  36  38
ATOM     37  O   UNL     1      54.324 243.387 326.741  0.00  0.00    +0.000 OA
ATOM     38  C   UNL     1      53.497 243.556 325.860  0.00  0.00    +0.000 C 
BRANCH  38  39
ATOM     39  C   UNL     1      53.648 244.567 324.775  0.00  0.00    +0.000 C 
ATOM     40  C   UNL     1      53.997 243.963 323.444  0.00  0.00    +0.000 C 
ATOM     41  C   UNL     1      53.508 245.898 324.936  0.00  0.00    +0.000 C 
ATOM     42  C   UNL     1      53.265 246.660 326.200  0.00  0.00    +0.000 C 
ENDBRANCH  38  39
ENDBRANCH  36  38
ENDBRANCH  35  36
ENDBRANCH  11  35
TORSDOF 7
ENDMDL
MODEL 3
REMARK VINA RESULT:      -4.8      2.343      3.456
REMARK  Name = 
REMARK  14 active torsions:
REMARK  status: ('A' for Active; 'I' for Inactive)
REMARK    1  A    between atoms: O_1  and  C_24
REMARK    2  A    between atoms: O_1  and  C_36
REMARK    3  A    between atoms: O_4  and  C_30
REMARK    4  A    between atoms: O_4  and  C_37
REMARK    5  A    between atoms: O_7  and  C_33
REMARK    6  A    between atoms: O_7  and  C_38
REMARK    7  A    between atoms: N_10  and  C_23
REMARK    8  A    between atoms: C_15  and  C_26
REMARK    9  A    between atoms: C_16  and  C_24
REMARK   10  A    between atoms: C_31  and  C_34
REMARK   11  A    between atoms: C_32  and  C_35
REMARK   12  A    between atoms: C_36  and  C_39
REMARK   13  A    between atoms: C_39  and  C_40
REMARK   14  A    between atoms: C_41  and  C_42
REMARK                            x       y       z     vdW  Elec       q    Type
REMARK                         _______ _______ _______ _____ _____    ______ ____
ROOT
ATOM      1  O   UNL     1      49.426 247.805 323.886  0.00  0.00    +0.000 OA
ATOM      2  O   UNL     1      54.238 248.330 326.086  0.00  0.00    +0.000 OA
ATOM      3  O   UNL     1      46.891 244.131 325.234  0.00  0.00    +0.000 OA
ATOM      4  O   UNL     1      50.495 240.430 326.493  0.00  0.00    +0.000 OA
ATOM      5  N   UNL     1      51.930 243.986 324.634  0.00  0.00    +0.000 NA
ATOM      6  N   UNL     1      52.531 245.591 322.249  0.00  0.00    +0.000 NA
ATOM      7  C   UNL     1      50.866 244.541 323.758  0.00  0.00    +0.000 C 
ATOM      8  C   UNL     1      51.322 245.897 323.067  0.00  0.00    +0.000 C 
ATOM      9  C   UNL     1      53.631 245.180 323.158  0.00  0.00    +0.000 C 
ATOM     10  C   UNL     1      53.234 243.854 323.909  0.00  0.00    +0.000 C 
ATOM     11  C   UNL     1      51.565 242.779 325.428  0.00  0.00    +0.000 C 
ATOM     12  C   UNL     1      49.549 244.725 324.541  0.00  0.00    +0.000 C 
ATOM     13  C   UNL     1      54.003 246.299 324.171  0.00  0.00    +0.000 C 
ATOM     14  C   UNL     1      51.610 246.978 324.100  0.00  0.00    +0.000 C 
ATOM     15  C   UNL     1      52.836 247.143 324.618  0.00  0.00    +0.000 C 
ATOM     16  C   UNL     1      50.074 242.582 325.647  0.00  0.00    +0.000 C 
ATOM     17  C   UNL     1      49.153 243.476 325.267  0.00  0.00    +0.000 C 
ATOM     18  C   UNL     1      52.892 246.656 321.318  0.00  0.00    +0.000 C 
ATOM     19  C   UNL     1      50.502 247.887 324.471  0.00  0.00    +0.000 C 
ATOM     20  C   UNL     1      53.110 248.186 325.628  0.00  0.00    +0.000 C 
ATOM     21  C   UNL     1      47.713 243.275 325.543  0.00  0.00    +0.000 C 
ATOM     22  C   UNL     1      49.658 241.298 326.270  0.00  0.00    +0.000 C 
ATOM     23  C   UNL     1      50.747 248.886 325.562  0.00  0.00    +0.000 C 
ATOM     24  C   UNL     1      51.976 249.034 326.081  0.00  0.00    +0.000 C 
ATOM     25  C   UNL     1      47.301 242.029 326.234  0.00  0.00    +0.000 C 
ATOM     26  C   UNL     1      48.206 241.106 326.597  0.00  0.00    +0.000 C 
ATOM     27  C   UNL     1      52.326 250.043 327.136  0.00  0.00    +0.000 C 
ATOM     28  C   UNL     1      45.826 241.902 326.484  0.00  0.00    +0.000 C 
ENDROOT
BRANCH  23  29
ATOM     29  O   UNL     1      49.726 249.717 326.010  0.00  0.00    +0.000 OA
ATOM     30  C   UNL     1      48.842 249.141 326.968  0.00  0.00    +0.000 C 
ENDBRANCH  23  29
BRANCH  26  31
ATOM     31  O   UNL     1      47.769 239.943 327.221  0.00  0.00    +0.000 OA
ATOM     32  C   UNL     1      47.598 238.822 326.356  0.00  0.00    +0.000 C 
ENDBRANCH  26  31
BRANCH  10  34
ATOM     33  N   UNL     1      53.362 241.861 322.163  0.00  0.00    +0.000 NA
ATOM     34  C   UNL     1      53.289 242.723 322.936  0.00  0.00    +0.000 C 
ENDBRANCH  10  34
BRANCH  11  35
ATOM     35  C   UNL     1      52.295 242.885 326.801  0.00  0.00    +0.000 C 
BRANCH  35  36
ATOM     36  O   UNL     1      51.597 243.834 327.635  0.00  0.00    +0.000 OA
BRANCH  36  38
ATOM     37  O   UNL     1      53.428 245.209 327.569  0.00  0.00    +0.000 OA
ATOM     38  C   UNL     1      52.264 244.991 327.860  0.00  0.00    +0.000 C 
BRANCH  38  39
ATOM     39  C   UNL     1      51.342 246.032 328.398  0.00  0.00    +0.000 C 
ATOM     40  C   UNL     1      49.910 245.823 327.993  0.00  0.00    +0.000 C 
ATOM     41  C   UNL     1      51.720 247.077 329.161  0.00  0.00    +0.000 C 
ATOM     42  C   UNL     1      53.103 247.480 329.564  0.00  0.00    +0.000 C 
ENDBRANCH  38  39
ENDBRANCH  36  38
ENDBRANCH  35  36
ENDBRANCH  11  35
TORSDOF 7
ENDMDL
MODEL 4
REMARK VINA RESULT:      -4.7      2.786      6.951
REMARK  Name = 
REMARK  14 active torsions:
REMARK  status: ('A' for Active; 'I' for Inactive)
REMARK    1  A    between atoms: O_1  and  C_24
REMARK    2  A    between atoms: O_1  and  C_36
REMARK    3  A    between atoms: O_4  and  C_30
REMARK    4  A    between atoms: O_4  and  C_37
REMARK    5  A    between atoms: O_7  and  C_33
REMARK    6  A    between atoms: O_7  and  C_38
REMARK    7  A    between atoms: N_10  and  C_23
REMARK    8  A    between atoms: C_15  and  C_26
REMARK    9  A    between atoms: C_16  and  C_24
REMARK   10  A    between atoms: C_31  and  C_34
REMARK   11  A    between atoms: C_32  and  C_35
REMARK   12  A    between atoms: C_36  and  C_39
REMARK   13  A    between atoms: C_39  and  C_40
REMARK   14  A    between atoms: C_41  and  C_42
REMARK                            x       y       z     vdW  Elec       q    Type
REMARK                         _______ _______ _______ _____ _____    ______ ____
ROOT
ATOM      1  O   UNL     1      47.629 243.482 328.968  0.00  0.00    +0.000 OA
ATOM      2  O   UNL     1      47.689 244.910 323.847  0.00  0.00    +0.000 OA
ATOM      3  O   UNL     1      50.202 246.045 331.893  0.00  0.00    +0.000 OA
ATOM      4  O   UNL     1      54.206 247.848 328.895  0.00  0.00    +0.000 OA
ATOM      5  N   UNL     1      51.620 244.951 327.143  0.00  0.00    +0.000 NA
ATOM      6  N   UNL     1      50.814 242.170 326.653  0.00  0.00    +0.000 NA
ATOM      7  C   UNL     1      51.067 244.081 328.213  0.00  0.00    +0.000 C 
ATOM      8  C   UNL     1      50.055 243.004 327.629  0.00  0.00    +0.000 C 
ATOM      9  C   UNL     1      51.230 243.028 325.515  0.00  0.00    +0.000 C 
ATOM     10  C   UNL     1      52.213 244.148 326.026  0.00  0.00    +0.000 C 
ATOM     11  C   UNL     1      52.486 246.077 327.592  0.00  0.00    +0.000 C 
ATOM     12  C   UNL     1      50.407 244.926 329.323  0.00  0.00    +0.000 C 
ATOM     13  C   UNL     1      50.015 243.653 324.776  0.00  0.00    +0.000 C 
ATOM     14  C   UNL     1      48.851 243.667 326.976  0.00  0.00    +0.000 C 
ATOM     15  C   UNL     1      48.847 243.982 325.672  0.00  0.00    +0.000 C 
ATOM     16  C   UNL     1      52.283 246.505 329.037  0.00  0.00    +0.000 C 
ATOM     17  C   UNL     1      51.323 246.002 329.822  0.00  0.00    +0.000 C 
ATOM     18  C   UNL     1      50.114 240.952 326.257  0.00  0.00    +0.000 C 
ATOM     19  C   UNL     1      47.654 243.899 327.815  0.00  0.00    +0.000 C 
ATOM     20  C   UNL     1      47.681 244.636 325.042  0.00  0.00    +0.000 C 
ATOM     21  C   UNL     1      51.121 246.480 331.207  0.00  0.00    +0.000 C 
ATOM     22  C   UNL     1      53.251 247.494 329.578  0.00  0.00    +0.000 C 
ATOM     23  C   UNL     1      46.503 244.646 327.208  0.00  0.00    +0.000 C 
ATOM     24  C   UNL     1      46.516 244.966 325.904  0.00  0.00    +0.000 C 
ATOM     25  C   UNL     1      52.039 247.524 331.728  0.00  0.00    +0.000 C 
ATOM     26  C   UNL     1      53.027 248.020 330.965  0.00  0.00    +0.000 C 
ATOM     27  C   UNL     1      45.388 245.663 325.200  0.00  0.00    +0.000 C 
ATOM     28  C   UNL     1      51.765 247.961 333.138  0.00  0.00    +0.000 C 
ENDROOT
BRANCH  23  29
ATOM     29  O   UNL     1      45.381 244.963 327.965  0.00  0.00    +0.000 OA
ATOM     30  C   UNL     1      44.434 243.910 328.129  0.00  0.00    +0.000 C 
ENDBRANCH  23  29
BRANCH  26  31
ATOM     31  O   UNL     1      53.876 248.980 331.505  0.00  0.00    +0.000 OA
ATOM     32  C   UNL     1      53.584 250.324 331.128  0.00  0.00    +0.000 C 
ENDBRANCH  26  31
BRANCH  10  34
ATOM     33  N   UNL     1      54.566 243.056 326.580  0.00  0.00    +0.000 NA
ATOM     34  C   UNL     1      53.526 243.517 326.347  0.00  0.00    +0.000 C 
ENDBRANCH  10  34
BRANCH  11  35
ATOM     35  C   UNL     1      52.220 247.280 326.638  0.00  0.00    +0.000 C 
BRANCH  35  36
ATOM     36  O   UNL     1      53.418 247.562 325.886  0.00  0.00    +0.000 OA
BRANCH  36  38
ATOM     37  O   UNL     1      52.296 247.831 323.907  0.00  0.00    +0.000 OA
ATOM     38  C   UNL     1      53.278 247.482 324.542  0.00  0.00    +0.000 C 
BRANCH  38  39
ATOM     39  C   UNL     1      54.549 247.030 323.907  0.00  0.00    +0.000 C 
ATOM     40  C   UNL     1      54.543 245.573 323.538  0.00  0.00    +0.000 C 
ATOM     41  C   UNL     1      55.622 247.815 323.684  0.00  0.00    +0.000 C 
ATOM     42  C   UNL     1      55.825 249.244 324.080  0.00  0.00    +0.000 C 
ENDBRANCH  38  39
ENDBRANCH  36  38
ENDBRANCH  35  36
ENDBRANCH  11  35
TORSDOF 7
ENDMDL
MODEL 5
REMARK VINA RESULT:      -4.7      4.898      8.703
REMARK  Name = 
REMARK  14 active torsions:
REMARK  status: ('A' for Active; 'I' for Inactive)
REMARK    1  A    between atoms: O_1  and  C_24
REMARK    2  A    between atoms: O_1  and  C_36
REMARK    3  A    between atoms: O_4  and  C_30
REMARK    4  A    between atoms: O_4  and  C_37
REMARK    5  A    between atoms: O_7  and  C_33
REMARK    6  A    between atoms: O_7  and  C_38
REMARK    7  A    between atoms: N_10  and  C_23
REMARK    8  A    between atoms: C_15  and  C_26
REMARK    9  A    between atoms: C_16  and  C_24
REMARK   10  A    between atoms: C_31  and  C_34
REMARK   11  A    between atoms: C_32  and  C_35
REMARK   12  A    between atoms: C_36  and  C_39
REMARK   13  A    between atoms: C_39  and  C_40
REMARK   14  A    between atoms: C_41  and  C_42
REMARK                            x       y       z     vdW  Elec       q    Type
REMARK                         _______ _______ _______ _____ _____    ______ ____
ROOT
ATOM      1  O   UNL     1      49.525 240.478 327.112  0.00  0.00    +0.000 OA
ATOM      2  O   UNL     1      47.475 244.383 324.142  0.00  0.00    +0.000 OA
ATOM      3  O   UNL     1      49.362 236.174 325.324  0.00  0.00    +0.000 OA
ATOM      4  O   UNL     1      45.048 236.198 322.216  0.00  0.00    +0.000 OA
ATOM      5  N   UNL     1      45.678 239.610 324.690  0.00  0.00    +0.000 NA
ATOM      6  N   UNL     1      45.414 241.029 327.248  0.00  0.00    +0.000 NA
ATOM      7  C   UNL     1      46.416 239.196 325.912  0.00  0.00    +0.000 C 
ATOM      8  C   UNL     1      46.725 240.434 326.859  0.00  0.00    +0.000 C 
ATOM      9  C   UNL     1      44.756 241.572 326.032  0.00  0.00    +0.000 C 
ATOM     10  C   UNL     1      44.451 240.400 325.025  0.00  0.00    +0.000 C 
ATOM     11  C   UNL     1      45.444 238.548 323.672  0.00  0.00    +0.000 C 
ATOM     12  C   UNL     1      47.708 238.437 325.542  0.00  0.00    +0.000 C 
ATOM     13  C   UNL     1      45.607 242.679 325.351  0.00  0.00    +0.000 C 
ATOM     14  C   UNL     1      47.615 241.456 326.167  0.00  0.00    +0.000 C 
ATOM     15  C   UNL     1      47.097 242.471 325.459  0.00  0.00    +0.000 C 
ATOM     16  C   UNL     1      46.395 237.364 323.748  0.00  0.00    +0.000 C 
ATOM     17  C   UNL     1      47.443 237.319 324.581  0.00  0.00    +0.000 C 
ATOM     18  C   UNL     1      45.508 241.980 328.351  0.00  0.00    +0.000 C 
ATOM     19  C   UNL     1      49.079 241.332 326.352  0.00  0.00    +0.000 C 
ATOM     20  C   UNL     1      47.964 243.456 324.779  0.00  0.00    +0.000 C 
ATOM     21  C   UNL     1      48.378 236.173 324.592  0.00  0.00    +0.000 C 
ATOM     22  C   UNL     1      46.082 236.203 322.876  0.00  0.00    +0.000 C 
ATOM     23  C   UNL     1      49.967 242.270 325.590  0.00  0.00    +0.000 C 
ATOM     24  C   UNL     1      49.435 243.275 324.875  0.00  0.00    +0.000 C 
ATOM     25  C   UNL     1      48.112 235.044 323.668  0.00  0.00    +0.000 C 
ATOM     26  C   UNL     1      47.050 235.057 322.845  0.00  0.00    +0.000 C 
ATOM     27  C   UNL     1      50.246 244.292 324.126  0.00  0.00    +0.000 C 
ATOM     28  C   UNL     1      49.109 233.923 323.733  0.00  0.00    +0.000 C 
ENDROOT
BRANCH  23  29
ATOM     29  O   UNL     1      51.351 242.156 325.660  0.00  0.00    +0.000 OA
ATOM     30  C   UNL     1      51.952 242.692 326.836  0.00  0.00    +0.000 C 
ENDBRANCH  23  29
BRANCH  26  31
ATOM     31  O   UNL     1      46.829 233.965 322.013  0.00  0.00    +0.000 OA
ATOM     32  C   UNL     1      47.287 234.125 320.672  0.00  0.00    +0.000 C 
ENDBRANCH  26  31
BRANCH  10  34
ATOM     33  N   UNL     1      42.420 238.983 325.975  0.00  0.00    +0.000 NA
ATOM     34  C   UNL     1      43.322 239.589 325.569  0.00  0.00    +0.000 C 
ENDBRANCH  10  34
BRANCH  11  35
ATOM     35  C   UNL     1      45.540 239.218 322.268  0.00  0.00    +0.000 C 
BRANCH  35  36
ATOM     36  O   UNL     1      46.690 240.090 322.238  0.00  0.00    +0.000 OA
BRANCH  36  38
ATOM     37  O   UNL     1      47.320 240.003 320.037  0.00  0.00    +0.000 OA
ATOM     38  C   UNL     1      47.556 239.854 321.225  0.00  0.00    +0.000 C 
BRANCH  38  39
ATOM     39  C   UNL     1      48.905 239.509 321.758  0.00  0.00    +0.000 C 
ATOM     40  C   UNL     1      49.539 240.626 322.538  0.00  0.00    +0.000 C 
ATOM     41  C   UNL     1      49.532 238.331 321.567  0.00  0.00    +0.000 C 
ATOM     42  C   UNL     1      49.089 237.167 320.739  0.00  0.00    +0.000 C 
ENDBRANCH  38  39
ENDBRANCH  36  38
ENDBRANCH  35  36
ENDBRANCH  11  35
TORSDOF 7
ENDMDL
MODEL 6
REMARK VINA RESULT:      -4.6     28.559     32.427
REMARK  Name = 
REMARK  14 active torsions:
REMARK  status: ('A' for Active; 'I' for Inactive)
REMARK    1  A    between atoms: O_1  and  C_24
REMARK    2  A    between atoms: O_1  and  C_36
REMARK    3  A    between atoms: O_4  and  C_30
REMARK    4  A    between atoms: O_4  and  C_37
REMARK    5  A    between atoms: O_7  and  C_33
REMARK    6  A    between atoms: O_7  and  C_38
REMARK    7  A    between atoms: N_10  and  C_23
REMARK    8  A    between atoms: C_15  and  C_26
REMARK    9  A    between atoms: C_16  and  C_24
REMARK   10  A    between atoms: C_31  and  C_34
REMARK   11  A    between atoms: C_32  and  C_35
REMARK   12  A    between atoms: C_36  and  C_39
REMARK   13  A    between atoms: C_39  and  C_40
REMARK   14  A    between atoms: C_41  and  C_42
REMARK                            x       y       z     vdW  Elec       q    Type
REMARK                         _______ _______ _______ _____ _____    ______ ____
ROOT
ATOM      1  O   UNL     1      64.627 234.914 353.436  0.00  0.00    +0.000 OA
ATOM      2  O   UNL     1      64.398 229.616 353.055  0.00  0.00    +0.000 OA
ATOM      3  O   UNL     1      64.710 237.305 349.433  0.00  0.00    +0.000 OA
ATOM      4  O   UNL     1      67.074 234.022 345.983  0.00  0.00    +0.000 OA
ATOM      5  N   UNL     1      67.048 232.845 350.078  0.00  0.00    +0.000 NA
ATOM      6  N   UNL     1      68.189 232.887 352.784  0.00  0.00    +0.000 NA
ATOM      7  C   UNL     1      67.026 234.059 350.934  0.00  0.00    +0.000 C 
ATOM      8  C   UNL     1      66.970 233.689 352.478  0.00  0.00    +0.000 C 
ATOM      9  C   UNL     1      68.120 231.608 352.032  0.00  0.00    +0.000 C 
ATOM     10  C   UNL     1      68.136 231.899 350.485  0.00  0.00    +0.000 C 
ATOM     11  C   UNL     1      66.977 233.075 348.608  0.00  0.00    +0.000 C 
ATOM     12  C   UNL     1      65.861 234.991 350.538  0.00  0.00    +0.000 C 
ATOM     13  C   UNL     1      66.875 230.764 352.424  0.00  0.00    +0.000 C 
ATOM     14  C   UNL     1      65.700 232.922 352.820  0.00  0.00    +0.000 C 
ATOM     15  C   UNL     1      65.657 231.582 352.773  0.00  0.00    +0.000 C 
ATOM     16  C   UNL     1      66.385 234.413 348.196  0.00  0.00    +0.000 C 
ATOM     17  C   UNL     1      65.853 235.279 349.067  0.00  0.00    +0.000 C 
ATOM     18  C   UNL     1      68.440 232.726 354.213  0.00  0.00    +0.000 C 
ATOM     19  C   UNL     1      64.525 233.702 353.271  0.00  0.00    +0.000 C 
ATOM     20  C   UNL     1      64.420 230.841 353.095  0.00  0.00    +0.000 C 
ATOM     21  C   UNL     1      65.239 236.550 348.625  0.00  0.00    +0.000 C 
ATOM     22  C   UNL     1      66.467 234.760 346.753  0.00  0.00    +0.000 C 
ATOM     23  C   UNL     1      63.241 232.966 353.508  0.00  0.00    +0.000 C 
ATOM     24  C   UNL     1      63.208 231.625 353.446  0.00  0.00    +0.000 C 
ATOM     25  C   UNL     1      65.251 236.865 347.175  0.00  0.00    +0.000 C 
ATOM     26  C   UNL     1      65.805 236.023 346.288  0.00  0.00    +0.000 C 
ATOM     27  C   UNL     1      61.983 230.802 353.722  0.00  0.00    +0.000 C 
ATOM     28  C   UNL     1      64.602 238.168 346.805  0.00  0.00    +0.000 C 
ENDROOT
BRANCH  23  29
ATOM     29  O   UNL     1      62.082 233.650 353.858  0.00  0.00    +0.000 OA
ATOM     30  C   UNL     1      61.351 234.214 352.772  0.00  0.00    +0.000 C 
ENDBRANCH  23  29
BRANCH  26  31
ATOM     31  O   UNL     1      65.813 236.373 344.942  0.00  0.00    +0.000 OA
ATOM     32  C   UNL     1      67.005 237.013 344.492  0.00  0.00    +0.000 C 
ENDBRANCH  26  31
BRANCH  10  34
ATOM     33  N   UNL     1      70.593 232.641 349.815  0.00  0.00    +0.000 NA
ATOM     34  C   UNL     1      69.510 232.333 350.097  0.00  0.00    +0.000 C 
ENDBRANCH  10  34
BRANCH  11  35
ATOM     35  C   UNL     1      66.141 231.912 347.993  0.00  0.00    +0.000 C 
BRANCH  35  36
ATOM     36  O   UNL     1      65.064 231.576 348.893  0.00  0.00    +0.000 OA
BRANCH  36  38
ATOM     37  O   UNL     1      64.102 230.323 347.235  0.00  0.00    +0.000 OA
ATOM     38  C   UNL     1      64.152 230.712 348.390  0.00  0.00    +0.000 C 
BRANCH  38  39
ATOM     39  C   UNL     1      63.278 230.181 349.475  0.00  0.00    +0.000 C 
ATOM     40  C   UNL     1      62.159 231.113 349.846  0.00  0.00    +0.000 C 
ATOM     41  C   UNL     1      63.450 228.996 350.094  0.00  0.00    +0.000 C 
ATOM     42  C   UNL     1      64.560 228.008 349.915  0.00  0.00    +0.000 C 
ENDBRANCH  38  39
ENDBRANCH  36  38
ENDBRANCH  35  36
ENDBRANCH  11  35
TORSDOF 7
ENDMDL
MODEL 7
REMARK VINA RESULT:      -4.4      3.216      6.587
REMARK  Name = 
REMARK  14 active torsions:
REMARK  status: ('A' for Active; 'I' for Inactive)
REMARK    1  A    between atoms: O_1  and  C_24
REMARK    2  A    between atoms: O_1  and  C_36
REMARK    3  A    between atoms: O_4  and  C_30
REMARK    4  A    between atoms: O_4  and  C_37
REMARK    5  A    between atoms: O_7  and  C_33
REMARK    6  A    between atoms: O_7  and  C_38
REMARK    7  A    between atoms: N_10  and  C_23
REMARK    8  A    between atoms: C_15  and  C_26
REMARK    9  A    between atoms: C_16  and  C_24
REMARK   10  A    between atoms: C_31  and  C_34
REMARK   11  A    between atoms: C_32  and  C_35
REMARK   12  A    between atoms: C_36  and  C_39
REMARK   13  A    between atoms: C_39  and  C_40
REMARK   14  A    between atoms: C_41  and  C_42
REMARK                            x       y       z     vdW  Elec       q    Type
REMARK                         _______ _______ _______ _____ _____    ______ ____
ROOT
ATOM      1  O   UNL     1      50.105 241.647 327.184  0.00  0.00    +0.000 OA
ATOM      2  O   UNL     1      50.273 244.961 323.030  0.00  0.00    +0.000 OA
ATOM      3  O   UNL     1      48.155 243.277 331.093  0.00  0.00    +0.000 OA
ATOM      4  O   UNL     1      49.060 248.515 330.935  0.00  0.00    +0.000 OA
ATOM      5  N   UNL     1      50.978 246.122 327.977  0.00  0.00    +0.000 NA
ATOM      6  N   UNL     1      53.192 244.418 327.071  0.00  0.00    +0.000 NA
ATOM      7  C   UNL     1      51.215 244.763 328.528  0.00  0.00    +0.000 C 
ATOM      8  C   UNL     1      51.889 243.804 327.456  0.00  0.00    +0.000 C 
ATOM      9  C   UNL     1      52.927 245.709 326.386  0.00  0.00    +0.000 C 
ATOM     10  C   UNL     1      52.223 246.705 327.383  0.00  0.00    +0.000 C 
ATOM     11  C   UNL     1      50.237 247.069 328.857  0.00  0.00    +0.000 C 
ATOM     12  C   UNL     1      49.907 244.157 329.079  0.00  0.00    +0.000 C 
ATOM     13  C   UNL     1      52.079 245.526 325.097  0.00  0.00    +0.000 C 
ATOM     14  C   UNL     1      50.990 243.605 326.244  0.00  0.00    +0.000 C 
ATOM     15  C   UNL     1      51.067 244.411 325.174  0.00  0.00    +0.000 C 
ATOM     16  C   UNL     1      49.391 246.413 329.936  0.00  0.00    +0.000 C 
ATOM     17  C   UNL     1      49.217 245.089 330.027  0.00  0.00    +0.000 C 
ATOM     18  C   UNL     1      54.067 243.517 326.328  0.00  0.00    +0.000 C 
ATOM     19  C   UNL     1      50.065 242.448 326.256  0.00  0.00    +0.000 C 
ATOM     20  C   UNL     1      50.185 244.222 324.004  0.00  0.00    +0.000 C 
ATOM     21  C   UNL     1      48.344 244.488 331.059  0.00  0.00    +0.000 C 
ATOM     22  C   UNL     1      48.786 247.319 330.948  0.00  0.00    +0.000 C 
ATOM     23  C   UNL     1      49.102 242.305 325.114  0.00  0.00    +0.000 C 
ATOM     24  C   UNL     1      49.182 243.126 324.055  0.00  0.00    +0.000 C 
ATOM     25  C   UNL     1      47.677 245.396 332.026  0.00  0.00    +0.000 C 
ATOM     26  C   UNL     1      47.862 246.725 331.969  0.00  0.00    +0.000 C 
ATOM     27  C   UNL     1      48.299 243.023 322.845  0.00  0.00    +0.000 C 
ATOM     28  C   UNL     1      46.803 244.712 333.037  0.00  0.00    +0.000 C 
ENDROOT
BRANCH  23  29
ATOM     29  O   UNL     1      48.157 241.286 325.103  0.00  0.00    +0.000 OA
ATOM     30  C   UNL     1      48.636 240.009 324.689  0.00  0.00    +0.000 C 
ENDBRANCH  23  29
BRANCH  26  31
ATOM     31  O   UNL     1      47.235 247.533 332.911  0.00  0.00    +0.000 OA
ATOM     32  C   UNL     1      48.033 247.869 334.044  0.00  0.00    +0.000 C 
ENDBRANCH  26  31
BRANCH  10  34
ATOM     33  N   UNL     1      54.021 247.552 329.141  0.00  0.00    +0.000 NA
ATOM     34  C   UNL     1      53.229 247.165 328.385  0.00  0.00    +0.000 C 
ENDBRANCH  10  34
BRANCH  11  35
ATOM     35  C   UNL     1      49.339 247.953 327.941  0.00  0.00    +0.000 C 
BRANCH  35  36
ATOM     36  O   UNL     1      48.777 247.133 326.895  0.00  0.00    +0.000 OA
BRANCH  36  38
ATOM     37  O   UNL     1      46.644 247.701 327.506  0.00  0.00    +0.000 OA
ATOM     38  C   UNL     1      47.440 246.942 326.979  0.00  0.00    +0.000 C 
BRANCH  38  39
ATOM     39  C   UNL     1      47.034 245.728 326.214  0.00  0.00    +0.000 C 
ATOM     40  C   UNL     1      46.884 244.506 327.075  0.00  0.00    +0.000 C 
ATOM     41  C   UNL     1      46.828 245.688 324.882  0.00  0.00    +0.000 C 
ATOM     42  C   UNL     1      47.031 246.779 323.878  0.00  0.00    +0.000 C 
ENDBRANCH  38  39
ENDBRANCH  36  38
ENDBRANCH  35  36
ENDBRANCH  11  35
TORSDOF 7
ENDMDL
MODEL 8
REMARK VINA RESULT:      -4.4     23.437     27.236
REMARK  Name = 
REMARK  14 active torsions:
REMARK  status: ('A' for Active; 'I' for Inactive)
REMARK    1  A    between atoms: O_1  and  C_24
REMARK    2  A    between atoms: O_1  and  C_36
REMARK    3  A    between atoms: O_4  and  C_30
REMARK    4  A    between atoms: O_4  and  C_37
REMARK    5  A    between atoms: O_7  and  C_33
REMARK    6  A    between atoms: O_7  and  C_38
REMARK    7  A    between atoms: N_10  and  C_23
REMARK    8  A    between atoms: C_15  and  C_26
REMARK    9  A    between atoms: C_16  and  C_24
REMARK   10  A    between atoms: C_31  and  C_34
REMARK   11  A    between atoms: C_32  and  C_35
REMARK   12  A    between atoms: C_36  and  C_39
REMARK   13  A    between atoms: C_39  and  C_40
REMARK   14  A    between atoms: C_41  and  C_42
REMARK                            x       y       z     vdW  Elec       q    Type
REMARK                         _______ _______ _______ _____ _____    ______ ____
ROOT
ATOM      1  O   UNL     1      54.088 244.535 349.521  0.00  0.00    +0.000 OA
ATOM      2  O   UNL     1      57.910 240.887 348.933  0.00  0.00    +0.000 OA
ATOM      3  O   UNL     1      51.256 244.037 353.192  0.00  0.00    +0.000 OA
ATOM      4  O   UNL     1      51.138 238.793 354.066  0.00  0.00    +0.000 OA
ATOM      5  N   UNL     1      53.093 240.128 350.523  0.00  0.00    +0.000 NA
ATOM      6  N   UNL     1      53.049 240.952 347.704  0.00  0.00    +0.000 NA
ATOM      7  C   UNL     1      52.471 241.401 350.073  0.00  0.00    +0.000 C 
ATOM      8  C   UNL     1      53.185 241.978 348.777  0.00  0.00    +0.000 C 
ATOM      9  C   UNL     1      53.804 239.738 348.106  0.00  0.00    +0.000 C 
ATOM     10  C   UNL     1      53.171 239.126 349.412  0.00  0.00    +0.000 C 
ATOM     11  C   UNL     1      52.581 239.561 351.801  0.00  0.00    +0.000 C 
ATOM     12  C   UNL     1      52.456 242.439 351.215  0.00  0.00    +0.000 C 
ATOM     13  C   UNL     1      55.317 240.028 348.308  0.00  0.00    +0.000 C 
ATOM     14  C   UNL     1      54.647 242.308 349.048  0.00  0.00    +0.000 C 
ATOM     15  C   UNL     1      55.617 241.403 348.851  0.00  0.00    +0.000 C 
ATOM     16  C   UNL     1      51.899 240.564 352.720  0.00  0.00    +0.000 C 
ATOM     17  C   UNL     1      51.861 241.878 352.470  0.00  0.00    +0.000 C 
ATOM     18  C   UNL     1      53.385 241.449 346.373  0.00  0.00    +0.000 C 
ATOM     19  C   UNL     1      54.973 243.687 349.477  0.00  0.00    +0.000 C 
ATOM     20  C   UNL     1      57.034 241.723 349.126  0.00  0.00    +0.000 C 
ATOM     21  C   UNL     1      51.234 242.831 353.413  0.00  0.00    +0.000 C 
ATOM     22  C   UNL     1      51.212 240.009 353.916  0.00  0.00    +0.000 C 
ATOM     23  C   UNL     1      56.394 243.991 349.847  0.00  0.00    +0.000 C 
ATOM     24  C   UNL     1      57.355 243.073 349.657  0.00  0.00    +0.000 C 
ATOM     25  C   UNL     1      50.613 242.288 354.646  0.00  0.00    +0.000 C 
ATOM     26  C   UNL     1      50.616 240.970 354.901  0.00  0.00    +0.000 C 
ATOM     27  C   UNL     1      58.809 243.307 349.946  0.00  0.00    +0.000 C 
ATOM     28  C   UNL     1      50.005 243.318 355.554  0.00  0.00    +0.000 C 
ENDROOT
BRANCH  23  29
ATOM     29  O   UNL     1      56.751 245.245 350.331  0.00  0.00    +0.000 OA
ATOM     30  C   UNL     1      56.476 245.471 351.711  0.00  0.00    +0.000 C 
ENDBRANCH  23  29
BRANCH  26  31
ATOM     31  O   UNL     1      50.001 240.506 356.059  0.00  0.00    +0.000 OA
ATOM     32  C   UNL     1      50.885 240.236 357.145  0.00  0.00    +0.000 C 
ENDBRANCH  26  31
BRANCH  10  34
ATOM     33  N   UNL     1      50.857 238.015 348.744  0.00  0.00    +0.000 NA
ATOM     34  C   UNL     1      51.867 238.494 349.056  0.00  0.00    +0.000 C 
ENDBRANCH  10  34
BRANCH  11  35
ATOM     35  C   UNL     1      53.786 238.901 352.536  0.00  0.00    +0.000 C 
BRANCH  35  36
ATOM     36  O   UNL     1      55.007 239.543 352.113  0.00  0.00    +0.000 OA
BRANCH  36  38
ATOM     37  O   UNL     1      56.205 238.846 353.937  0.00  0.00    +0.000 OA
ATOM     38  C   UNL     1      55.944 239.676 353.081  0.00  0.00    +0.000 C 
BRANCH  38  39
ATOM     39  C   UNL     1      56.727 240.929 352.886  0.00  0.00    +0.000 C 
ATOM     40  C   UNL     1      55.912 242.176 353.086  0.00  0.00    +0.000 C 
ATOM     41  C   UNL     1      58.031 240.980 352.549  0.00  0.00    +0.000 C 
ATOM     42  C   UNL     1      58.949 239.847 352.218  0.00  0.00    +0.000 C 
ENDBRANCH  38  39
ENDBRANCH  36  38
ENDBRANCH  35  36
ENDBRANCH  11  35
TORSDOF 7
ENDMDL
MODEL 9
REMARK VINA RESULT:      -4.4     29.860     33.745
REMARK  Name = 
REMARK  14 active torsions:
REMARK  status: ('A' for Active; 'I' for Inactive)
REMARK    1  A    between atoms: O_1  and  C_24
REMARK    2  A    between atoms: O_1  and  C_36
REMARK    3  A    between atoms: O_4  and  C_30
REMARK    4  A    between atoms: O_4  and  C_37
REMARK    5  A    between atoms: O_7  and  C_33
REMARK    6  A    between atoms: O_7  and  C_38
REMARK    7  A    between atoms: N_10  and  C_23
REMARK    8  A    between atoms: C_15  and  C_26
REMARK    9  A    between atoms: C_16  and  C_24
REMARK   10  A    between atoms: C_31  and  C_34
REMARK   11  A    between atoms: C_32  and  C_35
REMARK   12  A    between atoms: C_36  and  C_39
REMARK   13  A    between atoms: C_39  and  C_40
REMARK   14  A    between atoms: C_41  and  C_42
REMARK                            x       y       z     vdW  Elec       q    Type
REMARK                         _______ _______ _______ _____ _____    ______ ____
ROOT
ATOM      1  O   UNL     1      63.153 232.092 354.850  0.00  0.00    +0.000 OA
ATOM      2  O   UNL     1      63.778 227.291 352.652  0.00  0.00    +0.000 OA
ATOM      3  O   UNL     1      63.883 235.777 352.088  0.00  0.00    +0.000 OA
ATOM      4  O   UNL     1      67.467 234.082 348.545  0.00  0.00    +0.000 OA
ATOM      5  N   UNL     1      66.596 231.495 351.817  0.00  0.00    +0.000 NA
ATOM      6  N   UNL     1      67.015 230.598 354.582  0.00  0.00    +0.000 NA
ATOM      7  C   UNL     1      66.192 232.312 352.990  0.00  0.00    +0.000 C 
ATOM      8  C   UNL     1      65.809 231.403 354.235  0.00  0.00    +0.000 C 
ATOM      9  C   UNL     1      67.316 229.679 353.455  0.00  0.00    +0.000 C 
ATOM     10  C   UNL     1      67.672 230.514 352.168  0.00  0.00    +0.000 C 
ATOM     11  C   UNL     1      66.859 232.241 350.554  0.00  0.00    +0.000 C 
ATOM     12  C   UNL     1      65.041 233.272 352.621  0.00  0.00    +0.000 C 
ATOM     13  C   UNL     1      66.145 228.697 353.171  0.00  0.00    +0.000 C 
ATOM     14  C   UNL     1      64.616 230.509 353.926  0.00  0.00    +0.000 C 
ATOM     15  C   UNL     1      64.776 229.278 353.418  0.00  0.00    +0.000 C 
ATOM     16  C   UNL     1      66.204 233.610 350.470  0.00  0.00    +0.000 C 
ATOM     17  C   UNL     1      65.356 234.075 351.396  0.00  0.00    +0.000 C 
ATOM     18  C   UNL     1      66.925 229.939 355.882  0.00  0.00    +0.000 C 
ATOM     19  C   UNL     1      63.268 231.020 354.263  0.00  0.00    +0.000 C 
ATOM     20  C   UNL     1      63.615 228.418 353.108  0.00  0.00    +0.000 C 
ATOM     21  C   UNL     1      64.697 235.392 351.256  0.00  0.00    +0.000 C 
ATOM     22  C   UNL     1      66.590 234.461 349.315  0.00  0.00    +0.000 C 
ATOM     23  C   UNL     1      62.081 230.193 353.866  0.00  0.00    +0.000 C 
ATOM     24  C   UNL     1      62.255 228.966 353.348  0.00  0.00    +0.000 C 
ATOM     25  C   UNL     1      65.022 236.213 350.064  0.00  0.00    +0.000 C 
ATOM     26  C   UNL     1      65.892 235.777 349.139  0.00  0.00    +0.000 C 
ATOM     27  C   UNL     1      61.129 228.047 352.972  0.00  0.00    +0.000 C 
ATOM     28  C   UNL     1      64.307 237.532 349.990  0.00  0.00    +0.000 C 
ENDROOT
BRANCH  23  29
ATOM     29  O   UNL     1      60.787 230.651 354.085  0.00  0.00    +0.000 OA
ATOM     30  C   UNL     1      60.289 231.569 353.115  0.00  0.00    +0.000 C 
ENDBRANCH  23  29
BRANCH  26  31
ATOM     31  O   UNL     1      66.182 236.593 348.050  0.00  0.00    +0.000 OA
ATOM     32  C   UNL     1      65.457 236.291 346.860  0.00  0.00    +0.000 C 
ENDBRANCH  26  31
BRANCH  10  34
ATOM     33  N   UNL     1      70.068 231.613 352.469  0.00  0.00    +0.000 NA
ATOM     34  C   UNL     1      69.024 231.119 352.354  0.00  0.00    +0.000 C 
ENDBRANCH  10  34
BRANCH  11  35
ATOM     35  C   UNL     1      66.375 231.347 349.374  0.00  0.00    +0.000 C 
BRANCH  35  36
ATOM     36  O   UNL     1      64.947 231.495 349.222  0.00  0.00    +0.000 OA
BRANCH  36  38
ATOM     37  O   UNL     1      64.494 230.374 347.277  0.00  0.00    +0.000 OA
ATOM     38  C   UNL     1      64.351 230.534 348.478  0.00  0.00    +0.000 C 
BRANCH  38  39
ATOM     39  C   UNL     1      63.588 229.595 349.348  0.00  0.00    +0.000 C 
ATOM     40  C   UNL     1      64.319 228.310 349.619  0.00  0.00    +0.000 C 
ATOM     41  C   UNL     1      62.358 229.831 349.847  0.00  0.00    +0.000 C 
ATOM     42  C   UNL     1      61.463 231.002 349.592  0.00  0.00    +0.000 C 
ENDBRANCH  38  39
ENDBRANCH  36  38
ENDBRANCH  35  36
ENDBRANCH  11  35
TORSDOF 7
ENDMDL
