MODEL 1
REMARK VINA RESULT:      -5.6      0.000      0.000
REMARK  Name = Resveratrol.pdbqt.pdb
REMARK  5 active torsions:
REMARK  status: ('A' for Active; 'I' for Inactive)
REMARK    1  A    between atoms: C_1  and  C_11
REMARK    2  A    between atoms: C_4  and  O_7
REMARK    3  A    between atoms: C_5  and  O_9
REMARK    4  A    between atoms: C_12  and  C_13
REMARK    5  A    between atoms: C_18  and  O_19
REMARK                            x       y       z     vdW  Elec       q    Type
REMARK                         _______ _______ _______ _____ _____    ______ ____
ROOT
ATOM      1  C   UNL     1      56.884 218.390 335.338  0.00  0.00    +0.000 A 
ATOM      2  C   UNL     1      58.249 218.181 335.147  0.00  0.00    +0.000 A 
ATOM      3  C   UNL     1      56.369 218.527 336.627  0.00  0.00    +0.000 A 
ATOM      4  C   UNL     1      57.229 218.454 337.720  0.00  0.00    +0.000 A 
ATOM      5  C   UNL     1      59.091 218.110 336.253  0.00  0.00    +0.000 A 
ATOM      6  C   UNL     1      58.593 218.246 337.544  0.00  0.00    +0.000 A 
ENDROOT
BRANCH   4   7
ATOM      7  O   UNL     1      56.752 218.585 338.992  0.00  0.00    +0.000 OA
ATOM      8  H   UNL     1      57.159 217.892 339.542  0.00  0.00    +0.000 HD
ENDBRANCH   4   7
BRANCH   5   9
ATOM      9  O   UNL     1      60.425 217.905 336.041  0.00  0.00    +0.000 OA
ATOM     10  H   UNL     1      60.903 218.691 336.357  0.00  0.00    +0.000 HD
ENDBRANCH   5   9
BRANCH   1  11
ATOM     11  C   UNL     1      56.010 218.463 334.214  0.00  0.00    +0.000 C 
ATOM     12  C   UNL     1      55.274 218.525 333.266  0.00  0.00    +0.000 C 
BRANCH  12  13
ATOM     13  C   UNL     1      54.400 218.597 332.142  0.00  0.00    +0.000 A 
ATOM     14  C   UNL     1      54.928 218.617 330.851  0.00  0.00    +0.000 A 
ATOM     15  C   UNL     1      53.020 218.649 332.335  0.00  0.00    +0.000 A 
ATOM     16  C   UNL     1      54.077 218.687 329.752  0.00  0.00    +0.000 A 
ATOM     17  C   UNL     1      52.166 218.720 331.239  0.00  0.00    +0.000 A 
ATOM     18  C   UNL     1      52.701 218.739 329.955  0.00  0.00    +0.000 A 
BRANCH  18  19
ATOM     19  O   UNL     1      51.844 218.808 328.896  0.00  0.00    +0.000 OA
ATOM     20  H   UNL     1      51.172 219.484 329.092  0.00  0.00    +0.000 HD
ENDBRANCH  18  19
ENDBRANCH  12  13
ENDBRANCH   1  11
TORSDOF 5
ENDMDL
MODEL 2
REMARK VINA RESULT:      -5.6      0.035      2.325
REMARK  Name = Resveratrol.pdbqt.pdb
REMARK  5 active torsions:
REMARK  status: ('A' for Active; 'I' for Inactive)
REMARK    1  A    between atoms: C_1  and  C_11
REMARK    2  A    between atoms: C_4  and  O_7
REMARK    3  A    between atoms: C_5  and  O_9
REMARK    4  A    between atoms: C_12  and  C_13
REMARK    5  A    between atoms: C_18  and  O_19
REMARK                            x       y       z     vdW  Elec       q    Type
REMARK                         _______ _______ _______ _____ _____    ______ ____
ROOT
ATOM      1  C   UNL     1      56.884 218.386 335.321  0.00  0.00    +0.000 A 
ATOM      2  C   UNL     1      56.381 218.512 336.615  0.00  0.00    +0.000 A 
ATOM      3  C   UNL     1      58.249 218.188 335.115  0.00  0.00    +0.000 A 
ATOM      4  C   UNL     1      59.104 218.116 336.213  0.00  0.00    +0.000 A 
ATOM      5  C   UNL     1      57.251 218.438 337.698  0.00  0.00    +0.000 A 
ATOM      6  C   UNL     1      58.615 218.240 337.509  0.00  0.00    +0.000 A 
ENDROOT
BRANCH   4   7
ATOM      7  O   UNL     1      60.444 217.922 336.041  0.00  0.00    +0.000 OA
ATOM      8  H   UNL     1      60.682 218.225 335.147  0.00  0.00    +0.000 HD
ENDBRANCH   4   7
BRANCH   5   9
ATOM      9  O   UNL     1      56.736 218.563 338.956  0.00  0.00    +0.000 OA
ATOM     10  H   UNL     1      55.819 218.235 338.939  0.00  0.00    +0.000 HD
ENDBRANCH   5   9
BRANCH   1  11
ATOM     11  C   UNL     1      56.002 218.461 334.203  0.00  0.00    +0.000 C 
ATOM     12  C   UNL     1      55.260 218.524 333.260  0.00  0.00    +0.000 C 
BRANCH  12  13
ATOM     13  C   UNL     1      54.378 218.598 332.142  0.00  0.00    +0.000 A 
ATOM     14  C   UNL     1      52.999 218.617 332.345  0.00  0.00    +0.000 A 
ATOM     15  C   UNL     1      54.898 218.651 330.849  0.00  0.00    +0.000 A 
ATOM     16  C   UNL     1      52.136 218.689 331.255  0.00  0.00    +0.000 A 
ATOM     17  C   UNL     1      54.039 218.723 329.756  0.00  0.00    +0.000 A 
ATOM     18  C   UNL     1      52.664 218.742 329.968  0.00  0.00    +0.000 A 
BRANCH  18  19
ATOM     19  O   UNL     1      51.842 218.813 328.881  0.00  0.00    +0.000 OA
ATOM     20  H   UNL     1      52.386 219.011 328.099  0.00  0.00    +0.000 HD
ENDBRANCH  18  19
ENDBRANCH  12  13
ENDBRANCH   1  11
TORSDOF 5
ENDMDL
MODEL 3
REMARK VINA RESULT:      -5.2     19.480     21.590
REMARK  Name = Resveratrol.pdbqt.pdb
REMARK  5 active torsions:
REMARK  status: ('A' for Active; 'I' for Inactive)
REMARK    1  A    between atoms: C_1  and  C_11
REMARK    2  A    between atoms: C_4  and  O_7
REMARK    3  A    between atoms: C_5  and  O_9
REMARK    4  A    between atoms: C_12  and  C_13
REMARK    5  A    between atoms: C_18  and  O_19
REMARK                            x       y       z     vdW  Elec       q    Type
REMARK                         _______ _______ _______ _____ _____    ______ ____
ROOT
ATOM      1  C   UNL     1      65.628 231.000 346.616  0.00  0.00    +0.000 A 
ATOM      2  C   UNL     1      65.672 230.402 345.357  0.00  0.00    +0.000 A 
ATOM      3  C   UNL     1      65.919 232.356 346.759  0.00  0.00    +0.000 A 
ATOM      4  C   UNL     1      66.254 233.107 345.635  0.00  0.00    +0.000 A 
ATOM      5  C   UNL     1      66.009 231.170 344.247  0.00  0.00    +0.000 A 
ATOM      6  C   UNL     1      66.302 232.524 344.373  0.00  0.00    +0.000 A 
ENDROOT
BRANCH   4   7
ATOM      7  O   UNL     1      66.543 234.436 345.745  0.00  0.00    +0.000 OA
ATOM      8  H   UNL     1      66.398 234.852 344.877  0.00  0.00    +0.000 HD
ENDBRANCH   4   7
BRANCH   5   9
ATOM      9  O   UNL     1      66.046 230.562 343.024  0.00  0.00    +0.000 OA
ATOM     10  H   UNL     1      65.154 230.224 342.830  0.00  0.00    +0.000 HD
ENDBRANCH   5   9
BRANCH   1  11
ATOM     11  C   UNL     1      65.284 230.224 347.762  0.00  0.00    +0.000 C 
ATOM     12  C   UNL     1      64.994 229.570 348.727  0.00  0.00    +0.000 C 
BRANCH  12  13
ATOM     13  C   UNL     1      64.650 228.794 349.873  0.00  0.00    +0.000 A 
ATOM     14  C   UNL     1      65.180 227.513 350.029  0.00  0.00    +0.000 A 
ATOM     15  C   UNL     1      63.784 229.316 350.833  0.00  0.00    +0.000 A 
ATOM     16  C   UNL     1      64.846 226.753 351.146  0.00  0.00    +0.000 A 
ATOM     17  C   UNL     1      63.448 228.559 351.952  0.00  0.00    +0.000 A 
ATOM     18  C   UNL     1      63.981 227.283 352.099  0.00  0.00    +0.000 A 
BRANCH  18  19
ATOM     19  O   UNL     1      63.636 226.560 353.204  0.00  0.00    +0.000 OA
ATOM     20  H   UNL     1      64.301 226.723 353.895  0.00  0.00    +0.000 HD
ENDBRANCH  18  19
ENDBRANCH  12  13
ENDBRANCH   1  11
TORSDOF 5
ENDMDL
MODEL 4
REMARK VINA RESULT:      -5.2      1.237      7.765
REMARK  Name = Resveratrol.pdbqt.pdb
REMARK  5 active torsions:
REMARK  status: ('A' for Active; 'I' for Inactive)
REMARK    1  A    between atoms: C_1  and  C_11
REMARK    2  A    between atoms: C_4  and  O_7
REMARK    3  A    between atoms: C_5  and  O_9
REMARK    4  A    between atoms: C_12  and  C_13
REMARK    5  A    between atoms: C_18  and  O_19
REMARK                            x       y       z     vdW  Elec       q    Type
REMARK                         _______ _______ _______ _____ _____    ______ ____
ROOT
ATOM      1  C   UNL     1      53.830 218.714 331.946  0.00  0.00    +0.000 A 
ATOM      2  C   UNL     1      52.490 218.470 332.241  0.00  0.00    +0.000 A 
ATOM      3  C   UNL     1      54.222 218.989 330.636  0.00  0.00    +0.000 A 
ATOM      4  C   UNL     1      53.263 219.018 329.627  0.00  0.00    +0.000 A 
ATOM      5  C   UNL     1      51.548 218.504 331.218  0.00  0.00    +0.000 A 
ATOM      6  C   UNL     1      51.922 218.777 329.906  0.00  0.00    +0.000 A 
ENDROOT
BRANCH   4   7
ATOM      7  O   UNL     1      53.618 219.285 328.336  0.00  0.00    +0.000 OA
ATOM      8  H   UNL     1      53.534 218.463 327.822  0.00  0.00    +0.000 HD
ENDBRANCH   4   7
BRANCH   5   9
ATOM      9  O   UNL     1      50.240 218.262 331.530  0.00  0.00    +0.000 OA
ATOM     10  H   UNL     1      50.221 217.701 332.326  0.00  0.00    +0.000 HD
ENDBRANCH   5   9
BRANCH   1  11
ATOM     11  C   UNL     1      54.806 218.682 332.986  0.00  0.00    +0.000 C 
ATOM     12  C   UNL     1      55.627 218.654 333.862  0.00  0.00    +0.000 C 
BRANCH  12  13
ATOM     13  C   UNL     1      56.603 218.621 334.902  0.00  0.00    +0.000 A 
ATOM     14  C   UNL     1      57.758 217.855 334.746  0.00  0.00    +0.000 A 
ATOM     15  C   UNL     1      56.399 219.352 336.071  0.00  0.00    +0.000 A 
ATOM     16  C   UNL     1      58.712 217.821 335.759  0.00  0.00    +0.000 A 
ATOM     17  C   UNL     1      57.350 219.321 337.087  0.00  0.00    +0.000 A 
ATOM     18  C   UNL     1      58.499 218.555 336.923  0.00  0.00    +0.000 A 
BRANCH  18  19
ATOM     19  O   UNL     1      59.417 218.539 337.933  0.00  0.00    +0.000 OA
ATOM     20  H   UNL     1      59.154 219.202 338.595  0.00  0.00    +0.000 HD
ENDBRANCH  18  19
ENDBRANCH  12  13
ENDBRANCH   1  11
TORSDOF 5
ENDMDL
MODEL 5
REMARK VINA RESULT:      -5.0     14.610     18.360
REMARK  Name = Resveratrol.pdbqt.pdb
REMARK  5 active torsions:
REMARK  status: ('A' for Active; 'I' for Inactive)
REMARK    1  A    between atoms: C_1  and  C_11
REMARK    2  A    between atoms: C_4  and  O_7
REMARK    3  A    between atoms: C_5  and  O_9
REMARK    4  A    between atoms: C_12  and  C_13
REMARK    5  A    between atoms: C_18  and  O_19
REMARK                            x       y       z     vdW  Elec       q    Type
REMARK                         _______ _______ _______ _____ _____    ______ ____
ROOT
ATOM      1  C   UNL     1      70.157 221.757 339.151  0.00  0.00    +0.000 A 
ATOM      2  C   UNL     1      70.011 223.095 338.788  0.00  0.00    +0.000 A 
ATOM      3  C   UNL     1      69.837 220.745 338.246  0.00  0.00    +0.000 A 
ATOM      4  C   UNL     1      69.372 221.083 336.978  0.00  0.00    +0.000 A 
ATOM      5  C   UNL     1      69.545 223.411 337.516  0.00  0.00    +0.000 A 
ATOM      6  C   UNL     1      69.222 222.414 336.602  0.00  0.00    +0.000 A 
ENDROOT
BRANCH   4   7
ATOM      7  O   UNL     1      69.051 220.114 336.072  0.00  0.00    +0.000 OA
ATOM      8  H   UNL     1      68.152 219.797 336.271  0.00  0.00    +0.000 HD
ENDBRANCH   4   7
BRANCH   5   9
ATOM      9  O   UNL     1      69.411 224.729 337.182  0.00  0.00    +0.000 OA
ATOM     10  H   UNL     1      69.851 225.259 337.870  0.00  0.00    +0.000 HD
ENDBRANCH   5   9
BRANCH   1  11
ATOM     11  C   UNL     1      70.633 221.420 340.452  0.00  0.00    +0.000 C 
ATOM     12  C   UNL     1      71.035 221.136 341.548  0.00  0.00    +0.000 C 
BRANCH  12  13
ATOM     13  C   UNL     1      71.512 220.800 342.850  0.00  0.00    +0.000 A 
ATOM     14  C   UNL     1      72.876 220.597 343.059  0.00  0.00    +0.000 A 
ATOM     15  C   UNL     1      70.613 220.674 343.909  0.00  0.00    +0.000 A 
ATOM     16  C   UNL     1      73.343 220.269 344.329  0.00  0.00    +0.000 A 
ATOM     17  C   UNL     1      71.077 220.346 345.179  0.00  0.00    +0.000 A 
ATOM     18  C   UNL     1      72.439 220.145 345.379  0.00  0.00    +0.000 A 
BRANCH  18  19
ATOM     19  O   UNL     1      72.869 219.825 346.634  0.00  0.00    +0.000 OA
ATOM     20  H   UNL     1      73.601 219.188 346.552  0.00  0.00    +0.000 HD
ENDBRANCH  18  19
ENDBRANCH  12  13
ENDBRANCH   1  11
TORSDOF 5
ENDMDL
MODEL 6
REMARK VINA RESULT:      -4.8     15.947     19.066
REMARK  Name = Resveratrol.pdbqt.pdb
REMARK  5 active torsions:
REMARK  status: ('A' for Active; 'I' for Inactive)
REMARK    1  A    between atoms: C_1  and  C_11
REMARK    2  A    between atoms: C_4  and  O_7
REMARK    3  A    between atoms: C_5  and  O_9
REMARK    4  A    between atoms: C_12  and  C_13
REMARK    5  A    between atoms: C_18  and  O_19
REMARK                            x       y       z     vdW  Elec       q    Type
REMARK                         _______ _______ _______ _____ _____    ______ ____
ROOT
ATOM      1  C   UNL     1      73.497 224.139 338.284  0.00  0.00    +0.000 A 
ATOM      2  C   UNL     1      74.301 225.064 338.948  0.00  0.00    +0.000 A 
ATOM      3  C   UNL     1      73.429 224.141 336.891  0.00  0.00    +0.000 A 
ATOM      4  C   UNL     1      74.172 225.073 336.170  0.00  0.00    +0.000 A 
ATOM      5  C   UNL     1      75.035 225.987 338.210  0.00  0.00    +0.000 A 
ATOM      6  C   UNL     1      74.979 226.000 336.820  0.00  0.00    +0.000 A 
ENDROOT
BRANCH   4   7
ATOM      7  O   UNL     1      74.126 225.097 334.807  0.00  0.00    +0.000 OA
ATOM      8  H   UNL     1      74.940 224.685 334.468  0.00  0.00    +0.000 HD
ENDBRANCH   4   7
BRANCH   5   9
ATOM      9  O   UNL     1      75.817 226.882 338.882  0.00  0.00    +0.000 OA
ATOM     10  H   UNL     1      76.403 227.314 338.236  0.00  0.00    +0.000 HD
ENDBRANCH   5   9
BRANCH   1  11
ATOM     11  C   UNL     1      72.739 223.189 339.029  0.00  0.00    +0.000 C 
ATOM     12  C   UNL     1      72.099 222.388 339.657  0.00  0.00    +0.000 C 
BRANCH  12  13
ATOM     13  C   UNL     1      71.341 221.437 340.401  0.00  0.00    +0.000 A 
ATOM     14  C   UNL     1      71.598 221.253 341.759  0.00  0.00    +0.000 A 
ATOM     15  C   UNL     1      70.344 220.694 339.769  0.00  0.00    +0.000 A 
ATOM     16  C   UNL     1      70.859 220.326 342.488  0.00  0.00    +0.000 A 
ATOM     17  C   UNL     1      69.603 219.765 340.495  0.00  0.00    +0.000 A 
ATOM     18  C   UNL     1      69.867 219.589 341.849  0.00  0.00    +0.000 A 
BRANCH  18  19
ATOM     19  O   UNL     1      69.127 218.673 342.539  0.00  0.00    +0.000 OA
ATOM     20  H   UNL     1      68.945 219.032 343.425  0.00  0.00    +0.000 HD
ENDBRANCH  18  19
ENDBRANCH  12  13
ENDBRANCH   1  11
TORSDOF 5
ENDMDL
MODEL 7
REMARK VINA RESULT:      -4.8     12.510     17.038
REMARK  Name = Resveratrol.pdbqt.pdb
REMARK  5 active torsions:
REMARK  status: ('A' for Active; 'I' for Inactive)
REMARK    1  A    between atoms: C_1  and  C_11
REMARK    2  A    between atoms: C_4  and  O_7
REMARK    3  A    between atoms: C_5  and  O_9
REMARK    4  A    between atoms: C_12  and  C_13
REMARK    5  A    between atoms: C_18  and  O_19
REMARK                            x       y       z     vdW  Elec       q    Type
REMARK                         _______ _______ _______ _____ _____    ______ ____
ROOT
ATOM      1  C   UNL     1      68.861 220.625 338.619  0.00  0.00    +0.000 A 
ATOM      2  C   UNL     1      67.963 220.814 337.569  0.00  0.00    +0.000 A 
ATOM      3  C   UNL     1      68.640 219.619 339.559  0.00  0.00    +0.000 A 
ATOM      4  C   UNL     1      67.516 218.805 339.439  0.00  0.00    +0.000 A 
ATOM      5  C   UNL     1      66.847 219.990 337.468  0.00  0.00    +0.000 A 
ATOM      6  C   UNL     1      66.613 218.982 338.397  0.00  0.00    +0.000 A 
ENDROOT
BRANCH   4   7
ATOM      7  O   UNL     1      67.275 217.812 340.344  0.00  0.00    +0.000 OA
ATOM      8  H   UNL     1      67.115 218.224 341.212  0.00  0.00    +0.000 HD
ENDBRANCH   4   7
BRANCH   5   9
ATOM      9  O   UNL     1      65.982 220.194 336.431  0.00  0.00    +0.000 OA
ATOM     10  H   UNL     1      66.494 220.527 335.673  0.00  0.00    +0.000 HD
ENDBRANCH   5   9
BRANCH   1  11
ATOM     11  C   UNL     1      70.009 221.463 338.735  0.00  0.00    +0.000 C 
ATOM     12  C   UNL     1      70.976 222.170 338.832  0.00  0.00    +0.000 C 
BRANCH  12  13
ATOM     13  C   UNL     1      72.123 223.009 338.948  0.00  0.00    +0.000 A 
ATOM     14  C   UNL     1      72.725 223.525 337.800  0.00  0.00    +0.000 A 
ATOM     15  C   UNL     1      72.640 223.311 340.207  0.00  0.00    +0.000 A 
ATOM     16  C   UNL     1      73.844 224.345 337.911  0.00  0.00    +0.000 A 
ATOM     17  C   UNL     1      73.760 224.130 340.322  0.00  0.00    +0.000 A 
ATOM     18  C   UNL     1      74.354 224.640 339.172  0.00  0.00    +0.000 A 
BRANCH  18  19
ATOM     19  O   UNL     1      75.450 225.440 339.310  0.00  0.00    +0.000 OA
ATOM     20  H   UNL     1      75.180 226.251 339.775  0.00  0.00    +0.000 HD
ENDBRANCH  18  19
ENDBRANCH  12  13
ENDBRANCH   1  11
TORSDOF 5
ENDMDL
MODEL 8
REMARK VINA RESULT:      -4.6     19.212     22.507
REMARK  Name = Resveratrol.pdbqt.pdb
REMARK  5 active torsions:
REMARK  status: ('A' for Active; 'I' for Inactive)
REMARK    1  A    between atoms: C_1  and  C_11
REMARK    2  A    between atoms: C_4  and  O_7
REMARK    3  A    between atoms: C_5  and  O_9
REMARK    4  A    between atoms: C_12  and  C_13
REMARK    5  A    between atoms: C_18  and  O_19
REMARK                            x       y       z     vdW  Elec       q    Type
REMARK                         _______ _______ _______ _____ _____    ______ ____
ROOT
ATOM      1  C   UNL     1      47.874 234.540 323.275  0.00  0.00    +0.000 A 
ATOM      2  C   UNL     1      47.638 234.551 321.901  0.00  0.00    +0.000 A 
ATOM      3  C   UNL     1      47.981 233.330 323.960  0.00  0.00    +0.000 A 
ATOM      4  C   UNL     1      47.852 232.134 323.259  0.00  0.00    +0.000 A 
ATOM      5  C   UNL     1      47.511 233.344 321.220  0.00  0.00    +0.000 A 
ATOM      6  C   UNL     1      47.617 232.129 321.888  0.00  0.00    +0.000 A 
ENDROOT
BRANCH   4   7
ATOM      7  O   UNL     1      47.953 230.935 323.903  0.00  0.00    +0.000 OA
ATOM      8  H   UNL     1      47.246 230.888 324.571  0.00  0.00    +0.000 HD
ENDBRANCH   4   7
BRANCH   5   9
ATOM      9  O   UNL     1      47.280 233.379 319.875  0.00  0.00    +0.000 OA
ATOM     10  H   UNL     1      47.797 234.114 319.500  0.00  0.00    +0.000 HD
ENDBRANCH   5   9
BRANCH   1  11
ATOM     11  C   UNL     1      48.005 235.770 323.985  0.00  0.00    +0.000 C 
ATOM     12  C   UNL     1      48.115 236.807 324.582  0.00  0.00    +0.000 C 
BRANCH  12  13
ATOM     13  C   UNL     1      48.245 238.037 325.292  0.00  0.00    +0.000 A 
ATOM     14  C   UNL     1      47.106 238.695 325.757  0.00  0.00    +0.000 A 
ATOM     15  C   UNL     1      49.510 238.578 325.520  0.00  0.00    +0.000 A 
ATOM     16  C   UNL     1      47.231 239.895 326.451  0.00  0.00    +0.000 A 
ATOM     17  C   UNL     1      49.638 239.779 326.213  0.00  0.00    +0.000 A 
ATOM     18  C   UNL     1      48.497 240.428 326.673  0.00  0.00    +0.000 A 
BRANCH  18  19
ATOM     19  O   UNL     1      48.649 241.603 327.350  0.00  0.00    +0.000 OA
ATOM     20  H   UNL     1      47.770 242.007 327.461  0.00  0.00    +0.000 HD
ENDBRANCH  18  19
ENDBRANCH  12  13
ENDBRANCH   1  11
TORSDOF 5
ENDMDL
MODEL 9
REMARK VINA RESULT:      -4.5     26.586     27.884
REMARK  Name = Resveratrol.pdbqt.pdb
REMARK  5 active torsions:
REMARK  status: ('A' for Active; 'I' for Inactive)
REMARK    1  A    between atoms: C_1  and  C_11
REMARK    2  A    between atoms: C_4  and  O_7
REMARK    3  A    between atoms: C_5  and  O_9
REMARK    4  A    between atoms: C_12  and  C_13
REMARK    5  A    between atoms: C_18  and  O_19
REMARK                            x       y       z     vdW  Elec       q    Type
REMARK                         _______ _______ _______ _____ _____    ______ ____
ROOT
ATOM      1  C   UNL     1      53.791 241.723 346.995  0.00  0.00    +0.000 A 
ATOM      2  C   UNL     1      52.991 240.616 347.273  0.00  0.00    +0.000 A 
ATOM      3  C   UNL     1      55.123 241.747 347.405  0.00  0.00    +0.000 A 
ATOM      4  C   UNL     1      55.647 240.655 348.093  0.00  0.00    +0.000 A 
ATOM      5  C   UNL     1      53.533 239.536 347.962  0.00  0.00    +0.000 A 
ATOM      6  C   UNL     1      54.861 239.544 348.377  0.00  0.00    +0.000 A 
ENDROOT
BRANCH   4   7
ATOM      7  O   UNL     1      56.948 240.650 348.506  0.00  0.00    +0.000 OA
ATOM      8  H   UNL     1      57.012 241.187 349.316  0.00  0.00    +0.000 HD
ENDBRANCH   4   7
BRANCH   5   9
ATOM      9  O   UNL     1      52.731 238.462 348.223  0.00  0.00    +0.000 OA
ATOM     10  H   UNL     1      53.172 237.914 348.895  0.00  0.00    +0.000 HD
ENDBRANCH   5   9
BRANCH   1  11
ATOM     11  C   UNL     1      53.246 242.837 346.291  0.00  0.00    +0.000 C 
ATOM     12  C   UNL     1      52.788 243.775 345.696  0.00  0.00    +0.000 C 
BRANCH  12  13
ATOM     13  C   UNL     1      52.243 244.889 344.991  0.00  0.00    +0.000 A 
ATOM     14  C   UNL     1      51.267 244.683 344.016  0.00  0.00    +0.000 A 
ATOM     15  C   UNL     1      52.688 246.179 345.277  0.00  0.00    +0.000 A 
ATOM     16  C   UNL     1      50.733 245.768 343.327  0.00  0.00    +0.000 A 
ATOM     17  C   UNL     1      52.157 247.267 344.589  0.00  0.00    +0.000 A 
ATOM     18  C   UNL     1      51.184 247.053 343.619  0.00  0.00    +0.000 A 
BRANCH  18  19
ATOM     19  O   UNL     1      50.678 248.134 342.958  0.00  0.00    +0.000 OA
ATOM     20  H   UNL     1      50.140 248.650 343.584  0.00  0.00    +0.000 HD
ENDBRANCH  18  19
ENDBRANCH  12  13
ENDBRANCH   1  11
TORSDOF 5
ENDMDL
