MODEL 1
REMARK VINA RESULT:      -5.0      0.000      0.000
REMARK  Name = RetinoicAcid.pdbqt.pdb
REMARK  6 active torsions:
REMARK  status: ('A' for Active; 'I' for Inactive)
REMARK    1  A    between atoms: C_1  and  C_3
REMARK    2  A    between atoms: C_1  and  C_5
REMARK    3  A    between atoms: C_3  and  C_15
REMARK    4  A    between atoms: C_4  and  C_9
REMARK    5  A    between atoms: C_16  and  C_17
REMARK    6  A    between atoms: C_21  and  O_22
REMARK                            x       y       z     vdW  Elec       q    Type
REMARK                         _______ _______ _______ _____ _____    ______ ____
ROOT
ATOM      1  C   UNL     1      45.508 232.110 346.691  0.00  0.00    +0.000 C 
ATOM      2  C   UNL     1      45.980 231.059 347.648  0.00  0.00    +0.000 C 
ENDROOT
BRANCH   1   4
ATOM      3  C   UNL     1      43.690 231.539 344.894  0.00  0.00    +0.000 C 
ATOM      4  C   UNL     1      44.527 231.796 345.718  0.00  0.00    +0.000 C 
BRANCH   3   8
ATOM      5  C   UNL     1      41.872 232.403 343.246  0.00  0.00    +0.000 C 
ATOM      6  C   UNL     1      40.922 231.814 342.273  0.00  0.00    +0.000 C 
ATOM      7  C   UNL     1      40.473 230.480 341.707  0.00  0.00    +0.000 C 
ATOM      8  C   UNL     1      42.683 231.237 343.905  0.00  0.00    +0.000 C 
ATOM      9  C   UNL     1      41.446 229.698 342.561  0.00  0.00    +0.000 C 
ATOM     10  C   UNL     1      42.445 229.952 343.544  0.00  0.00    +0.000 C 
ATOM     11  C   UNL     1      41.091 233.164 344.351  0.00  0.00    +0.000 C 
ATOM     12  C   UNL     1      42.865 233.346 342.509  0.00  0.00    +0.000 C 
ATOM     13  C   UNL     1      43.174 228.762 344.104  0.00  0.00    +0.000 C 
ENDBRANCH   3   8
ENDBRANCH   1   4
BRANCH   1  14
ATOM     14  C   UNL     1      46.033 233.295 346.721  0.00  0.00    +0.000 C 
BRANCH  14  15
ATOM     15  C   UNL     1      46.656 234.696 346.758  0.00  0.00    +0.000 C 
ATOM     16  C   UNL     1      47.144 235.792 346.786  0.00  0.00    +0.000 C 
BRANCH  16  17
ATOM     17  C   UNL     1      47.719 237.086 346.814  0.00  0.00    +0.000 C 
ATOM     18  C   UNL     1      47.276 238.119 345.824  0.00  0.00    +0.000 C 
ATOM     19  C   UNL     1      48.646 237.364 347.668  0.00  0.00    +0.000 C 
ATOM     20  O   UNL     1      49.417 237.973 349.773  0.00  0.00    +0.000 OA
ATOM     21  C   UNL     1      49.656 237.661 348.621  0.00  0.00    +0.000 C 
BRANCH  21  22
ATOM     22  O   UNL     1      50.907 237.546 348.146  0.00  0.00    +0.000 OA
ATOM     23  H   UNL     1      50.785 237.243 347.222  0.00  0.00    +0.000 HD
ENDBRANCH  21  22
ENDBRANCH  16  17
ENDBRANCH  14  15
ENDBRANCH   1  14
TORSDOF 6
ENDMDL
MODEL 2
REMARK VINA RESULT:      -4.9     20.949     23.879
REMARK  Name = RetinoicAcid.pdbqt.pdb
REMARK  6 active torsions:
REMARK  status: ('A' for Active; 'I' for Inactive)
REMARK    1  A    between atoms: C_1  and  C_3
REMARK    2  A    between atoms: C_1  and  C_5
REMARK    3  A    between atoms: C_3  and  C_15
REMARK    4  A    between atoms: C_4  and  C_9
REMARK    5  A    between atoms: C_16  and  C_17
REMARK    6  A    between atoms: C_21  and  O_22
REMARK                            x       y       z     vdW  Elec       q    Type
REMARK                         _______ _______ _______ _____ _____    ______ ____
ROOT
ATOM      1  C   UNL     1      57.940 217.000 332.855  0.00  0.00    +0.000 C 
ATOM      2  C   UNL     1      58.909 216.101 332.151  0.00  0.00    +0.000 C 
ENDROOT
BRANCH   1   4
ATOM      3  C   UNL     1      58.380 217.732 335.331  0.00  0.00    +0.000 C 
ATOM      4  C   UNL     1      58.183 217.398 334.192  0.00  0.00    +0.000 C 
BRANCH   3   8
ATOM      5  C   UNL     1      59.602 217.308 337.588  0.00  0.00    +0.000 C 
ATOM      6  C   UNL     1      59.652 217.936 338.929  0.00  0.00    +0.000 C 
ATOM      7  C   UNL     1      59.074 219.091 339.724  0.00  0.00    +0.000 C 
ATOM      8  C   UNL     1      58.610 218.131 336.699  0.00  0.00    +0.000 C 
ATOM      9  C   UNL     1      58.234 219.576 338.563  0.00  0.00    +0.000 C 
ATOM     10  C   UNL     1      57.976 219.215 337.210  0.00  0.00    +0.000 C 
ATOM     11  C   UNL     1      59.083 215.849 337.707  0.00  0.00    +0.000 C 
ATOM     12  C   UNL     1      61.011 217.351 336.933  0.00  0.00    +0.000 C 
ATOM     13  C   UNL     1      57.016 220.079 336.440  0.00  0.00    +0.000 C 
ENDBRANCH   3   8
ENDBRANCH   1   4
BRANCH   1  14
ATOM     14  C   UNL     1      56.854 217.376 332.256  0.00  0.00    +0.000 C 
BRANCH  14  15
ATOM     15  C   UNL     1      55.570 217.823 331.545  0.00  0.00    +0.000 C 
ATOM     16  C   UNL     1      54.564 218.170 330.989  0.00  0.00    +0.000 C 
BRANCH  16  17
ATOM     17  C   UNL     1      53.375 218.578 330.338  0.00  0.00    +0.000 C 
ATOM     18  C   UNL     1      53.455 219.320 329.039  0.00  0.00    +0.000 C 
ATOM     19  C   UNL     1      52.227 218.340 330.877  0.00  0.00    +0.000 C 
ATOM     20  O   UNL     1      50.406 216.986 331.374  0.00  0.00    +0.000 OA
ATOM     21  C   UNL     1      50.970 218.060 331.474  0.00  0.00    +0.000 C 
BRANCH  21  22
ATOM     22  O   UNL     1      50.463 219.082 332.184  0.00  0.00    +0.000 OA
ATOM     23  H   UNL     1      50.005 219.634 331.516  0.00  0.00    +0.000 HD
ENDBRANCH  21  22
ENDBRANCH  16  17
ENDBRANCH  14  15
ENDBRANCH   1  14
TORSDOF 6
ENDMDL
MODEL 3
REMARK VINA RESULT:      -4.9     21.694     24.455
REMARK  Name = RetinoicAcid.pdbqt.pdb
REMARK  6 active torsions:
REMARK  status: ('A' for Active; 'I' for Inactive)
REMARK    1  A    between atoms: C_1  and  C_3
REMARK    2  A    between atoms: C_1  and  C_5
REMARK    3  A    between atoms: C_3  and  C_15
REMARK    4  A    between atoms: C_4  and  C_9
REMARK    5  A    between atoms: C_16  and  C_17
REMARK    6  A    between atoms: C_21  and  O_22
REMARK                            x       y       z     vdW  Elec       q    Type
REMARK                         _______ _______ _______ _____ _____    ______ ____
ROOT
ATOM      1  C   UNL     1      59.495 216.833 333.032  0.00  0.00    +0.000 C 
ATOM      2  C   UNL     1      60.830 216.240 332.699  0.00  0.00    +0.000 C 
ENDROOT
BRANCH   1   4
ATOM      3  C   UNL     1      58.961 217.580 335.485  0.00  0.00    +0.000 C 
ATOM      4  C   UNL     1      59.211 217.241 334.358  0.00  0.00    +0.000 C 
BRANCH   3   8
ATOM      5  C   UNL     1      57.215 218.474 337.194  0.00  0.00    +0.000 C 
ATOM      6  C   UNL     1      57.183 218.812 338.636  0.00  0.00    +0.000 C 
ATOM      7  C   UNL     1      58.064 218.842 339.870  0.00  0.00    +0.000 C 
ATOM      8  C   UNL     1      58.658 217.981 336.838  0.00  0.00    +0.000 C 
ATOM      9  C   UNL     1      59.273 218.325 339.120  0.00  0.00    +0.000 C 
ATOM     10  C   UNL     1      59.614 217.925 337.797  0.00  0.00    +0.000 C 
ATOM     11  C   UNL     1      56.890 219.737 336.350  0.00  0.00    +0.000 C 
ATOM     12  C   UNL     1      56.209 217.326 336.898  0.00  0.00    +0.000 C 
ATOM     13  C   UNL     1      61.024 217.456 337.565  0.00  0.00    +0.000 C 
ENDBRANCH   3   8
ENDBRANCH   1   4
BRANCH   1  14
ATOM     14  C   UNL     1      58.583 216.927 332.116  0.00  0.00    +0.000 C 
BRANCH  14  15
ATOM     15  C   UNL     1      57.504 217.037 331.031  0.00  0.00    +0.000 C 
ATOM     16  C   UNL     1      56.658 217.124 330.184  0.00  0.00    +0.000 C 
BRANCH  16  17
ATOM     17  C   UNL     1      55.659 217.231 329.187  0.00  0.00    +0.000 C 
ATOM     18  C   UNL     1      55.675 216.298 328.015  0.00  0.00    +0.000 C 
ATOM     19  C   UNL     1      54.757 218.150 329.271  0.00  0.00    +0.000 C 
ATOM     20  O   UNL     1      52.764 219.039 330.068  0.00  0.00    +0.000 OA
ATOM     21  C   UNL     1      53.762 219.157 329.381  0.00  0.00    +0.000 C 
BRANCH  21  22
ATOM     22  O   UNL     1      54.028 220.268 328.674  0.00  0.00    +0.000 OA
ATOM     23  H   UNL     1      53.531 220.145 327.839  0.00  0.00    +0.000 HD
ENDBRANCH  21  22
ENDBRANCH  16  17
ENDBRANCH  14  15
ENDBRANCH   1  14
TORSDOF 6
ENDMDL
MODEL 4
REMARK VINA RESULT:      -4.8      6.858      9.116
REMARK  Name = RetinoicAcid.pdbqt.pdb
REMARK  6 active torsions:
REMARK  status: ('A' for Active; 'I' for Inactive)
REMARK    1  A    between atoms: C_1  and  C_3
REMARK    2  A    between atoms: C_1  and  C_5
REMARK    3  A    between atoms: C_3  and  C_15
REMARK    4  A    between atoms: C_4  and  C_9
REMARK    5  A    between atoms: C_16  and  C_17
REMARK    6  A    between atoms: C_21  and  O_22
REMARK                            x       y       z     vdW  Elec       q    Type
REMARK                         _______ _______ _______ _____ _____    ______ ____
ROOT
ATOM      1  C   UNL     1      41.777 240.340 340.422  0.00  0.00    +0.000 C 
ATOM      2  C   UNL     1      40.510 241.086 340.706  0.00  0.00    +0.000 C 
ENDROOT
BRANCH   1   4
ATOM      3  C   UNL     1      42.187 239.277 338.064  0.00  0.00    +0.000 C 
ATOM      4  C   UNL     1      41.993 239.768 339.145  0.00  0.00    +0.000 C 
BRANCH   3   8
ATOM      5  C   UNL     1      42.507 237.127 336.634  0.00  0.00    +0.000 C 
ATOM      6  C   UNL     1      42.748 236.798 335.209  0.00  0.00    +0.000 C 
ATOM      7  C   UNL     1      42.939 237.450 333.854  0.00  0.00    +0.000 C 
ATOM      8  C   UNL     1      42.424 238.685 336.769  0.00  0.00    +0.000 C 
ATOM      9  C   UNL     1      42.794 238.848 334.415  0.00  0.00    +0.000 C 
ATOM     10  C   UNL     1      42.566 239.472 335.674  0.00  0.00    +0.000 C 
ATOM     11  C   UNL     1      43.685 236.607 337.502  0.00  0.00    +0.000 C 
ATOM     12  C   UNL     1      41.155 236.514 337.097  0.00  0.00    +0.000 C 
ATOM     13  C   UNL     1      42.490 240.974 335.691  0.00  0.00    +0.000 C 
ENDBRANCH   3   8
ENDBRANCH   1   4
BRANCH   1  14
ATOM     14  C   UNL     1      42.655 240.176 341.362  0.00  0.00    +0.000 C 
BRANCH  14  15
ATOM     15  C   UNL     1      43.696 239.984 342.472  0.00  0.00    +0.000 C 
ATOM     16  C   UNL     1      44.511 239.832 343.340  0.00  0.00    +0.000 C 
BRANCH  16  17
ATOM     17  C   UNL     1      45.476 239.653 344.360  0.00  0.00    +0.000 C 
ATOM     18  C   UNL     1      45.908 240.823 345.190  0.00  0.00    +0.000 C 
ATOM     19  C   UNL     1      46.006 238.492 344.553  0.00  0.00    +0.000 C 
ATOM     20  O   UNL     1      46.030 236.336 345.417  0.00  0.00    +0.000 OA
ATOM     21  C   UNL     1      46.573 237.208 344.764  0.00  0.00    +0.000 C 
BRANCH  21  22
ATOM     22  O   UNL     1      47.758 237.027 344.157  0.00  0.00    +0.000 OA
ATOM     23  H   UNL     1      47.964 236.081 344.312  0.00  0.00    +0.000 HD
ENDBRANCH  21  22
ENDBRANCH  16  17
ENDBRANCH  14  15
ENDBRANCH   1  14
TORSDOF 6
ENDMDL
MODEL 5
REMARK VINA RESULT:      -4.8      0.876      2.396
REMARK  Name = RetinoicAcid.pdbqt.pdb
REMARK  6 active torsions:
REMARK  status: ('A' for Active; 'I' for Inactive)
REMARK    1  A    between atoms: C_1  and  C_3
REMARK    2  A    between atoms: C_1  and  C_5
REMARK    3  A    between atoms: C_3  and  C_15
REMARK    4  A    between atoms: C_4  and  C_9
REMARK    5  A    between atoms: C_16  and  C_17
REMARK    6  A    between atoms: C_21  and  O_22
REMARK                            x       y       z     vdW  Elec       q    Type
REMARK                         _______ _______ _______ _____ _____    ______ ____
ROOT
ATOM      1  C   UNL     1      45.473 232.060 347.585  0.00  0.00    +0.000 C 
ATOM      2  C   UNL     1      45.731 231.263 348.827  0.00  0.00    +0.000 C 
ENDROOT
BRANCH   1   4
ATOM      3  C   UNL     1      43.991 231.058 345.673  0.00  0.00    +0.000 C 
ATOM      4  C   UNL     1      44.677 231.518 346.547  0.00  0.00    +0.000 C 
BRANCH   3   8
ATOM      5  C   UNL     1      43.079 228.954 344.442  0.00  0.00    +0.000 C 
ATOM      6  C   UNL     1      42.162 228.671 343.313  0.00  0.00    +0.000 C 
ATOM      7  C   UNL     1      41.288 229.366 342.287  0.00  0.00    +0.000 C 
ATOM      8  C   UNL     1      43.162 230.507 344.627  0.00  0.00    +0.000 C 
ATOM      9  C   UNL     1      41.646 230.745 342.797  0.00  0.00    +0.000 C 
ATOM     10  C   UNL     1      42.455 231.329 343.813  0.00  0.00    +0.000 C 
ATOM     11  C   UNL     1      44.496 228.407 344.121  0.00  0.00    +0.000 C 
ATOM     12  C   UNL     1      42.517 228.327 345.749  0.00  0.00    +0.000 C 
ATOM     13  C   UNL     1      42.454 232.829 343.913  0.00  0.00    +0.000 C 
ENDBRANCH   3   8
ENDBRANCH   1   4
BRANCH   1  14
ATOM     14  C   UNL     1      46.020 233.226 347.440  0.00  0.00    +0.000 C 
BRANCH  14  15
ATOM     15  C   UNL     1      46.667 234.606 347.271  0.00  0.00    +0.000 C 
ATOM     16  C   UNL     1      47.175 235.686 347.140  0.00  0.00    +0.000 C 
BRANCH  16  17
ATOM     17  C   UNL     1      47.779 236.957 346.985  0.00  0.00    +0.000 C 
ATOM     18  C   UNL     1      47.320 237.871 345.890  0.00  0.00    +0.000 C 
ATOM     19  C   UNL     1      48.744 237.314 347.764  0.00  0.00    +0.000 C 
ATOM     20  O   UNL     1      49.609 238.160 349.747  0.00  0.00    +0.000 OA
ATOM     21  C   UNL     1      49.797 237.701 348.635  0.00  0.00    +0.000 C 
BRANCH  21  22
ATOM     22  O   UNL     1      51.026 237.494 348.134  0.00  0.00    +0.000 OA
ATOM     23  H   UNL     1      51.056 236.530 347.963  0.00  0.00    +0.000 HD
ENDBRANCH  21  22
ENDBRANCH  16  17
ENDBRANCH  14  15
ENDBRANCH   1  14
TORSDOF 6
ENDMDL
MODEL 6
REMARK VINA RESULT:      -4.7     22.325     24.128
REMARK  Name = RetinoicAcid.pdbqt.pdb
REMARK  6 active torsions:
REMARK  status: ('A' for Active; 'I' for Inactive)
REMARK    1  A    between atoms: C_1  and  C_3
REMARK    2  A    between atoms: C_1  and  C_5
REMARK    3  A    between atoms: C_3  and  C_15
REMARK    4  A    between atoms: C_4  and  C_9
REMARK    5  A    between atoms: C_16  and  C_17
REMARK    6  A    between atoms: C_21  and  O_22
REMARK                            x       y       z     vdW  Elec       q    Type
REMARK                         _______ _______ _______ _____ _____    ______ ____
ROOT
ATOM      1  C   UNL     1      51.048 240.272 320.672  0.00  0.00    +0.000 C 
ATOM      2  C   UNL     1      51.056 240.397 319.180  0.00  0.00    +0.000 C 
ENDROOT
BRANCH   1   4
ATOM      3  C   UNL     1      49.643 238.383 321.819  0.00  0.00    +0.000 C 
ATOM      4  C   UNL     1      50.285 239.255 321.295  0.00  0.00    +0.000 C 
BRANCH   3   8
ATOM      5  C   UNL     1      48.262 237.566 323.868  0.00  0.00    +0.000 C 
ATOM      6  C   UNL     1      47.531 236.339 324.263  0.00  0.00    +0.000 C 
ATOM      7  C   UNL     1      47.181 234.951 323.765  0.00  0.00    +0.000 C 
ATOM      8  C   UNL     1      48.877 237.332 322.448  0.00  0.00    +0.000 C 
ATOM      9  C   UNL     1      47.922 235.143 322.460  0.00  0.00    +0.000 C 
ATOM     10  C   UNL     1      48.687 236.151 321.808  0.00  0.00    +0.000 C 
ATOM     11  C   UNL     1      49.409 237.844 324.876  0.00  0.00    +0.000 C 
ATOM     12  C   UNL     1      47.277 238.767 323.792  0.00  0.00    +0.000 C 
ATOM     13  C   UNL     1      49.222 235.829 320.440  0.00  0.00    +0.000 C 
ENDBRANCH   3   8
ENDBRANCH   1   4
BRANCH   1  14
ATOM     14  C   UNL     1      51.702 241.125 321.396  0.00  0.00    +0.000 C 
BRANCH  14  15
ATOM     15  C   UNL     1      52.478 242.135 322.251  0.00  0.00    +0.000 C 
ATOM     16  C   UNL     1      53.083 242.927 322.920  0.00  0.00    +0.000 C 
BRANCH  16  17
ATOM     17  C   UNL     1      53.793 243.861 323.713  0.00  0.00    +0.000 C 
ATOM     18  C   UNL     1      54.870 244.698 323.092  0.00  0.00    +0.000 C 
ATOM     19  C   UNL     1      53.536 243.967 324.973  0.00  0.00    +0.000 C 
ATOM     20  O   UNL     1      52.308 244.745 326.785  0.00  0.00    +0.000 OA
ATOM     21  C   UNL     1      53.236 244.084 326.356  0.00  0.00    +0.000 C 
BRANCH  21  22
ATOM     22  O   UNL     1      54.054 243.380 327.155  0.00  0.00    +0.000 OA
ATOM     23  H   UNL     1      53.638 242.495 327.204  0.00  0.00    +0.000 HD
ENDBRANCH  21  22
ENDBRANCH  16  17
ENDBRANCH  14  15
ENDBRANCH   1  14
TORSDOF 6
ENDMDL
MODEL 7
REMARK VINA RESULT:      -4.7     20.825     23.401
REMARK  Name = RetinoicAcid.pdbqt.pdb
REMARK  6 active torsions:
REMARK  status: ('A' for Active; 'I' for Inactive)
REMARK    1  A    between atoms: C_1  and  C_3
REMARK    2  A    between atoms: C_1  and  C_5
REMARK    3  A    between atoms: C_3  and  C_15
REMARK    4  A    between atoms: C_4  and  C_9
REMARK    5  A    between atoms: C_16  and  C_17
REMARK    6  A    between atoms: C_21  and  O_22
REMARK                            x       y       z     vdW  Elec       q    Type
REMARK                         _______ _______ _______ _____ _____    ______ ____
ROOT
ATOM      1  C   UNL     1      67.014 239.497 338.913  0.00  0.00    +0.000 C 
ATOM      2  C   UNL     1      68.149 239.437 337.937  0.00  0.00    +0.000 C 
ENDROOT
BRANCH   1   4
ATOM      3  C   UNL     1      65.795 241.770 339.369  0.00  0.00    +0.000 C 
ATOM      4  C   UNL     1      66.351 240.725 339.156  0.00  0.00    +0.000 C 
BRANCH   3   8
ATOM      5  C   UNL     1      63.931 243.077 340.628  0.00  0.00    +0.000 C 
ATOM      6  C   UNL     1      63.454 244.478 340.709  0.00  0.00    +0.000 C 
ATOM      7  C   UNL     1      63.731 245.862 340.157  0.00  0.00    +0.000 C 
ATOM      8  C   UNL     1      65.135 243.027 339.628  0.00  0.00    +0.000 C 
ATOM      9  C   UNL     1      64.882 245.380 339.301  0.00  0.00    +0.000 C 
ATOM     10  C   UNL     1      65.558 244.160 339.014  0.00  0.00    +0.000 C 
ATOM     11  C   UNL     1      62.795 242.162 340.097  0.00  0.00    +0.000 C 
ATOM     12  C   UNL     1      64.425 242.606 342.025  0.00  0.00    +0.000 C 
ATOM     13  C   UNL     1      66.710 244.224 338.049  0.00  0.00    +0.000 C 
ENDBRANCH   3   8
ENDBRANCH   1   4
BRANCH   1  14
ATOM     14  C   UNL     1      66.671 238.435 339.572  0.00  0.00    +0.000 C 
BRANCH  14  15
ATOM     15  C   UNL     1      66.264 237.179 340.353  0.00  0.00    +0.000 C 
ATOM     16  C   UNL     1      65.947 236.195 340.964  0.00  0.00    +0.000 C 
BRANCH  16  17
ATOM     17  C   UNL     1      65.579 235.034 341.685  0.00  0.00    +0.000 C 
ATOM     18  C   UNL     1      65.466 235.090 343.178  0.00  0.00    +0.000 C 
ATOM     19  C   UNL     1      65.373 233.923 341.061  0.00  0.00    +0.000 C 
ATOM     20  O   UNL     1      64.080 232.449 339.815  0.00  0.00    +0.000 OA
ATOM     21  C   UNL     1      65.136 232.710 340.362  0.00  0.00    +0.000 C 
BRANCH  21  22
ATOM     22  O   UNL     1      66.191 231.879 340.336  0.00  0.00    +0.000 OA
ATOM     23  H   UNL     1      65.820 231.031 340.014  0.00  0.00    +0.000 HD
ENDBRANCH  21  22
ENDBRANCH  16  17
ENDBRANCH  14  15
ENDBRANCH   1  14
TORSDOF 6
ENDMDL
MODEL 8
REMARK VINA RESULT:      -4.7     13.394     15.856
REMARK  Name = RetinoicAcid.pdbqt.pdb
REMARK  6 active torsions:
REMARK  status: ('A' for Active; 'I' for Inactive)
REMARK    1  A    between atoms: C_1  and  C_3
REMARK    2  A    between atoms: C_1  and  C_5
REMARK    3  A    between atoms: C_3  and  C_15
REMARK    4  A    between atoms: C_4  and  C_9
REMARK    5  A    between atoms: C_16  and  C_17
REMARK    6  A    between atoms: C_21  and  O_22
REMARK                            x       y       z     vdW  Elec       q    Type
REMARK                         _______ _______ _______ _____ _____    ______ ____
ROOT
ATOM      1  C   UNL     1      58.457 227.882 352.842  0.00  0.00    +0.000 C 
ATOM      2  C   UNL     1      58.775 226.431 353.029  0.00  0.00    +0.000 C 
ENDROOT
BRANCH   1   4
ATOM      3  C   UNL     1      56.214 228.863 353.776  0.00  0.00    +0.000 C 
ATOM      4  C   UNL     1      57.247 228.415 353.351  0.00  0.00    +0.000 C 
BRANCH   3   8
ATOM      5  C   UNL     1      53.746 228.441 354.483  0.00  0.00    +0.000 C 
ATOM      6  C   UNL     1      52.618 229.242 355.013  0.00  0.00    +0.000 C 
ATOM      7  C   UNL     1      52.251 230.656 355.420  0.00  0.00    +0.000 C 
ATOM      8  C   UNL     1      54.971 229.395 354.281  0.00  0.00    +0.000 C 
ATOM      9  C   UNL     1      53.625 231.196 355.086  0.00  0.00    +0.000 C 
ATOM     10  C   UNL     1      54.867 230.712 354.586  0.00  0.00    +0.000 C 
ATOM     11  C   UNL     1      53.356 227.822 353.113  0.00  0.00    +0.000 C 
ATOM     12  C   UNL     1      54.137 227.338 355.507  0.00  0.00    +0.000 C 
ATOM     13  C   UNL     1      55.984 231.709 354.442  0.00  0.00    +0.000 C 
ENDBRANCH   3   8
ENDBRANCH   1   4
BRANCH   1  14
ATOM     14  C   UNL     1      59.266 228.641 352.171  0.00  0.00    +0.000 C 
BRANCH  14  15
ATOM     15  C   UNL     1      60.222 229.539 351.376  0.00  0.00    +0.000 C 
ATOM     16  C   UNL     1      60.969 230.244 350.756  0.00  0.00    +0.000 C 
BRANCH  16  17
ATOM     17  C   UNL     1      61.852 231.078 350.028  0.00  0.00    +0.000 C 
ATOM     18  C   UNL     1      62.497 230.567 348.776  0.00  0.00    +0.000 C 
ATOM     19  C   UNL     1      62.124 232.264 350.459  0.00  0.00    +0.000 C 
ATOM     20  O   UNL     1      61.679 234.527 350.739  0.00  0.00    +0.000 OA
ATOM     21  C   UNL     1      62.407 233.571 350.936  0.00  0.00    +0.000 C 
BRANCH  21  22
ATOM     22  O   UNL     1      63.542 233.660 351.649  0.00  0.00    +0.000 OA
ATOM     23  H   UNL     1      63.880 234.558 351.450  0.00  0.00    +0.000 HD
ENDBRANCH  21  22
ENDBRANCH  16  17
ENDBRANCH  14  15
ENDBRANCH   1  14
TORSDOF 6
ENDMDL
MODEL 9
REMARK VINA RESULT:      -4.6     24.354     26.429
REMARK  Name = RetinoicAcid.pdbqt.pdb
REMARK  6 active torsions:
REMARK  status: ('A' for Active; 'I' for Inactive)
REMARK    1  A    between atoms: C_1  and  C_3
REMARK    2  A    between atoms: C_1  and  C_5
REMARK    3  A    between atoms: C_3  and  C_15
REMARK    4  A    between atoms: C_4  and  C_9
REMARK    5  A    between atoms: C_16  and  C_17
REMARK    6  A    between atoms: C_21  and  O_22
REMARK                            x       y       z     vdW  Elec       q    Type
REMARK                         _______ _______ _______ _____ _____    ______ ____
ROOT
ATOM      1  C   UNL     1      49.233 236.381 318.896  0.00  0.00    +0.000 C 
ATOM      2  C   UNL     1      48.373 237.431 318.263  0.00  0.00    +0.000 C 
ENDROOT
BRANCH   1   4
ATOM      3  C   UNL     1      48.208 234.699 320.623  0.00  0.00    +0.000 C 
ATOM      4  C   UNL     1      48.673 235.472 319.827  0.00  0.00    +0.000 C 
BRANCH   3   8
ATOM      5  C   UNL     1      46.592 232.722 321.119  0.00  0.00    +0.000 C 
ATOM      6  C   UNL     1      46.206 231.905 322.293  0.00  0.00    +0.000 C 
ATOM      7  C   UNL     1      46.488 231.744 323.775  0.00  0.00    +0.000 C 
ATOM      8  C   UNL     1      47.655 233.773 321.582  0.00  0.00    +0.000 C 
ATOM      9  C   UNL     1      47.493 232.874 323.789  0.00  0.00    +0.000 C 
ATOM     10  C   UNL     1      48.060 233.808 322.876  0.00  0.00    +0.000 C 
ATOM     11  C   UNL     1      45.349 233.470 320.566  0.00  0.00    +0.000 C 
ATOM     12  C   UNL     1      47.230 231.813 320.031  0.00  0.00    +0.000 C 
ATOM     13  C   UNL     1      49.082 234.767 323.421  0.00  0.00    +0.000 C 
ENDBRANCH   3   8
ENDBRANCH   1   4
BRANCH   1  14
ATOM     14  C   UNL     1      50.500 236.334 318.627  0.00  0.00    +0.000 C 
BRANCH  14  15
ATOM     15  C   UNL     1      51.999 236.281 318.307  0.00  0.00    +0.000 C 
ATOM     16  C   UNL     1      53.173 236.240 318.058  0.00  0.00    +0.000 C 
BRANCH  16  17
ATOM     17  C   UNL     1      54.558 236.194 317.769  0.00  0.00    +0.000 C 
ATOM     18  C   UNL     1      55.099 235.106 316.892  0.00  0.00    +0.000 C 
ATOM     19  C   UNL     1      55.356 237.067 318.285  0.00  0.00    +0.000 C 
ATOM     20  O   UNL     1      56.377 239.151 318.377  0.00  0.00    +0.000 OA
ATOM     21  C   UNL     1      56.223 238.040 318.849  0.00  0.00    +0.000 C 
BRANCH  21  22
ATOM     22  O   UNL     1      56.845 237.635 319.968  0.00  0.00    +0.000 OA
ATOM     23  H   UNL     1      57.777 237.511 319.693  0.00  0.00    +0.000 HD
ENDBRANCH  21  22
ENDBRANCH  16  17
ENDBRANCH  14  15
ENDBRANCH   1  14
TORSDOF 6
ENDMDL
