MODEL 1
REMARK VINA RESULT:      -6.3      0.000      0.000
REMARK  Name = SB_202190.pdbqt.pdb
REMARK  4 active torsions:
REMARK  status: ('A' for Active; 'I' for Inactive)
REMARK    1  A    between atoms: C_4  and  C_7
REMARK    2  A    between atoms: C_5  and  C_19
REMARK    3  A    between atoms: C_6  and  C_8
REMARK    4  A    between atoms: C_15  and  O_26
REMARK                            x       y       z     vdW  Elec       q    Type
REMARK                         _______ _______ _______ _____ _____    ______ ____
ROOT
ATOM      1  N   UNL     1      67.273 239.739 334.362  0.00  0.00    +0.000 N 
ATOM      2  N   UNL     1      67.310 239.274 336.510  0.00  0.00    +0.000 NA
ATOM      3  C   UNL     1      66.529 240.740 334.954  0.00  0.00    +0.000 A 
ATOM      4  C   UNL     1      66.547 240.401 336.299  0.00  0.00    +0.000 A 
ATOM      5  C   UNL     1      67.741 238.882 335.329  0.00  0.00    +0.000 A 
ATOM      6  H   UNL     1      67.479 239.663 333.376  0.00  0.00    +0.000 HD
ENDROOT
BRANCH   4   7
ATOM      7  C   UNL     1      65.876 241.067 337.396  0.00  0.00    +0.000 A 
ATOM      8  C   UNL     1      64.735 240.523 337.988  0.00  0.00    +0.000 A 
ATOM      9  C   UNL     1      64.129 241.154 339.072  0.00  0.00    +0.000 A 
ATOM     10  C   UNL     1      64.684 242.326 339.572  0.00  0.00    +0.000 A 
ATOM     11  F   UNL     1      64.102 242.939 340.612  0.00  0.00    +0.000 F 
ATOM     12  C   UNL     1      65.831 242.875 339.010  0.00  0.00    +0.000 A 
ATOM     13  C   UNL     1      66.428 242.237 337.925  0.00  0.00    +0.000 A 
ENDBRANCH   4   7
BRANCH   3  15
ATOM     14  N   UNL     1      64.853 243.990 332.757  0.00  0.00    +0.000 NA
ATOM     15  C   UNL     1      65.966 241.847 334.186  0.00  0.00    +0.000 A 
ATOM     16  C   UNL     1      64.876 241.647 333.342  0.00  0.00    +0.000 A 
ATOM     17  C   UNL     1      66.486 243.135 334.318  0.00  0.00    +0.000 A 
ATOM     18  C   UNL     1      64.364 242.736 332.655  0.00  0.00    +0.000 A 
ATOM     19  C   UNL     1      65.904 244.157 333.585  0.00  0.00    +0.000 A 
ENDBRANCH   3  15
BRANCH   5  20
ATOM     20  C   UNL     1      68.585 237.724 335.059  0.00  0.00    +0.000 A 
ATOM     21  C   UNL     1      69.971 237.880 334.976  0.00  0.00    +0.000 A 
ATOM     22  C   UNL     1      68.036 236.451 334.879  0.00  0.00    +0.000 A 
ATOM     23  C   UNL     1      70.798 236.788 334.719  0.00  0.00    +0.000 A 
ATOM     24  C   UNL     1      68.853 235.353 334.620  0.00  0.00    +0.000 A 
ATOM     25  C   UNL     1      70.229 235.531 334.543  0.00  0.00    +0.000 A 
BRANCH  25  26
ATOM     26  O   UNL     1      71.011 234.442 334.290  0.00  0.00    +0.000 OA
ATOM     27  H   UNL     1      70.483 233.642 334.458  0.00  0.00    +0.000 HD
ENDBRANCH  25  26
ENDBRANCH   5  20
TORSDOF 4
ENDMDL
MODEL 2
REMARK VINA RESULT:      -6.2     23.038     25.324
REMARK  Name = SB_202190.pdbqt.pdb
REMARK  4 active torsions:
REMARK  status: ('A' for Active; 'I' for Inactive)
REMARK    1  A    between atoms: C_4  and  C_7
REMARK    2  A    between atoms: C_5  and  C_19
REMARK    3  A    between atoms: C_6  and  C_8
REMARK    4  A    between atoms: C_15  and  O_26
REMARK                            x       y       z     vdW  Elec       q    Type
REMARK                         _______ _______ _______ _____ _____    ______ ____
ROOT
ATOM      1  N   UNL     1      57.250 216.959 333.506  0.00  0.00    +0.000 N 
ATOM      2  N   UNL     1      56.198 218.467 334.710  0.00  0.00    +0.000 NA
ATOM      3  C   UNL     1      57.800 216.852 334.768  0.00  0.00    +0.000 A 
ATOM      4  C   UNL     1      57.139 217.834 335.492  0.00  0.00    +0.000 A 
ATOM      5  C   UNL     1      56.278 217.930 333.511  0.00  0.00    +0.000 A 
ATOM      6  H   UNL     1      57.491 216.388 332.708  0.00  0.00    +0.000 HD
ENDROOT
BRANCH   4   7
ATOM      7  C   UNL     1      57.350 218.220 336.871  0.00  0.00    +0.000 A 
ATOM      8  C   UNL     1      56.881 217.435 337.926  0.00  0.00    +0.000 A 
ATOM      9  C   UNL     1      57.133 217.798 339.247  0.00  0.00    +0.000 A 
ATOM     10  C   UNL     1      57.873 218.945 339.506  0.00  0.00    +0.000 A 
ATOM     11  F   UNL     1      58.114 219.300 340.775  0.00  0.00    +0.000 F 
ATOM     12  C   UNL     1      58.365 219.731 338.470  0.00  0.00    +0.000 A 
ATOM     13  C   UNL     1      58.107 219.360 337.153  0.00  0.00    +0.000 A 
ENDBRANCH   4   7
BRANCH   3  15
ATOM     14  N   UNL     1      60.737 213.892 335.669  0.00  0.00    +0.000 NA
ATOM     15  C   UNL     1      58.806 215.845 335.094  0.00  0.00    +0.000 A 
ATOM     16  C   UNL     1      58.446 214.654 335.720  0.00  0.00    +0.000 A 
ATOM     17  C   UNL     1      60.143 216.044 334.748  0.00  0.00    +0.000 A 
ATOM     18  C   UNL     1      59.436 213.722 335.986  0.00  0.00    +0.000 A 
ATOM     19  C   UNL     1      61.058 215.051 335.059  0.00  0.00    +0.000 A 
ENDBRANCH   3  15
BRANCH   5  20
ATOM     20  C   UNL     1      55.473 218.289 332.348  0.00  0.00    +0.000 A 
ATOM     21  C   UNL     1      55.836 217.820 331.083  0.00  0.00    +0.000 A 
ATOM     22  C   UNL     1      54.339 219.097 332.471  0.00  0.00    +0.000 A 
ATOM     23  C   UNL     1      55.083 218.149 329.958  0.00  0.00    +0.000 A 
ATOM     24  C   UNL     1      53.580 219.432 331.352  0.00  0.00    +0.000 A 
ATOM     25  C   UNL     1      53.958 218.954 330.104  0.00  0.00    +0.000 A 
BRANCH  25  26
ATOM     26  O   UNL     1      53.200 219.294 329.022  0.00  0.00    +0.000 OA
ATOM     27  H   UNL     1      53.364 220.231 328.817  0.00  0.00    +0.000 HD
ENDBRANCH  25  26
ENDBRANCH   5  20
TORSDOF 4
ENDMDL
MODEL 3
REMARK VINA RESULT:      -5.9     17.695     19.818
REMARK  Name = SB_202190.pdbqt.pdb
REMARK  4 active torsions:
REMARK  status: ('A' for Active; 'I' for Inactive)
REMARK    1  A    between atoms: C_4  and  C_7
REMARK    2  A    between atoms: C_5  and  C_19
REMARK    3  A    between atoms: C_6  and  C_8
REMARK    4  A    between atoms: C_15  and  O_26
REMARK                            x       y       z     vdW  Elec       q    Type
REMARK                         _______ _______ _______ _____ _____    ______ ____
ROOT
ATOM      1  N   UNL     1      54.484 244.699 323.555  0.00  0.00    +0.000 N 
ATOM      2  N   UNL     1      54.532 243.913 321.502  0.00  0.00    +0.000 NA
ATOM      3  C   UNL     1      53.597 243.641 323.560  0.00  0.00    +0.000 A 
ATOM      4  C   UNL     1      53.629 243.189 322.248  0.00  0.00    +0.000 A 
ATOM      5  C   UNL     1      55.040 244.825 322.304  0.00  0.00    +0.000 A 
ATOM      6  H   UNL     1      54.722 245.272 324.352  0.00  0.00    +0.000 HD
ENDROOT
BRANCH   4   7
ATOM      7  C   UNL     1      52.848 242.125 321.652  0.00  0.00    +0.000 A 
ATOM      8  C   UNL     1      51.520 242.325 321.268  0.00  0.00    +0.000 A 
ATOM      9  C   UNL     1      50.799 241.304 320.654  0.00  0.00    +0.000 A 
ATOM     10  C   UNL     1      51.420 240.085 320.411  0.00  0.00    +0.000 A 
ATOM     11  F   UNL     1      50.728 239.099 319.825  0.00  0.00    +0.000 F 
ATOM     12  C   UNL     1      52.746 239.871 320.768  0.00  0.00    +0.000 A 
ATOM     13  C   UNL     1      53.459 240.897 321.382  0.00  0.00    +0.000 A 
ENDBRANCH   4   7
BRANCH   3  15
ATOM     14  N   UNL     1      51.613 242.333 327.102  0.00  0.00    +0.000 NA
ATOM     15  C   UNL     1      52.908 243.210 324.772  0.00  0.00    +0.000 A 
ATOM     16  C   UNL     1      51.654 242.607 324.703  0.00  0.00    +0.000 A 
ATOM     17  C   UNL     1      53.513 243.358 326.020  0.00  0.00    +0.000 A 
ATOM     18  C   UNL     1      51.053 242.195 325.881  0.00  0.00    +0.000 A 
ATOM     19  C   UNL     1      52.829 242.914 327.141  0.00  0.00    +0.000 A 
ENDBRANCH   3  15
BRANCH   5  20
ATOM     20  C   UNL     1      56.039 245.827 321.950  0.00  0.00    +0.000 A 
ATOM     21  C   UNL     1      56.050 247.059 322.609  0.00  0.00    +0.000 A 
ATOM     22  C   UNL     1      56.995 245.582 320.960  0.00  0.00    +0.000 A 
ATOM     23  C   UNL     1      56.994 248.031 322.289  0.00  0.00    +0.000 A 
ATOM     24  C   UNL     1      57.943 246.548 320.631  0.00  0.00    +0.000 A 
ATOM     25  C   UNL     1      57.936 247.765 321.300  0.00  0.00    +0.000 A 
BRANCH  25  26
ATOM     26  O   UNL     1      58.874 248.697 320.963  0.00  0.00    +0.000 OA
ATOM     27  H   UNL     1      58.558 249.568 321.259  0.00  0.00    +0.000 HD
ENDBRANCH  25  26
ENDBRANCH   5  20
TORSDOF 4
ENDMDL
MODEL 4
REMARK VINA RESULT:      -5.7     23.033     25.949
REMARK  Name = SB_202190.pdbqt.pdb
REMARK  4 active torsions:
REMARK  status: ('A' for Active; 'I' for Inactive)
REMARK    1  A    between atoms: C_4  and  C_7
REMARK    2  A    between atoms: C_5  and  C_19
REMARK    3  A    between atoms: C_6  and  C_8
REMARK    4  A    between atoms: C_15  and  O_26
REMARK                            x       y       z     vdW  Elec       q    Type
REMARK                         _______ _______ _______ _____ _____    ______ ____
ROOT
ATOM      1  N   UNL     1      57.238 216.480 335.365  0.00  0.00    +0.000 N 
ATOM      2  N   UNL     1      56.412 218.468 334.917  0.00  0.00    +0.000 NA
ATOM      3  C   UNL     1      56.797 216.395 334.060  0.00  0.00    +0.000 A 
ATOM      4  C   UNL     1      56.256 217.650 333.820  0.00  0.00    +0.000 A 
ATOM      5  C   UNL     1      57.005 217.747 335.846  0.00  0.00    +0.000 A 
ATOM      6  H   UNL     1      57.698 215.743 335.881  0.00  0.00    +0.000 HD
ENDROOT
BRANCH   4   7
ATOM      7  C   UNL     1      55.589 218.121 332.624  0.00  0.00    +0.000 A 
ATOM      8  C   UNL     1      55.977 217.683 331.356  0.00  0.00    +0.000 A 
ATOM      9  C   UNL     1      55.294 218.110 330.219  0.00  0.00    +0.000 A 
ATOM     10  C   UNL     1      54.209 218.967 330.361  0.00  0.00    +0.000 A 
ATOM     11  F   UNL     1      53.553 219.384 329.270  0.00  0.00    +0.000 F 
ATOM     12  C   UNL     1      53.795 219.400 331.615  0.00  0.00    +0.000 A 
ATOM     13  C   UNL     1      54.485 218.968 332.746  0.00  0.00    +0.000 A 
ENDBRANCH   4   7
BRANCH   3  15
ATOM     14  N   UNL     1      57.344 212.848 331.753  0.00  0.00    +0.000 NA
ATOM     15  C   UNL     1      56.982 215.191 333.254  0.00  0.00    +0.000 A 
ATOM     16  C   UNL     1      58.231 214.873 332.726  0.00  0.00    +0.000 A 
ATOM     17  C   UNL     1      55.918 214.318 333.033  0.00  0.00    +0.000 A 
ATOM     18  C   UNL     1      58.359 213.707 331.989  0.00  0.00    +0.000 A 
ATOM     19  C   UNL     1      56.147 213.177 332.280  0.00  0.00    +0.000 A 
ENDBRANCH   3  15
BRANCH   5  20
ATOM     20  C   UNL     1      57.370 218.194 337.185  0.00  0.00    +0.000 A 
ATOM     21  C   UNL     1      56.996 217.434 338.296  0.00  0.00    +0.000 A 
ATOM     22  C   UNL     1      58.092 219.374 337.385  0.00  0.00    +0.000 A 
ATOM     23  C   UNL     1      57.333 217.841 339.585  0.00  0.00    +0.000 A 
ATOM     24  C   UNL     1      58.434 219.790 338.670  0.00  0.00    +0.000 A 
ATOM     25  C   UNL     1      58.052 219.019 339.760  0.00  0.00    +0.000 A 
BRANCH  25  26
ATOM     26  O   UNL     1      58.398 219.445 341.009  0.00  0.00    +0.000 OA
ATOM     27  H   UNL     1      57.668 219.232 341.616  0.00  0.00    +0.000 HD
ENDBRANCH  25  26
ENDBRANCH   5  20
TORSDOF 4
ENDMDL
MODEL 5
REMARK VINA RESULT:      -5.6      8.313     10.596
REMARK  Name = SB_202190.pdbqt.pdb
REMARK  4 active torsions:
REMARK  status: ('A' for Active; 'I' for Inactive)
REMARK    1  A    between atoms: C_4  and  C_7
REMARK    2  A    between atoms: C_5  and  C_19
REMARK    3  A    between atoms: C_6  and  C_8
REMARK    4  A    between atoms: C_15  and  O_26
REMARK                            x       y       z     vdW  Elec       q    Type
REMARK                         _______ _______ _______ _____ _____    ______ ____
ROOT
ATOM      1  N   UNL     1      72.787 236.310 337.773  0.00  0.00    +0.000 N 
ATOM      2  N   UNL     1      74.621 235.290 337.120  0.00  0.00    +0.000 NA
ATOM      3  C   UNL     1      73.554 236.194 338.915  0.00  0.00    +0.000 A 
ATOM      4  C   UNL     1      74.685 235.522 338.476  0.00  0.00    +0.000 A 
ATOM      5  C   UNL     1      73.466 235.769 336.708  0.00  0.00    +0.000 A 
ATOM      6  H   UNL     1      71.883 236.757 337.714  0.00  0.00    +0.000 HD
ENDROOT
BRANCH   4   7
ATOM      7  C   UNL     1      75.817 235.073 339.260  0.00  0.00    +0.000 A 
ATOM      8  C   UNL     1      76.518 235.948 340.092  0.00  0.00    +0.000 A 
ATOM      9  C   UNL     1      77.575 235.489 340.874  0.00  0.00    +0.000 A 
ATOM     10  C   UNL     1      77.916 234.142 340.831  0.00  0.00    +0.000 A 
ATOM     11  F   UNL     1      78.935 233.697 341.578  0.00  0.00    +0.000 F 
ATOM     12  C   UNL     1      77.220 233.250 340.023  0.00  0.00    +0.000 A 
ATOM     13  C   UNL     1      76.165 233.720 339.244  0.00  0.00    +0.000 A 
ENDBRANCH   4   7
BRANCH   3  15
ATOM     14  N   UNL     1      72.366 237.811 342.680  0.00  0.00    +0.000 NA
ATOM     15  C   UNL     1      73.129 236.752 340.196  0.00  0.00    +0.000 A 
ATOM     16  C   UNL     1      72.407 235.981 341.105  0.00  0.00    +0.000 A 
ATOM     17  C   UNL     1      73.476 238.056 340.550  0.00  0.00    +0.000 A 
ATOM     18  C   UNL     1      72.050 236.550 342.316  0.00  0.00    +0.000 A 
ATOM     19  C   UNL     1      73.069 238.534 341.785  0.00  0.00    +0.000 A 
ENDBRANCH   3  15
BRANCH   5  20
ATOM     20  C   UNL     1      72.959 235.745 335.340  0.00  0.00    +0.000 A 
ATOM     21  C   UNL     1      73.627 236.457 334.340  0.00  0.00    +0.000 A 
ATOM     22  C   UNL     1      71.812 235.021 335.004  0.00  0.00    +0.000 A 
ATOM     23  C   UNL     1      73.162 236.448 333.028  0.00  0.00    +0.000 A 
ATOM     24  C   UNL     1      71.338 235.006 333.694  0.00  0.00    +0.000 A 
ATOM     25  C   UNL     1      72.018 235.720 332.716  0.00  0.00    +0.000 A 
BRANCH  25  26
ATOM     26  O   UNL     1      71.537 235.692 331.439  0.00  0.00    +0.000 OA
ATOM     27  H   UNL     1      70.572 235.579 331.480  0.00  0.00    +0.000 HD
ENDBRANCH  25  26
ENDBRANCH   5  20
TORSDOF 4
ENDMDL
MODEL 6
REMARK VINA RESULT:      -5.4     15.644     17.791
REMARK  Name = SB_202190.pdbqt.pdb
REMARK  4 active torsions:
REMARK  status: ('A' for Active; 'I' for Inactive)
REMARK    1  A    between atoms: C_4  and  C_7
REMARK    2  A    between atoms: C_5  and  C_19
REMARK    3  A    between atoms: C_6  and  C_8
REMARK    4  A    between atoms: C_15  and  O_26
REMARK                            x       y       z     vdW  Elec       q    Type
REMARK                         _______ _______ _______ _____ _____    ______ ____
ROOT
ATOM      1  N   UNL     1      66.658 231.470 348.761  0.00  0.00    +0.000 N 
ATOM      2  N   UNL     1      65.326 229.815 348.197  0.00  0.00    +0.000 NA
ATOM      3  C   UNL     1      66.491 230.738 349.920  0.00  0.00    +0.000 A 
ATOM      4  C   UNL     1      65.625 229.724 349.538  0.00  0.00    +0.000 A 
ATOM      5  C   UNL     1      65.956 230.877 347.740  0.00  0.00    +0.000 A 
ATOM      6  H   UNL     1      67.237 232.292 348.662  0.00  0.00    +0.000 HD
ENDROOT
BRANCH   4   7
ATOM      7  C   UNL     1      65.051 228.682 350.364  0.00  0.00    +0.000 A 
ATOM      8  C   UNL     1      65.412 227.343 350.201  0.00  0.00    +0.000 A 
ATOM      9  C   UNL     1      64.885 226.360 351.035  0.00  0.00    +0.000 A 
ATOM     10  C   UNL     1      64.005 226.728 352.046  0.00  0.00    +0.000 A 
ATOM     11  F   UNL     1      63.492 225.785 352.847  0.00  0.00    +0.000 F 
ATOM     12  C   UNL     1      63.647 228.057 352.238  0.00  0.00    +0.000 A 
ATOM     13  C   UNL     1      64.179 229.033 351.398  0.00  0.00    +0.000 A 
ENDBRANCH   4   7
BRANCH   3  15
ATOM     14  N   UNL     1      68.473 231.702 353.573  0.00  0.00    +0.000 NA
ATOM     15  C   UNL     1      67.183 231.078 351.160  0.00  0.00    +0.000 A 
ATOM     16  C   UNL     1      66.969 232.306 351.783  0.00  0.00    +0.000 A 
ATOM     17  C   UNL     1      68.041 230.160 351.765  0.00  0.00    +0.000 A 
ATOM     18  C   UNL     1      67.632 232.569 352.970  0.00  0.00    +0.000 A 
ATOM     19  C   UNL     1      68.659 230.519 352.953  0.00  0.00    +0.000 A 
ENDBRANCH   3  15
BRANCH   5  20
ATOM     20  C   UNL     1      65.931 231.373 346.368  0.00  0.00    +0.000 A 
ATOM     21  C   UNL     1      66.015 232.746 346.125  0.00  0.00    +0.000 A 
ATOM     22  C   UNL     1      65.824 230.500 345.282  0.00  0.00    +0.000 A 
ATOM     23  C   UNL     1      65.994 233.243 344.824  0.00  0.00    +0.000 A 
ATOM     24  C   UNL     1      65.801 230.986 343.977  0.00  0.00    +0.000 A 
ATOM     25  C   UNL     1      65.887 232.355 343.759  0.00  0.00    +0.000 A 
BRANCH  25  26
ATOM     26  O   UNL     1      65.863 232.810 342.473  0.00  0.00    +0.000 OA
ATOM     27  H   UNL     1      66.266 232.133 341.903  0.00  0.00    +0.000 HD
ENDBRANCH  25  26
ENDBRANCH   5  20
TORSDOF 4
ENDMDL
MODEL 7
REMARK VINA RESULT:      -5.4     18.272     19.895
REMARK  Name = SB_202190.pdbqt.pdb
REMARK  4 active torsions:
REMARK  status: ('A' for Active; 'I' for Inactive)
REMARK    1  A    between atoms: C_4  and  C_7
REMARK    2  A    between atoms: C_5  and  C_19
REMARK    3  A    between atoms: C_6  and  C_8
REMARK    4  A    between atoms: C_15  and  O_26
REMARK                            x       y       z     vdW  Elec       q    Type
REMARK                         _______ _______ _______ _____ _____    ______ ____
ROOT
ATOM      1  N   UNL     1      60.947 225.874 324.601  0.00  0.00    +0.000 N 
ATOM      2  N   UNL     1      63.079 225.818 325.131  0.00  0.00    +0.000 NA
ATOM      3  C   UNL     1      61.060 224.836 325.504  0.00  0.00    +0.000 A 
ATOM      4  C   UNL     1      62.417 224.808 325.794  0.00  0.00    +0.000 A 
ATOM      5  C   UNL     1      62.179 226.453 324.411  0.00  0.00    +0.000 A 
ATOM      6  H   UNL     1      60.089 226.191 324.172  0.00  0.00    +0.000 HD
ENDROOT
BRANCH   4   7
ATOM      7  C   UNL     1      63.128 223.878 326.646  0.00  0.00    +0.000 A 
ATOM      8  C   UNL     1      63.200 224.067 328.027  0.00  0.00    +0.000 A 
ATOM      9  C   UNL     1      63.849 223.138 328.837  0.00  0.00    +0.000 A 
ATOM     10  C   UNL     1      64.413 222.008 328.256  0.00  0.00    +0.000 A 
ATOM     11  F   UNL     1      65.043 221.115 329.031  0.00  0.00    +0.000 F 
ATOM     12  C   UNL     1      64.337 221.792 326.885  0.00  0.00    +0.000 A 
ATOM     13  C   UNL     1      63.687 222.727 326.084  0.00  0.00    +0.000 A 
ENDBRANCH   4   7
BRANCH   3  15
ATOM     14  N   UNL     1      57.707 222.586 326.882  0.00  0.00    +0.000 NA
ATOM     15  C   UNL     1      59.901 224.079 325.967  0.00  0.00    +0.000 A 
ATOM     16  C   UNL     1      59.248 223.186 325.121  0.00  0.00    +0.000 A 
ATOM     17  C   UNL     1      59.451 224.209 327.281  0.00  0.00    +0.000 A 
ATOM     18  C   UNL     1      58.168 222.474 325.618  0.00  0.00    +0.000 A 
ATOM     19  C   UNL     1      58.360 223.454 327.682  0.00  0.00    +0.000 A 
ENDBRANCH   3  15
BRANCH   5  20
ATOM     20  C   UNL     1      62.420 227.597 323.539  0.00  0.00    +0.000 A 
ATOM     21  C   UNL     1      61.346 228.381 323.109  0.00  0.00    +0.000 A 
ATOM     22  C   UNL     1      63.711 227.931 323.120  0.00  0.00    +0.000 A 
ATOM     23  C   UNL     1      61.552 229.478 322.276  0.00  0.00    +0.000 A 
ATOM     24  C   UNL     1      63.928 229.026 322.287  0.00  0.00    +0.000 A 
ATOM     25  C   UNL     1      62.845 229.791 321.872  0.00  0.00    +0.000 A 
BRANCH  25  26
ATOM     26  O   UNL     1      63.080 230.860 321.056  0.00  0.00    +0.000 OA
ATOM     27  H   UNL     1      62.678 230.676 320.190  0.00  0.00    +0.000 HD
ENDBRANCH  25  26
ENDBRANCH   5  20
TORSDOF 4
ENDMDL
MODEL 8
REMARK VINA RESULT:      -5.4     17.380     19.589
REMARK  Name = SB_202190.pdbqt.pdb
REMARK  4 active torsions:
REMARK  status: ('A' for Active; 'I' for Inactive)
REMARK    1  A    between atoms: C_4  and  C_7
REMARK    2  A    between atoms: C_5  and  C_19
REMARK    3  A    between atoms: C_6  and  C_8
REMARK    4  A    between atoms: C_15  and  O_26
REMARK                            x       y       z     vdW  Elec       q    Type
REMARK                         _______ _______ _______ _____ _____    ______ ____
ROOT
ATOM      1  N   UNL     1      54.158 239.318 350.775  0.00  0.00    +0.000 N 
ATOM      2  N   UNL     1      55.327 240.821 349.676  0.00  0.00    +0.000 NA
ATOM      3  C   UNL     1      53.302 239.789 349.800  0.00  0.00    +0.000 A 
ATOM      4  C   UNL     1      54.057 240.753 349.147  0.00  0.00    +0.000 A 
ATOM      5  C   UNL     1      55.374 239.950 350.662  0.00  0.00    +0.000 A 
ATOM      6  H   UNL     1      53.945 238.594 351.446  0.00  0.00    +0.000 HD
ENDROOT
BRANCH   4   7
ATOM      7  C   UNL     1      53.650 241.624 348.064  0.00  0.00    +0.000 A 
ATOM      8  C   UNL     1      52.863 242.753 348.297  0.00  0.00    +0.000 A 
ATOM      9  C   UNL     1      52.518 243.605 347.250  0.00  0.00    +0.000 A 
ATOM     10  C   UNL     1      52.981 243.328 345.969  0.00  0.00    +0.000 A 
ATOM     11  F   UNL     1      52.648 244.143 344.959  0.00  0.00    +0.000 F 
ATOM     12  C   UNL     1      53.781 242.220 345.719  0.00  0.00    +0.000 A 
ATOM     13  C   UNL     1      54.119 241.373 346.772  0.00  0.00    +0.000 A 
ENDBRANCH   4   7
BRANCH   3  15
ATOM     14  N   UNL     1      49.366 238.246 349.227  0.00  0.00    +0.000 NA
ATOM     15  C   UNL     1      51.959 239.247 349.617  0.00  0.00    +0.000 A 
ATOM     16  C   UNL     1      50.920 239.614 350.471  0.00  0.00    +0.000 A 
ATOM     17  C   UNL     1      51.683 238.383 348.558  0.00  0.00    +0.000 A 
ATOM     18  C   UNL     1      49.659 239.090 350.239  0.00  0.00    +0.000 A 
ATOM     19  C   UNL     1      50.388 237.911 348.413  0.00  0.00    +0.000 A 
ENDBRANCH   3  15
BRANCH   5  20
ATOM     20  C   UNL     1      56.522 239.675 351.518  0.00  0.00    +0.000 A 
ATOM     21  C   UNL     1      56.342 238.980 352.718  0.00  0.00    +0.000 A 
ATOM     22  C   UNL     1      57.809 240.091 351.165  0.00  0.00    +0.000 A 
ATOM     23  C   UNL     1      57.423 238.706 353.552  0.00  0.00    +0.000 A 
ATOM     24  C   UNL     1      58.897 239.822 351.992  0.00  0.00    +0.000 A 
ATOM     25  C   UNL     1      58.695 239.130 353.179  0.00  0.00    +0.000 A 
BRANCH  25  26
ATOM     26  O   UNL     1      59.774 238.877 353.974  0.00  0.00    +0.000 OA
ATOM     27  H   UNL     1      59.450 238.592 354.846  0.00  0.00    +0.000 HD
ENDBRANCH  25  26
ENDBRANCH   5  20
TORSDOF 4
ENDMDL
MODEL 9
REMARK VINA RESULT:      -5.3     17.045     19.733
REMARK  Name = SB_202190.pdbqt.pdb
REMARK  4 active torsions:
REMARK  status: ('A' for Active; 'I' for Inactive)
REMARK    1  A    between atoms: C_4  and  C_7
REMARK    2  A    between atoms: C_5  and  C_19
REMARK    3  A    between atoms: C_6  and  C_8
REMARK    4  A    between atoms: C_15  and  O_26
REMARK                            x       y       z     vdW  Elec       q    Type
REMARK                         _______ _______ _______ _____ _____    ______ ____
ROOT
ATOM      1  N   UNL     1      72.466 222.580 338.501  0.00  0.00    +0.000 N 
ATOM      2  N   UNL     1      71.338 222.669 336.617  0.00  0.00    +0.000 NA
ATOM      3  C   UNL     1      71.387 221.740 338.694  0.00  0.00    +0.000 A 
ATOM      4  C   UNL     1      70.683 221.843 337.503  0.00  0.00    +0.000 A 
ATOM      5  C   UNL     1      72.413 223.110 337.234  0.00  0.00    +0.000 A 
ATOM      6  H   UNL     1      73.205 222.752 339.168  0.00  0.00    +0.000 HD
ENDROOT
BRANCH   4   7
ATOM      7  C   UNL     1      69.422 221.220 337.156  0.00  0.00    +0.000 A 
ATOM      8  C   UNL     1      68.412 221.045 338.104  0.00  0.00    +0.000 A 
ATOM      9  C   UNL     1      67.189 220.486 337.742  0.00  0.00    +0.000 A 
ATOM     10  C   UNL     1      66.976 220.119 336.418  0.00  0.00    +0.000 A 
ATOM     11  F   UNL     1      65.802 219.577 336.067  0.00  0.00    +0.000 F 
ATOM     12  C   UNL     1      67.960 220.302 335.455  0.00  0.00    +0.000 A 
ATOM     13  C   UNL     1      69.181 220.861 335.827  0.00  0.00    +0.000 A 
ENDBRANCH   4   7
BRANCH   3  15
ATOM     14  N   UNL     1      70.936 219.485 342.288  0.00  0.00    +0.000 NA
ATOM     15  C   UNL     1      71.214 220.967 339.921  0.00  0.00    +0.000 A 
ATOM     16  C   UNL     1      71.211 219.574 339.890  0.00  0.00    +0.000 A 
ATOM     17  C   UNL     1      71.088 221.611 341.151  0.00  0.00    +0.000 A 
ATOM     18  C   UNL     1      71.067 218.887 341.084  0.00  0.00    +0.000 A 
ATOM     19  C   UNL     1      70.947 220.834 342.290  0.00  0.00    +0.000 A 
ENDBRANCH   3  15
BRANCH   5  20
ATOM     20  C   UNL     1      73.412 224.020 336.686  0.00  0.00    +0.000 A 
ATOM     21  C   UNL     1      74.122 223.660 335.537  0.00  0.00    +0.000 A 
ATOM     22  C   UNL     1      73.678 225.254 337.285  0.00  0.00    +0.000 A 
ATOM     23  C   UNL     1      75.081 224.512 334.995  0.00  0.00    +0.000 A 
ATOM     24  C   UNL     1      74.635 226.114 336.751  0.00  0.00    +0.000 A 
ATOM     25  C   UNL     1      75.329 225.736 335.609  0.00  0.00    +0.000 A 
BRANCH  25  26
ATOM     26  O   UNL     1      76.261 226.593 335.102  0.00  0.00    +0.000 OA
ATOM     27  H   UNL     1      76.998 226.650 335.735  0.00  0.00    +0.000 HD
ENDBRANCH  25  26
ENDBRANCH   5  20
TORSDOF 4
ENDMDL
