REMARK  Name = SB_202190.pdbqt.pdb
REMARK  4 active torsions:
REMARK  status: ('A' for Active; 'I' for Inactive)
REMARK    1  A    between atoms: C_4  and  C_7
REMARK    2  A    between atoms: C_5  and  C_19
REMARK    3  A    between atoms: C_6  and  C_8
REMARK    4  A    between atoms: C_15  and  O_26
REMARK                            x       y       z     vdW  Elec       q    Type
REMARK                         _______ _______ _______ _____ _____    ______ ____
ROOT
ATOM      1  N   UNL     1      -0.927   1.144   0.135  0.00  0.00    +0.000 N 
ATOM      2  N   UNL     1      -0.725  -1.027  -0.145  0.00  0.00    +0.000 NA
ATOM      3  C   UNL     1       0.434   0.919   0.081  0.00  0.00    +0.000 A 
ATOM      4  C   UNL     1       0.527  -0.458  -0.065  0.00  0.00    +0.000 A 
ATOM      5  C   UNL     1      -1.595  -0.047  -0.020  0.00  0.00    +0.000 A 
ATOM      6  H   UNL     1      -1.371   2.046   0.233  0.00  0.00    +0.000 HD
ENDROOT
BRANCH   4   7
ATOM      7  C   UNL     1       1.724  -1.271  -0.119  0.00  0.00    +0.000 A 
ATOM      8  C   UNL     1       2.844  -0.968   0.658  0.00  0.00    +0.000 A 
ATOM      9  C   UNL     1       3.970  -1.787   0.628  0.00  0.00    +0.000 A 
ATOM     10  C   UNL     1       3.962  -2.923  -0.173  0.00  0.00    +0.000 A 
ATOM     11  F   UNL     1       5.045  -3.711  -0.208  0.00  0.00    +0.000 F 
ATOM     12  C   UNL     1       2.851  -3.253  -0.940  0.00  0.00    +0.000 A 
ATOM     13  C   UNL     1       1.730  -2.427  -0.904  0.00  0.00    +0.000 A 
ENDBRANCH   4   7
BRANCH   3  15
ATOM     14  N   UNL     1       3.240   4.130   0.204  0.00  0.00    +0.000 NA
ATOM     15  C   UNL     1       1.405   2.008   0.136  0.00  0.00    +0.000 A 
ATOM     16  C   UNL     1       2.561   1.972  -0.641  0.00  0.00    +0.000 A 
ATOM     17  C   UNL     1       1.171   3.124   0.939  0.00  0.00    +0.000 A 
ATOM     18  C   UNL     1       3.438   3.042  -0.570  0.00  0.00    +0.000 A 
ATOM     19  C   UNL     1       2.111   4.142   0.942  0.00  0.00    +0.000 A 
ENDBRANCH   3  15
BRANCH   5  20
ATOM     20  C   UNL     1      -3.048  -0.174  -0.039  0.00  0.00    +0.000 A 
ATOM     21  C   UNL     1      -3.632  -1.433  -0.204  0.00  0.00    +0.000 A 
ATOM     22  C   UNL     1      -3.877   0.942   0.106  0.00  0.00    +0.000 A 
ATOM     23  C   UNL     1      -5.017  -1.579  -0.225  0.00  0.00    +0.000 A 
ATOM     24  C   UNL     1      -5.263   0.807   0.086  0.00  0.00    +0.000 A 
ATOM     25  C   UNL     1      -5.822  -0.454  -0.079  0.00  0.00    +0.000 A 
BRANCH  25  26
ATOM     26  O   UNL     1      -7.182  -0.564  -0.095  0.00  0.00    +0.000 OA
ATOM     27  H   UNL     1      -7.410  -1.502  -0.218  0.00  0.00    +0.000 HD
ENDBRANCH  25  26
ENDBRANCH   5  20
TORSDOF 4
