MODEL 1
REMARK VINA RESULT:      -5.8      0.000      0.000
REMARK  Name = Simvastatin.pdbqt.pdb
REMARK  7 active torsions:
REMARK  status: ('A' for Active; 'I' for Inactive)
REMARK    1  A    between atoms: C_2  and  C_13
REMARK    2  A    between atoms: C_3  and  O_24
REMARK    3  A    between atoms: C_14  and  C_15
REMARK    4  A    between atoms: C_20  and  O_22
REMARK    5  A    between atoms: O_24  and  C_25
REMARK    6  A    between atoms: C_25  and  C_27
REMARK    7  A    between atoms: C_27  and  C_30
REMARK                            x       y       z     vdW  Elec       q    Type
REMARK                         _______ _______ _______ _____ _____    ______ ____
ROOT
ATOM      1  C   UNL     1      56.543 246.632 322.016  0.00  0.00    +0.000 A 
ATOM      2  C   UNL     1      55.570 246.979 323.121  0.00  0.00    +0.000 A 
ATOM      3  C   UNL     1      56.477 245.402 321.149  0.00  0.00    +0.000 A 
ATOM      4  C   UNL     1      55.568 248.348 323.702  0.00  0.00    +0.000 A 
ATOM      5  C   UNL     1      57.644 247.670 321.707  0.00  0.00    +0.000 A 
ATOM      6  C   UNL     1      57.484 245.420 320.123  0.00  0.00    +0.000 A 
ATOM      7  C   UNL     1      58.490 246.360 319.735  0.00  0.00    +0.000 A 
ATOM      8  C   UNL     1      58.392 247.434 320.670  0.00  0.00    +0.000 A 
ATOM      9  C   UNL     1      56.608 249.163 323.168  0.00  0.00    +0.000 A 
ATOM     10  C   UNL     1      57.457 248.908 322.361  0.00  0.00    +0.000 A 
ATOM     11  C   UNL     1      54.656 248.863 324.774  0.00  0.00    +0.000 C 
ATOM     12  C   UNL     1      58.730 246.639 318.286  0.00  0.00    +0.000 C 
ENDROOT
BRANCH   2  13
ATOM     13  C   UNL     1      54.821 245.935 323.739  0.00  0.00    +0.000 C 
ATOM     14  C   UNL     1      53.991 244.861 324.453  0.00  0.00    +0.000 C 
BRANCH  14  15
ATOM     15  C   UNL     1      53.190 243.916 325.138  0.00  0.00    +0.000 C 
ATOM     16  O   UNL     1      52.030 243.396 324.455  0.00  0.00    +0.000 OA
ATOM     17  C   UNL     1      51.170 242.501 325.100  0.00  0.00    +0.000 C 
ATOM     18  O   UNL     1      50.172 242.020 324.585  0.00  0.00    +0.000 OA
ATOM     19  C   UNL     1      51.557 242.186 326.453  0.00  0.00    +0.000 C 
ATOM     20  C   UNL     1      52.628 242.596 327.275  0.00  0.00    +0.000 C 
ATOM     21  C   UNL     1      53.385 243.481 326.475  0.00  0.00    +0.000 C 
BRANCH  20  22
ATOM     22  O   UNL     1      52.468 242.764 328.620  0.00  0.00    +0.000 OA
ATOM     23  H   UNL     1      51.581 242.494 328.927  0.00  0.00    +0.000 HD
ENDBRANCH  20  22
ENDBRANCH  14  15
ENDBRANCH   2  13
BRANCH   3  24
ATOM     24  O   UNL     1      55.186 244.992 320.801  0.00  0.00    +0.000 OA
BRANCH  24  25
ATOM     25  C   UNL     1      54.904 245.209 319.465  0.00  0.00    +0.000 C 
ATOM     26  O   UNL     1      55.402 244.551 318.549  0.00  0.00    +0.000 OA
BRANCH  25  27
ATOM     27  C   UNL     1      53.901 246.401 319.290  0.00  0.00    +0.000 C 
ATOM     28  C   UNL     1      52.993 246.512 320.572  0.00  0.00    +0.000 C 
ATOM     29  C   UNL     1      52.971 246.179 318.030  0.00  0.00    +0.000 C 
BRANCH  27  30
ATOM     30  C   UNL     1      54.712 247.636 319.098  0.00  0.00    +0.000 C 
ATOM     31  C   UNL     1      55.569 248.912 318.851  0.00  0.00    +0.000 C 
ENDBRANCH  27  30
ENDBRANCH  25  27
ENDBRANCH  24  25
ENDBRANCH   3  24
TORSDOF 7
ENDMDL
MODEL 2
REMARK VINA RESULT:      -5.6      3.357      6.338
REMARK  Name = Simvastatin.pdbqt.pdb
REMARK  7 active torsions:
REMARK  status: ('A' for Active; 'I' for Inactive)
REMARK    1  A    between atoms: C_2  and  C_13
REMARK    2  A    between atoms: C_3  and  O_24
REMARK    3  A    between atoms: C_14  and  C_15
REMARK    4  A    between atoms: C_20  and  O_22
REMARK    5  A    between atoms: O_24  and  C_25
REMARK    6  A    between atoms: C_25  and  C_27
REMARK    7  A    between atoms: C_27  and  C_30
REMARK                            x       y       z     vdW  Elec       q    Type
REMARK                         _______ _______ _______ _____ _____    ______ ____
ROOT
ATOM      1  C   UNL     1      53.496 244.848 324.229  0.00  0.00    +0.000 A 
ATOM      2  C   UNL     1      53.511 246.044 325.156  0.00  0.00    +0.000 A 
ATOM      3  C   UNL     1      52.553 243.678 324.330  0.00  0.00    +0.000 A 
ATOM      4  C   UNL     1      54.283 247.260 324.782  0.00  0.00    +0.000 A 
ATOM      5  C   UNL     1      54.480 244.878 323.040  0.00  0.00    +0.000 A 
ATOM      6  C   UNL     1      52.726 242.760 323.237  0.00  0.00    +0.000 A 
ATOM      7  C   UNL     1      53.563 242.744 322.076  0.00  0.00    +0.000 A 
ATOM      8  C   UNL     1      54.371 243.918 322.170  0.00  0.00    +0.000 A 
ATOM      9  C   UNL     1      55.019 247.082 323.576  0.00  0.00    +0.000 A 
ATOM     10  C   UNL     1      55.112 246.127 322.856  0.00  0.00    +0.000 A 
ATOM     11  C   UNL     1      54.377 248.533 325.566  0.00  0.00    +0.000 C 
ATOM     12  C   UNL     1      52.999 242.319 320.759  0.00  0.00    +0.000 C 
ENDROOT
BRANCH   2  13
ATOM     13  C   UNL     1      52.968 245.913 326.468  0.00  0.00    +0.000 C 
ATOM     14  C   UNL     1      52.320 245.796 327.853  0.00  0.00    +0.000 C 
BRANCH  14  15
ATOM     15  C   UNL     1      51.664 245.688 329.103  0.00  0.00    +0.000 C 
ATOM     16  O   UNL     1      51.843 246.761 330.051  0.00  0.00    +0.000 OA
ATOM     17  C   UNL     1      51.264 246.686 331.322  0.00  0.00    +0.000 C 
ATOM     18  O   UNL     1      51.373 247.554 332.175  0.00  0.00    +0.000 OA
ATOM     19  C   UNL     1      50.518 245.475 331.558  0.00  0.00    +0.000 C 
ATOM     20  C   UNL     1      50.248 244.334 330.772  0.00  0.00    +0.000 C 
ATOM     21  C   UNL     1      50.895 244.578 329.541  0.00  0.00    +0.000 C 
BRANCH  20  22
ATOM     22  O   UNL     1      50.155 243.093 331.330  0.00  0.00    +0.000 OA
ATOM     23  H   UNL     1      49.911 243.124 332.275  0.00  0.00    +0.000 HD
ENDBRANCH  20  22
ENDBRANCH  14  15
ENDBRANCH   2  13
BRANCH   3  24
ATOM     24  O   UNL     1      51.251 243.999 324.723  0.00  0.00    +0.000 OA
BRANCH  24  25
ATOM     25  C   UNL     1      50.812 243.226 325.783  0.00  0.00    +0.000 C 
ATOM     26  O   UNL     1      51.555 242.505 326.452  0.00  0.00    +0.000 OA
BRANCH  25  27
ATOM     27  C   UNL     1      49.265 243.381 325.987  0.00  0.00    +0.000 C 
ATOM     28  C   UNL     1      48.792 242.421 327.143  0.00  0.00    +0.000 C 
ATOM     29  C   UNL     1      48.478 243.009 324.666  0.00  0.00    +0.000 C 
BRANCH  27  30
ATOM     30  C   UNL     1      49.006 244.807 326.334  0.00  0.00    +0.000 C 
ATOM     31  C   UNL     1      48.735 246.284 326.745  0.00  0.00    +0.000 C 
ENDBRANCH  27  30
ENDBRANCH  25  27
ENDBRANCH  24  25
ENDBRANCH   3  24
TORSDOF 7
ENDMDL
MODEL 3
REMARK VINA RESULT:      -5.4      2.793      6.386
REMARK  Name = Simvastatin.pdbqt.pdb
REMARK  7 active torsions:
REMARK  status: ('A' for Active; 'I' for Inactive)
REMARK    1  A    between atoms: C_2  and  C_13
REMARK    2  A    between atoms: C_3  and  O_24
REMARK    3  A    between atoms: C_14  and  C_15
REMARK    4  A    between atoms: C_20  and  O_22
REMARK    5  A    between atoms: O_24  and  C_25
REMARK    6  A    between atoms: C_25  and  C_27
REMARK    7  A    between atoms: C_27  and  C_30
REMARK                            x       y       z     vdW  Elec       q    Type
REMARK                         _______ _______ _______ _____ _____    ______ ____
ROOT
ATOM      1  C   UNL     1      54.522 246.659 323.644  0.00  0.00    +0.000 A 
ATOM      2  C   UNL     1      55.194 245.776 322.615  0.00  0.00    +0.000 A 
ATOM      3  C   UNL     1      53.439 246.222 324.594  0.00  0.00    +0.000 A 
ATOM      4  C   UNL     1      56.440 246.237 321.945  0.00  0.00    +0.000 A 
ATOM      5  C   UNL     1      55.055 248.102 323.776  0.00  0.00    +0.000 A 
ATOM      6  C   UNL     1      53.087 247.267 325.517  0.00  0.00    +0.000 A 
ATOM      7  C   UNL     1      53.568 248.596 325.742  0.00  0.00    +0.000 A 
ATOM      8  C   UNL     1      54.572 248.814 324.750  0.00  0.00    +0.000 A 
ATOM      9  C   UNL     1      56.796 247.563 322.322  0.00  0.00    +0.000 A 
ATOM     10  C   UNL     1      56.250 248.334 323.060  0.00  0.00    +0.000 A 
ATOM     11  C   UNL     1      57.243 245.478 320.933  0.00  0.00    +0.000 C 
ATOM     12  C   UNL     1      53.768 249.088 327.140  0.00  0.00    +0.000 C 
ENDROOT
BRANCH   2  13
ATOM     13  C   UNL     1      54.511 244.617 322.143  0.00  0.00    +0.000 C 
ATOM     14  C   UNL     1      53.796 243.336 321.696  0.00  0.00    +0.000 C 
BRANCH  14  15
ATOM     15  C   UNL     1      53.136 242.133 321.345  0.00  0.00    +0.000 C 
ATOM     16  O   UNL     1      53.935 241.061 320.802  0.00  0.00    +0.000 OA
ATOM     17  C   UNL     1      53.333 239.869 320.387  0.00  0.00    +0.000 C 
ATOM     18  O   UNL     1      53.944 238.921 319.919  0.00  0.00    +0.000 OA
ATOM     19  C   UNL     1      51.901 239.846 320.551  0.00  0.00    +0.000 C 
ATOM     20  C   UNL     1      50.966 240.783 321.043  0.00  0.00    +0.000 C 
ATOM     21  C   UNL     1      51.736 241.907 321.414  0.00  0.00    +0.000 C 
BRANCH  20  22
ATOM     22  O   UNL     1      49.714 240.883 320.511  0.00  0.00    +0.000 OA
ATOM     23  H   UNL     1      49.500 241.793 320.227  0.00  0.00    +0.000 HD
ENDBRANCH  20  22
ENDBRANCH  14  15
ENDBRANCH   2  13
BRANCH   3  24
ATOM     24  O   UNL     1      53.574 244.922 325.090  0.00  0.00    +0.000 OA
BRANCH  24  25
ATOM     25  C   UNL     1      52.370 244.242 325.128  0.00  0.00    +0.000 C 
ATOM     26  O   UNL     1      51.603 244.161 324.167  0.00  0.00    +0.000 OA
BRANCH  25  27
ATOM     27  C   UNL     1      52.119 243.626 326.549  0.00  0.00    +0.000 C 
ATOM     28  C   UNL     1      51.430 244.702 327.470  0.00  0.00    +0.000 C 
ATOM     29  C   UNL     1      53.480 243.181 327.222  0.00  0.00    +0.000 C 
BRANCH  27  30
ATOM     30  C   UNL     1      51.243 242.435 326.365  0.00  0.00    +0.000 C 
ATOM     31  C   UNL     1      50.324 241.201 326.125  0.00  0.00    +0.000 C 
ENDBRANCH  27  30
ENDBRANCH  25  27
ENDBRANCH  24  25
ENDBRANCH   3  24
TORSDOF 7
ENDMDL
MODEL 4
REMARK VINA RESULT:      -5.4     30.777     33.317
REMARK  Name = Simvastatin.pdbqt.pdb
REMARK  7 active torsions:
REMARK  status: ('A' for Active; 'I' for Inactive)
REMARK    1  A    between atoms: C_2  and  C_13
REMARK    2  A    between atoms: C_3  and  O_24
REMARK    3  A    between atoms: C_14  and  C_15
REMARK    4  A    between atoms: C_20  and  O_22
REMARK    5  A    between atoms: O_24  and  C_25
REMARK    6  A    between atoms: C_25  and  C_27
REMARK    7  A    between atoms: C_27  and  C_30
REMARK                            x       y       z     vdW  Elec       q    Type
REMARK                         _______ _______ _______ _____ _____    ______ ____
ROOT
ATOM      1  C   UNL     1      72.960 223.202 337.908  0.00  0.00    +0.000 A 
ATOM      2  C   UNL     1      72.572 222.632 336.560  0.00  0.00    +0.000 A 
ATOM      3  C   UNL     1      72.323 222.840 339.224  0.00  0.00    +0.000 A 
ATOM      4  C   UNL     1      73.460 222.843 335.385  0.00  0.00    +0.000 A 
ATOM      5  C   UNL     1      74.160 224.173 337.932  0.00  0.00    +0.000 A 
ATOM      6  C   UNL     1      72.989 223.474 340.329  0.00  0.00    +0.000 A 
ATOM      7  C   UNL     1      74.131 224.330 340.441  0.00  0.00    +0.000 A 
ATOM      8  C   UNL     1      74.576 224.553 339.104  0.00  0.00    +0.000 A 
ATOM      9  C   UNL     1      74.571 223.681 335.691  0.00  0.00    +0.000 A 
ATOM     10  C   UNL     1      74.872 224.228 336.714  0.00  0.00    +0.000 A 
ATOM     11  C   UNL     1      73.241 222.324 333.996  0.00  0.00    +0.000 C 
ATOM     12  C   UNL     1      75.120 224.109 341.540  0.00  0.00    +0.000 C 
ENDROOT
BRANCH   2  13
ATOM     13  C   UNL     1      71.264 222.091 336.385  0.00  0.00    +0.000 C 
ATOM     14  C   UNL     1      69.886 221.443 336.206  0.00  0.00    +0.000 C 
BRANCH  14  15
ATOM     15  C   UNL     1      68.637 220.792 336.070  0.00  0.00    +0.000 C 
ATOM     16  O   UNL     1      67.958 220.897 334.801  0.00  0.00    +0.000 OA
ATOM     17  C   UNL     1      66.697 220.320 334.622  0.00  0.00    +0.000 C 
ATOM     18  O   UNL     1      66.064 220.368 333.578  0.00  0.00    +0.000 OA
ATOM     19  C   UNL     1      66.184 219.654 335.794  0.00  0.00    +0.000 C 
ATOM     20  C   UNL     1      66.687 219.462 337.098  0.00  0.00    +0.000 C 
ATOM     21  C   UNL     1      67.949 220.096 337.099  0.00  0.00    +0.000 C 
BRANCH  20  22
ATOM     22  O   UNL     1      65.862 219.449 338.184  0.00  0.00    +0.000 OA
ATOM     23  H   UNL     1      66.351 219.357 339.025  0.00  0.00    +0.000 HD
ENDBRANCH  20  22
ENDBRANCH  14  15
ENDBRANCH   2  13
BRANCH   3  24
ATOM     24  O   UNL     1      71.958 221.497 339.355  0.00  0.00    +0.000 OA
BRANCH  24  25
ATOM     25  C   UNL     1      70.667 221.344 339.827  0.00  0.00    +0.000 C 
ATOM     26  O   UNL     1      69.776 222.177 339.654  0.00  0.00    +0.000 OA
BRANCH  25  27
ATOM     27  C   UNL     1      70.515 219.997 340.616  0.00  0.00    +0.000 C 
ATOM     28  C   UNL     1      71.649 218.999 340.170  0.00  0.00    +0.000 C 
ATOM     29  C   UNL     1      69.111 219.327 340.329  0.00  0.00    +0.000 C 
BRANCH  27  30
ATOM     30  C   UNL     1      70.624 220.319 342.067  0.00  0.00    +0.000 C 
ATOM     31  C   UNL     1      70.689 220.656 343.586  0.00  0.00    +0.000 C 
ENDBRANCH  27  30
ENDBRANCH  25  27
ENDBRANCH  24  25
ENDBRANCH   3  24
TORSDOF 7
ENDMDL
MODEL 5
REMARK VINA RESULT:      -5.4     31.681     33.413
REMARK  Name = Simvastatin.pdbqt.pdb
REMARK  7 active torsions:
REMARK  status: ('A' for Active; 'I' for Inactive)
REMARK    1  A    between atoms: C_2  and  C_13
REMARK    2  A    between atoms: C_3  and  O_24
REMARK    3  A    between atoms: C_14  and  C_15
REMARK    4  A    between atoms: C_20  and  O_22
REMARK    5  A    between atoms: O_24  and  C_25
REMARK    6  A    between atoms: C_25  and  C_27
REMARK    7  A    between atoms: C_27  and  C_30
REMARK                            x       y       z     vdW  Elec       q    Type
REMARK                         _______ _______ _______ _____ _____    ______ ____
ROOT
ATOM      1  C   UNL     1      73.485 223.716 336.836  0.00  0.00    +0.000 A 
ATOM      2  C   UNL     1      72.812 222.603 336.061  0.00  0.00    +0.000 A 
ATOM      3  C   UNL     1      73.413 223.906 338.328  0.00  0.00    +0.000 A 
ATOM      4  C   UNL     1      73.194 222.352 334.645  0.00  0.00    +0.000 A 
ATOM      5  C   UNL     1      74.379 224.682 336.030  0.00  0.00    +0.000 A 
ATOM      6  C   UNL     1      74.247 224.992 338.766  0.00  0.00    +0.000 A 
ATOM      7  C   UNL     1      75.143 225.888 338.100  0.00  0.00    +0.000 A 
ATOM      8  C   UNL     1      75.062 225.550 336.715  0.00  0.00    +0.000 A 
ATOM      9  C   UNL     1      74.128 223.312 334.160  0.00  0.00    +0.000 A 
ATOM     10  C   UNL     1      74.620 224.261 334.703  0.00  0.00    +0.000 A 
ATOM     11  C   UNL     1      72.652 221.279 333.751  0.00  0.00    +0.000 C 
ATOM     12  C   UNL     1      76.461 226.221 338.720  0.00  0.00    +0.000 C 
ENDROOT
BRANCH   2  13
ATOM     13  C   UNL     1      71.674 221.954 336.625  0.00  0.00    +0.000 C 
ATOM     14  C   UNL     1      70.458 221.204 337.180  0.00  0.00    +0.000 C 
BRANCH  14  15
ATOM     15  C   UNL     1      69.356 220.459 337.664  0.00  0.00    +0.000 C 
ATOM     16  O   UNL     1      68.093 220.604 336.981  0.00  0.00    +0.000 OA
ATOM     17  C   UNL     1      66.956 219.935 337.443  0.00  0.00    +0.000 C 
ATOM     18  O   UNL     1      65.856 220.011 336.917  0.00  0.00    +0.000 OA
ATOM     19  C   UNL     1      67.183 219.136 338.622  0.00  0.00    +0.000 C 
ATOM     20  C   UNL     1      68.321 218.885 339.419  0.00  0.00    +0.000 C 
ATOM     21  C   UNL     1      69.360 219.625 338.813  0.00  0.00    +0.000 C 
BRANCH  20  22
ATOM     22  O   UNL     1      68.220 218.714 340.768  0.00  0.00    +0.000 OA
ATOM     23  H   UNL     1      68.935 218.156 341.129  0.00  0.00    +0.000 HD
ENDBRANCH  20  22
ENDBRANCH  14  15
ENDBRANCH   2  13
BRANCH   3  24
ATOM     24  O   UNL     1      73.420 222.725 339.077  0.00  0.00    +0.000 OA
BRANCH  24  25
ATOM     25  C   UNL     1      72.350 222.647 339.950  0.00  0.00    +0.000 C 
ATOM     26  O   UNL     1      71.437 223.475 339.984  0.00  0.00    +0.000 OA
BRANCH  25  27
ATOM     27  C   UNL     1      72.477 221.392 340.882  0.00  0.00    +0.000 C 
ATOM     28  C   UNL     1      71.117 221.168 341.644  0.00  0.00    +0.000 C 
ATOM     29  C   UNL     1      73.628 221.593 341.948  0.00  0.00    +0.000 C 
BRANCH  27  30
ATOM     30  C   UNL     1      72.803 220.227 340.012  0.00  0.00    +0.000 C 
ATOM     31  C   UNL     1      73.126 219.034 339.065  0.00  0.00    +0.000 C 
ENDBRANCH  27  30
ENDBRANCH  25  27
ENDBRANCH  24  25
ENDBRANCH   3  24
TORSDOF 7
ENDMDL
MODEL 6
REMARK VINA RESULT:      -5.3     30.685     34.319
REMARK  Name = Simvastatin.pdbqt.pdb
REMARK  7 active torsions:
REMARK  status: ('A' for Active; 'I' for Inactive)
REMARK    1  A    between atoms: C_2  and  C_13
REMARK    2  A    between atoms: C_3  and  O_24
REMARK    3  A    between atoms: C_14  and  C_15
REMARK    4  A    between atoms: C_20  and  O_22
REMARK    5  A    between atoms: O_24  and  C_25
REMARK    6  A    between atoms: C_25  and  C_27
REMARK    7  A    between atoms: C_27  and  C_30
REMARK                            x       y       z     vdW  Elec       q    Type
REMARK                         _______ _______ _______ _____ _____    ______ ____
ROOT
ATOM      1  C   UNL     1      70.083 220.634 340.240  0.00  0.00    +0.000 A 
ATOM      2  C   UNL     1      69.940 221.224 338.854  0.00  0.00    +0.000 A 
ATOM      3  C   UNL     1      69.534 219.304 340.683  0.00  0.00    +0.000 A 
ATOM      4  C   UNL     1      70.768 222.395 338.459  0.00  0.00    +0.000 A 
ATOM      5  C   UNL     1      70.931 221.434 341.252  0.00  0.00    +0.000 A 
ATOM      6  C   UNL     1      69.932 218.985 342.027  0.00  0.00    +0.000 A 
ATOM      7  C   UNL     1      70.757 219.635 342.999  0.00  0.00    +0.000 A 
ATOM      8  C   UNL     1      71.167 220.862 342.395  0.00  0.00    +0.000 A 
ATOM      9  C   UNL     1      71.561 222.884 339.537  0.00  0.00    +0.000 A 
ATOM     10  C   UNL     1      71.642 222.509 340.674  0.00  0.00    +0.000 A 
ATOM     11  C   UNL     1      70.772 223.077 337.125  0.00  0.00    +0.000 C 
ATOM     12  C   UNL     1      71.722 218.834 343.812  0.00  0.00    +0.000 C 
ENDROOT
BRANCH   2  13
ATOM     13  C   UNL     1      68.865 220.792 338.023  0.00  0.00    +0.000 C 
ATOM     14  C   UNL     1      67.727 220.258 337.144  0.00  0.00    +0.000 C 
BRANCH  14  15
ATOM     15  C   UNL     1      66.683 219.708 336.363  0.00  0.00    +0.000 C 
ATOM     16  O   UNL     1      66.549 220.164 335.001  0.00  0.00    +0.000 OA
ATOM     17  C   UNL     1      65.505 219.698 334.196  0.00  0.00    +0.000 C 
ATOM     18  O   UNL     1      65.329 220.040 333.036  0.00  0.00    +0.000 OA
ATOM     19  C   UNL     1      64.625 218.767 334.857  0.00  0.00    +0.000 C 
ATOM     20  C   UNL     1      64.590 218.222 336.159  0.00  0.00    +0.000 C 
ATOM     21  C   UNL     1      65.701 218.790 336.821  0.00  0.00    +0.000 C 
BRANCH  20  22
ATOM     22  O   UNL     1      63.409 217.954 336.786  0.00  0.00    +0.000 OA
ATOM     23  H   UNL     1      63.323 217.014 337.035  0.00  0.00    +0.000 HD
ENDBRANCH  20  22
ENDBRANCH  14  15
ENDBRANCH   2  13
BRANCH   3  24
ATOM     24  O   UNL     1      69.587 218.291 339.720  0.00  0.00    +0.000 OA
BRANCH  24  25
ATOM     25  C   UNL     1      68.356 217.697 339.510  0.00  0.00    +0.000 C 
ATOM     26  O   UNL     1      67.301 218.130 339.979  0.00  0.00    +0.000 OA
BRANCH  25  27
ATOM     27  C   UNL     1      68.499 216.407 338.629  0.00  0.00    +0.000 C 
ATOM     28  C   UNL     1      69.424 215.369 339.369  0.00  0.00    +0.000 C 
ATOM     29  C   UNL     1      69.144 216.749 337.225  0.00  0.00    +0.000 C 
BRANCH  27  30
ATOM     30  C   UNL     1      67.130 215.857 338.425  0.00  0.00    +0.000 C 
ATOM     31  C   UNL     1      65.718 215.239 338.201  0.00  0.00    +0.000 C 
ENDBRANCH  27  30
ENDBRANCH  25  27
ENDBRANCH  24  25
ENDBRANCH   3  24
TORSDOF 7
ENDMDL
MODEL 7
REMARK VINA RESULT:      -5.2     30.944     34.622
REMARK  Name = Simvastatin.pdbqt.pdb
REMARK  7 active torsions:
REMARK  status: ('A' for Active; 'I' for Inactive)
REMARK    1  A    between atoms: C_2  and  C_13
REMARK    2  A    between atoms: C_3  and  O_24
REMARK    3  A    between atoms: C_14  and  C_15
REMARK    4  A    between atoms: C_20  and  O_22
REMARK    5  A    between atoms: O_24  and  C_25
REMARK    6  A    between atoms: C_25  and  C_27
REMARK    7  A    between atoms: C_27  and  C_30
REMARK                            x       y       z     vdW  Elec       q    Type
REMARK                         _______ _______ _______ _____ _____    ______ ____
ROOT
ATOM      1  C   UNL     1      70.095 220.650 340.322  0.00  0.00    +0.000 A 
ATOM      2  C   UNL     1      69.935 221.236 338.936  0.00  0.00    +0.000 A 
ATOM      3  C   UNL     1      69.547 219.323 340.776  0.00  0.00    +0.000 A 
ATOM      4  C   UNL     1      70.763 222.402 338.526  0.00  0.00    +0.000 A 
ATOM      5  C   UNL     1      70.961 221.449 341.319  0.00  0.00    +0.000 A 
ATOM      6  C   UNL     1      69.962 219.006 342.116  0.00  0.00    +0.000 A 
ATOM      7  C   UNL     1      70.803 219.656 343.074  0.00  0.00    +0.000 A 
ATOM      8  C   UNL     1      71.210 220.879 342.461  0.00  0.00    +0.000 A 
ATOM      9  C   UNL     1      71.573 222.891 339.592  0.00  0.00    +0.000 A 
ATOM     10  C   UNL     1      71.668 222.520 340.728  0.00  0.00    +0.000 A 
ATOM     11  C   UNL     1      70.751 223.080 337.190  0.00  0.00    +0.000 C 
ATOM     12  C   UNL     1      71.776 218.853 343.877  0.00  0.00    +0.000 C 
ENDROOT
BRANCH   2  13
ATOM     13  C   UNL     1      68.847 220.805 338.122  0.00  0.00    +0.000 C 
ATOM     14  C   UNL     1      67.705 220.275 337.246  0.00  0.00    +0.000 C 
BRANCH  14  15
ATOM     15  C   UNL     1      66.665 219.726 336.457  0.00  0.00    +0.000 C 
ATOM     16  O   UNL     1      66.540 220.185 335.095  0.00  0.00    +0.000 OA
ATOM     17  C   UNL     1      65.501 219.719 334.283  0.00  0.00    +0.000 C 
ATOM     18  O   UNL     1      65.333 220.063 333.123  0.00  0.00    +0.000 OA
ATOM     19  C   UNL     1      64.617 218.787 334.938  0.00  0.00    +0.000 C 
ATOM     20  C   UNL     1      64.575 218.240 336.238  0.00  0.00    +0.000 C 
ATOM     21  C   UNL     1      65.681 218.807 336.908  0.00  0.00    +0.000 C 
BRANCH  20  22
ATOM     22  O   UNL     1      63.390 217.970 336.858  0.00  0.00    +0.000 OA
ATOM     23  H   UNL     1      62.902 217.240 336.430  0.00  0.00    +0.000 HD
ENDBRANCH  20  22
ENDBRANCH  14  15
ENDBRANCH   2  13
BRANCH   3  24
ATOM     24  O   UNL     1      69.582 218.307 339.816  0.00  0.00    +0.000 OA
BRANCH  24  25
ATOM     25  C   UNL     1      70.538 217.348 340.096  0.00  0.00    +0.000 C 
ATOM     26  O   UNL     1      70.438 216.536 341.019  0.00  0.00    +0.000 OA
BRANCH  25  27
ATOM     27  C   UNL     1      71.748 217.457 339.106  0.00  0.00    +0.000 C 
ATOM     28  C   UNL     1      71.253 218.066 337.741  0.00  0.00    +0.000 C 
ATOM     29  C   UNL     1      72.381 216.034 338.825  0.00  0.00    +0.000 C 
BRANCH  27  30
ATOM     30  C   UNL     1      72.767 218.335 339.748  0.00  0.00    +0.000 C 
ATOM     31  C   UNL     1      73.795 219.282 340.433  0.00  0.00    +0.000 C 
ENDBRANCH  27  30
ENDBRANCH  25  27
ENDBRANCH  24  25
ENDBRANCH   3  24
TORSDOF 7
ENDMDL
MODEL 8
REMARK VINA RESULT:      -5.1     27.295     32.049
REMARK  Name = Simvastatin.pdbqt.pdb
REMARK  7 active torsions:
REMARK  status: ('A' for Active; 'I' for Inactive)
REMARK    1  A    between atoms: C_2  and  C_13
REMARK    2  A    between atoms: C_3  and  O_24
REMARK    3  A    between atoms: C_14  and  C_15
REMARK    4  A    between atoms: C_20  and  O_22
REMARK    5  A    between atoms: O_24  and  C_25
REMARK    6  A    between atoms: C_25  and  C_27
REMARK    7  A    between atoms: C_27  and  C_30
REMARK                            x       y       z     vdW  Elec       q    Type
REMARK                         _______ _______ _______ _____ _____    ______ ____
ROOT
ATOM      1  C   UNL     1      66.866 231.065 349.809  0.00  0.00    +0.000 A 
ATOM      2  C   UNL     1      65.836 231.199 348.707  0.00  0.00    +0.000 A 
ATOM      3  C   UNL     1      67.822 232.144 350.245  0.00  0.00    +0.000 A 
ATOM      4  C   UNL     1      64.764 230.177 348.569  0.00  0.00    +0.000 A 
ATOM      5  C   UNL     1      66.873 229.737 350.596  0.00  0.00    +0.000 A 
ATOM      6  C   UNL     1      68.597 231.739 351.386  0.00  0.00    +0.000 A 
ATOM      7  C   UNL     1      68.622 230.563 352.202  0.00  0.00    +0.000 A 
ATOM      8  C   UNL     1      67.662 229.676 351.627  0.00  0.00    +0.000 A 
ATOM      9  C   UNL     1      64.920 229.102 349.491  0.00  0.00    +0.000 A 
ATOM     10  C   UNL     1      65.766 228.906 350.318  0.00  0.00    +0.000 A 
ATOM     11  C   UNL     1      63.656 230.176 347.560  0.00  0.00    +0.000 C 
ATOM     12  C   UNL     1      68.738 230.691 353.687  0.00  0.00    +0.000 C 
ENDROOT
BRANCH   2  13
ATOM     13  C   UNL     1      66.034 232.176 347.688  0.00  0.00    +0.000 C 
ATOM     14  C   UNL     1      66.318 233.217 346.598  0.00  0.00    +0.000 C 
BRANCH  14  15
ATOM     15  C   UNL     1      66.640 234.153 345.586  0.00  0.00    +0.000 C 
ATOM     16  O   UNL     1      67.969 234.108 345.025  0.00  0.00    +0.000 OA
ATOM     17  C   UNL     1      68.362 235.041 344.060  0.00  0.00    +0.000 C 
ATOM     18  O   UNL     1      69.469 235.064 343.542  0.00  0.00    +0.000 OA
ATOM     19  C   UNL     1      67.342 236.000 343.720  0.00  0.00    +0.000 C 
ATOM     20  C   UNL     1      66.016 236.204 344.161  0.00  0.00    +0.000 C 
ATOM     21  C   UNL     1      65.789 235.187 345.114  0.00  0.00    +0.000 C 
BRANCH  20  22
ATOM     22  O   UNL     1      65.488 237.457 344.271  0.00  0.00    +0.000 OA
ATOM     23  H   UNL     1      65.233 237.676 345.187  0.00  0.00    +0.000 HD
ENDBRANCH  20  22
ENDBRANCH  14  15
ENDBRANCH   2  13
BRANCH   3  24
ATOM     24  O   UNL     1      67.299 233.441 350.228  0.00  0.00    +0.000 OA
BRANCH  24  25
ATOM     25  C   UNL     1      68.079 234.315 349.493  0.00  0.00    +0.000 C 
ATOM     26  O   UNL     1      69.144 233.996 348.961  0.00  0.00    +0.000 OA
BRANCH  25  27
ATOM     27  C   UNL     1      67.435 235.745 349.457  0.00  0.00    +0.000 C 
ATOM     28  C   UNL     1      67.802 236.517 350.779  0.00  0.00    +0.000 C 
ATOM     29  C   UNL     1      65.859 235.655 349.345  0.00  0.00    +0.000 C 
BRANCH  27  30
ATOM     30  C   UNL     1      67.978 236.444 348.258  0.00  0.00    +0.000 C 
ATOM     31  C   UNL     1      68.590 237.178 347.029  0.00  0.00    +0.000 C 
ENDBRANCH  27  30
ENDBRANCH  25  27
ENDBRANCH  24  25
ENDBRANCH   3  24
TORSDOF 7
ENDMDL
MODEL 9
REMARK VINA RESULT:      -5.1     15.513     17.492
REMARK  Name = Simvastatin.pdbqt.pdb
REMARK  7 active torsions:
REMARK  status: ('A' for Active; 'I' for Inactive)
REMARK    1  A    between atoms: C_2  and  C_13
REMARK    2  A    between atoms: C_3  and  O_24
REMARK    3  A    between atoms: C_14  and  C_15
REMARK    4  A    between atoms: C_20  and  O_22
REMARK    5  A    between atoms: O_24  and  C_25
REMARK    6  A    between atoms: C_25  and  C_27
REMARK    7  A    between atoms: C_27  and  C_30
REMARK                            x       y       z     vdW  Elec       q    Type
REMARK                         _______ _______ _______ _____ _____    ______ ____
ROOT
ATOM      1  C   UNL     1      67.109 243.338 328.633  0.00  0.00    +0.000 A 
ATOM      2  C   UNL     1      68.099 242.789 327.629  0.00  0.00    +0.000 A 
ATOM      3  C   UNL     1      67.127 243.067 330.114  0.00  0.00    +0.000 A 
ATOM      4  C   UNL     1      68.154 243.358 326.256  0.00  0.00    +0.000 A 
ATOM      5  C   UNL     1      66.046 244.320 328.095  0.00  0.00    +0.000 A 
ATOM      6  C   UNL     1      66.117 243.822 330.805  0.00  0.00    +0.000 A 
ATOM      7  C   UNL     1      65.144 244.787 330.394  0.00  0.00    +0.000 A 
ATOM      8  C   UNL     1      65.286 244.896 328.978  0.00  0.00    +0.000 A 
ATOM      9  C   UNL     1      67.142 244.337 326.037  0.00  0.00    +0.000 A 
ATOM     10  C   UNL     1      66.281 244.741 326.767  0.00  0.00    +0.000 A 
ATOM     11  C   UNL     1      69.089 242.953 325.157  0.00  0.00    +0.000 C 
ATOM     12  C   UNL     1      64.908 246.007 331.226  0.00  0.00    +0.000 C 
ENDROOT
BRANCH   2  13
ATOM     13  C   UNL     1      68.812 241.594 327.940  0.00  0.00    +0.000 C 
ATOM     14  C   UNL     1      69.623 240.348 328.318  0.00  0.00    +0.000 C 
BRANCH  14  15
ATOM     15  C   UNL     1      70.394 239.230 328.718  0.00  0.00    +0.000 C 
ATOM     16  O   UNL     1      70.519 238.132 327.791  0.00  0.00    +0.000 OA
ATOM     17  C   UNL     1      71.223 236.979 328.149  0.00  0.00    +0.000 C 
ATOM     18  O   UNL     1      71.371 236.012 327.417  0.00  0.00    +0.000 OA
ATOM     19  C   UNL     1      71.769 237.014 329.484  0.00  0.00    +0.000 C 
ATOM     20  C   UNL     1      71.740 237.974 330.518  0.00  0.00    +0.000 C 
ATOM     21  C   UNL     1      71.004 239.058 329.989  0.00  0.00    +0.000 C 
BRANCH  20  22
ATOM     22  O   UNL     1      71.679 237.605 331.829  0.00  0.00    +0.000 OA
ATOM     23  H   UNL     1      70.920 237.021 332.019  0.00  0.00    +0.000 HD
ENDBRANCH  20  22
ENDBRANCH  14  15
ENDBRANCH   2  13
BRANCH   3  24
ATOM     24  O   UNL     1      68.400 242.988 330.686  0.00  0.00    +0.000 OA
BRANCH  24  25
ATOM     25  C   UNL     1      68.544 241.882 331.504  0.00  0.00    +0.000 C 
ATOM     26  O   UNL     1      67.832 240.879 331.424  0.00  0.00    +0.000 OA
BRANCH  25  27
ATOM     27  C   UNL     1      69.704 242.096 332.538  0.00  0.00    +0.000 C 
ATOM     28  C   UNL     1      69.382 243.353 333.431  0.00  0.00    +0.000 C 
ATOM     29  C   UNL     1      71.083 242.339 331.801  0.00  0.00    +0.000 C 
BRANCH  27  30
ATOM     30  C   UNL     1      69.794 240.859 333.363  0.00  0.00    +0.000 C 
ATOM     31  C   UNL     1      69.877 239.540 334.186  0.00  0.00    +0.000 C 
ENDBRANCH  27  30
ENDBRANCH  25  27
ENDBRANCH  24  25
ENDBRANCH   3  24
TORSDOF 7
ENDMDL
