MODEL 1
REMARK VINA RESULT:      -7.2      0.000      0.000
REMARK  Name = Staurosporine.pdbqt.pdb
REMARK  2 active torsions:
REMARK  status: ('A' for Active; 'I' for Inactive)
REMARK    1  A    between atoms: C_3  and  O_11
REMARK    2  A    between atoms: C_5  and  N_8
REMARK                            x       y       z     vdW  Elec       q    Type
REMARK                         _______ _______ _______ _____ _____    ______ ____
ROOT
ATOM      1  O   UNL     1      52.905 249.418 327.283  0.00  0.00    +0.000 OA
ATOM      2  C   UNL     1      54.191 249.417 326.605  0.00  0.00    +0.000 C 
ATOM      3  C   UNL     1      55.417 249.509 327.536  0.00  0.00    +0.000 C 
ATOM      4  C   UNL     1      52.836 248.510 328.327  0.00  0.00    +0.000 C 
ATOM      5  C   UNL     1      55.271 249.087 328.927  0.00  0.00    +0.000 C 
ATOM      6  C   UNL     1      53.954 248.659 329.174  0.00  0.00    +0.000 C 
ATOM      7  C   UNL     1      54.155 250.741 325.769  0.00  0.00    +0.000 C 
ATOM      8  N   UNL     1      54.230 248.221 325.733  0.00  0.00    +0.000 N 
ATOM      9  C   UNL     1      53.563 247.023 325.801  0.00  0.00    +0.000 A 
ATOM     10  C   UNL     1      52.729 246.563 326.826  0.00  0.00    +0.000 A 
ATOM     11  C   UNL     1      53.759 246.082 324.782  0.00  0.00    +0.000 A 
ATOM     12  N   UNL     1      52.464 247.227 327.985  0.00  0.00    +0.000 N 
ATOM     13  C   UNL     1      52.272 245.246 326.675  0.00  0.00    +0.000 A 
ATOM     14  C   UNL     1      51.828 246.206 328.719  0.00  0.00    +0.000 A 
ATOM     15  C   UNL     1      51.666 245.010 327.929  0.00  0.00    +0.000 A 
ATOM     16  C   UNL     1      51.349 246.265 330.038  0.00  0.00    +0.000 A 
ATOM     17  C   UNL     1      51.028 243.905 328.527  0.00  0.00    +0.000 A 
ATOM     18  C   UNL     1      50.559 243.982 329.837  0.00  0.00    +0.000 A 
ATOM     19  C   UNL     1      50.720 245.143 330.578  0.00  0.00    +0.000 A 
ATOM     20  C   UNL     1      52.454 244.297 325.650  0.00  0.00    +0.000 A 
ATOM     21  C   UNL     1      53.278 244.779 324.596  0.00  0.00    +0.000 A 
ATOM     22  C   UNL     1      52.056 242.931 325.398  0.00  0.00    +0.000 C 
ATOM     23  C   UNL     1      53.415 243.667 323.617  0.00  0.00    +0.000 C 
ATOM     24  N   UNL     1      52.685 242.675 324.171  0.00  0.00    +0.000 N 
ATOM     25  H   UNL     1      52.579 241.772 323.731  0.00  0.00    +0.000 HD
ATOM     26  O   UNL     1      51.368 242.122 326.002  0.00  0.00    +0.000 OA
ATOM     27  C   UNL     1      54.691 246.726 323.953  0.00  0.00    +0.000 A 
ATOM     28  C   UNL     1      54.982 248.010 324.545  0.00  0.00    +0.000 A 
ATOM     29  C   UNL     1      55.357 246.368 322.763  0.00  0.00    +0.000 A 
ATOM     30  C   UNL     1      55.909 248.867 323.926  0.00  0.00    +0.000 A 
ATOM     31  C   UNL     1      56.540 248.469 322.747  0.00  0.00    +0.000 A 
ATOM     32  C   UNL     1      56.269 247.239 322.171  0.00  0.00    +0.000 A 
ENDROOT
BRANCH   5  33
ATOM     33  N   UNL     1      56.358 248.924 329.829  0.00  0.00    +0.000 N 
ATOM     34  C   UNL     1      56.639 250.071 330.665  0.00  0.00    +0.000 C 
ATOM     35  H   UNL     1      57.175 248.448 329.439  0.00  0.00    +0.000 HD
ENDBRANCH   5  33
BRANCH   3  36
ATOM     36  O   UNL     1      56.646 249.456 326.914  0.00  0.00    +0.000 OA
ATOM     37  C   UNL     1      57.344 250.667 327.034  0.00  0.00    +0.000 C 
ENDBRANCH   3  36
TORSDOF 2
ENDMDL
MODEL 2
REMARK VINA RESULT:      -6.9     32.139     34.407
REMARK  Name = Staurosporine.pdbqt.pdb
REMARK  2 active torsions:
REMARK  status: ('A' for Active; 'I' for Inactive)
REMARK    1  A    between atoms: C_3  and  O_11
REMARK    2  A    between atoms: C_5  and  N_8
REMARK                            x       y       z     vdW  Elec       q    Type
REMARK                         _______ _______ _______ _____ _____    ______ ____
ROOT
ATOM      1  O   UNL     1      69.102 216.275 338.808  0.00  0.00    +0.000 OA
ATOM      2  C   UNL     1      67.981 216.612 337.945  0.00  0.00    +0.000 C 
ATOM      3  C   UNL     1      66.589 216.396 338.573  0.00  0.00    +0.000 C 
ATOM      4  C   UNL     1      69.007 216.833 340.072  0.00  0.00    +0.000 C 
ATOM      5  C   UNL     1      66.473 216.384 340.029  0.00  0.00    +0.000 C 
ATOM      6  C   UNL     1      67.734 216.575 340.623  0.00  0.00    +0.000 C 
ATOM      7  C   UNL     1      68.114 215.586 336.769  0.00  0.00    +0.000 C 
ATOM      8  N   UNL     1      68.183 218.004 337.483  0.00  0.00    +0.000 N 
ATOM      9  C   UNL     1      68.886 219.050 338.025  0.00  0.00    +0.000 A 
ATOM     10  C   UNL     1      69.519 219.103 339.271  0.00  0.00    +0.000 A 
ATOM     11  C   UNL     1      68.951 220.259 337.319  0.00  0.00    +0.000 A 
ATOM     12  N   UNL     1      69.509 218.111 340.204  0.00  0.00    +0.000 N 
ATOM     13  C   UNL     1      70.068 220.349 339.608  0.00  0.00    +0.000 A 
ATOM     14  C   UNL     1      70.036 218.803 341.313  0.00  0.00    +0.000 A 
ATOM     15  C   UNL     1      70.419 220.149 340.961  0.00  0.00    +0.000 A 
ATOM     16  C   UNL     1      70.235 218.318 342.616  0.00  0.00    +0.000 A 
ATOM     17  C   UNL     1      70.981 220.960 341.967  0.00  0.00    +0.000 A 
ATOM     18  C   UNL     1      71.170 220.461 343.254  0.00  0.00    +0.000 A 
ATOM     19  C   UNL     1      70.801 219.162 343.571  0.00  0.00    +0.000 A 
ATOM     20  C   UNL     1      70.148 221.565 338.902  0.00  0.00    +0.000 A 
ATOM     21  C   UNL     1      69.529 221.499 337.622  0.00  0.00    +0.000 A 
ATOM     22  C   UNL     1      70.661 222.893 339.147  0.00  0.00    +0.000 C 
ATOM     23  C   UNL     1      69.653 222.852 337.016  0.00  0.00    +0.000 C 
ATOM     24  N   UNL     1      70.308 223.557 337.964  0.00  0.00    +0.000 N 
ATOM     25  H   UNL     1      70.549 224.530 337.841  0.00  0.00    +0.000 HD
ATOM     26  O   UNL     1      71.255 223.415 340.079  0.00  0.00    +0.000 OA
ATOM     27  C   UNL     1      68.173 219.985 336.183  0.00  0.00    +0.000 A 
ATOM     28  C   UNL     1      67.699 218.626 336.299  0.00  0.00    +0.000 A 
ATOM     29  C   UNL     1      67.782 220.740 335.058  0.00  0.00    +0.000 A 
ATOM     30  C   UNL     1      66.872 218.090 335.297  0.00  0.00    +0.000 A 
ATOM     31  C   UNL     1      66.515 218.876 334.200  0.00  0.00    +0.000 A 
ATOM     32  C   UNL     1      66.963 220.180 334.080  0.00  0.00    +0.000 A 
ENDROOT
BRANCH   5  33
ATOM     33  N   UNL     1      65.236 216.403 340.730  0.00  0.00    +0.000 N 
ATOM     34  C   UNL     1      65.315 216.019 342.122  0.00  0.00    +0.000 C 
ATOM     35  H   UNL     1      64.439 216.029 340.210  0.00  0.00    +0.000 HD
ENDBRANCH   5  33
BRANCH   3  36
ATOM     36  O   UNL     1      65.516 216.759 337.788  0.00  0.00    +0.000 OA
ATOM     37  C   UNL     1      64.704 215.660 337.471  0.00  0.00    +0.000 C 
ENDBRANCH   3  36
TORSDOF 2
ENDMDL
MODEL 3
REMARK VINA RESULT:      -6.8     33.699     35.463
REMARK  Name = Staurosporine.pdbqt.pdb
REMARK  2 active torsions:
REMARK  status: ('A' for Active; 'I' for Inactive)
REMARK    1  A    between atoms: C_3  and  O_11
REMARK    2  A    between atoms: C_5  and  N_8
REMARK                            x       y       z     vdW  Elec       q    Type
REMARK                         _______ _______ _______ _____ _____    ______ ____
ROOT
ATOM      1  O   UNL     1      70.284 219.882 343.336  0.00  0.00    +0.000 OA
ATOM      2  C   UNL     1      71.718 219.748 343.537  0.00  0.00    +0.000 C 
ATOM      3  C   UNL     1      72.262 218.312 343.397  0.00  0.00    +0.000 C 
ATOM      4  C   UNL     1      69.832 219.262 342.183  0.00  0.00    +0.000 C 
ATOM      5  C   UNL     1      71.493 217.345 342.619  0.00  0.00    +0.000 C 
ATOM      6  C   UNL     1      70.320 217.940 342.119  0.00  0.00    +0.000 C 
ATOM      7  C   UNL     1      71.910 220.164 345.034  0.00  0.00    +0.000 C 
ATOM      8  N   UNL     1      72.383 220.697 342.615  0.00  0.00    +0.000 N 
ATOM      9  C   UNL     1      71.971 221.257 341.432  0.00  0.00    +0.000 A 
ATOM     10  C   UNL     1      70.814 220.965 340.703  0.00  0.00    +0.000 A 
ATOM     11  C   UNL     1      72.805 222.188 340.798  0.00  0.00    +0.000 A 
ATOM     12  N   UNL     1      69.892 220.018 341.031  0.00  0.00    +0.000 N 
ATOM     13  C   UNL     1      70.709 221.618 339.466  0.00  0.00    +0.000 A 
ATOM     14  C   UNL     1      69.138 219.978 339.841  0.00  0.00    +0.000 A 
ATOM     15  C   UNL     1      69.592 220.969 338.895  0.00  0.00    +0.000 A 
ATOM     16  C   UNL     1      68.048 219.145 339.540  0.00  0.00    +0.000 A 
ATOM     17  C   UNL     1      68.918 221.061 337.661  0.00  0.00    +0.000 A 
ATOM     18  C   UNL     1      67.840 220.224 337.380  0.00  0.00    +0.000 A 
ATOM     19  C   UNL     1      67.415 219.282 338.305  0.00  0.00    +0.000 A 
ATOM     20  C   UNL     1      71.535 222.563 338.826  0.00  0.00    +0.000 A 
ATOM     21  C   UNL     1      72.697 222.879 339.584  0.00  0.00    +0.000 A 
ATOM     22  C   UNL     1      71.540 223.277 337.570  0.00  0.00    +0.000 C 
ATOM     23  C   UNL     1      73.486 223.845 338.774  0.00  0.00    +0.000 C 
ATOM     24  N   UNL     1      72.740 223.997 337.658  0.00  0.00    +0.000 N 
ATOM     25  H   UNL     1      73.016 224.609 336.904  0.00  0.00    +0.000 HD
ATOM     26  O   UNL     1      70.776 223.326 336.618  0.00  0.00    +0.000 OA
ATOM     27  C   UNL     1      73.917 222.227 341.655  0.00  0.00    +0.000 A 
ATOM     28  C   UNL     1      73.660 221.311 342.740  0.00  0.00    +0.000 A 
ATOM     29  C   UNL     1      75.144 222.921 341.636  0.00  0.00    +0.000 A 
ATOM     30  C   UNL     1      74.627 221.136 343.745  0.00  0.00    +0.000 A 
ATOM     31  C   UNL     1      75.825 221.847 343.685  0.00  0.00    +0.000 A 
ATOM     32  C   UNL     1      76.082 222.728 342.648  0.00  0.00    +0.000 A 
ENDROOT
BRANCH   5  33
ATOM     33  N   UNL     1      71.974 216.062 342.241  0.00  0.00    +0.000 N 
ATOM     34  C   UNL     1      72.572 215.995 340.925  0.00  0.00    +0.000 C 
ATOM     35  H   UNL     1      71.365 215.281 342.493  0.00  0.00    +0.000 HD
ENDBRANCH   5  33
BRANCH   3  36
ATOM     36  O   UNL     1      73.627 218.174 343.532  0.00  0.00    +0.000 OA
ATOM     37  C   UNL     1      73.966 217.405 344.655  0.00  0.00    +0.000 C 
ENDBRANCH   3  36
TORSDOF 2
ENDMDL
MODEL 4
REMARK VINA RESULT:      -6.5     33.006     35.320
REMARK  Name = Staurosporine.pdbqt.pdb
REMARK  2 active torsions:
REMARK  status: ('A' for Active; 'I' for Inactive)
REMARK    1  A    between atoms: C_3  and  O_11
REMARK    2  A    between atoms: C_5  and  N_8
REMARK                            x       y       z     vdW  Elec       q    Type
REMARK                         _______ _______ _______ _____ _____    ______ ____
ROOT
ATOM      1  O   UNL     1      67.476 217.061 340.200  0.00  0.00    +0.000 OA
ATOM      2  C   UNL     1      68.655 216.897 341.034  0.00  0.00    +0.000 C 
ATOM      3  C   UNL     1      69.590 215.744 340.619  0.00  0.00    +0.000 C 
ATOM      4  C   UNL     1      67.762 217.083 338.845  0.00  0.00    +0.000 C 
ATOM      5  C   UNL     1      69.541 215.266 339.239  0.00  0.00    +0.000 C 
ATOM      6  C   UNL     1      68.583 215.988 338.504  0.00  0.00    +0.000 C 
ATOM      7  C   UNL     1      68.056 216.517 342.430  0.00  0.00    +0.000 C 
ATOM      8  N   UNL     1      69.352 218.203 341.075  0.00  0.00    +0.000 N 
ATOM      9  C   UNL     1      69.350 219.263 340.203  0.00  0.00    +0.000 A 
ATOM     10  C   UNL     1      68.756 219.333 338.939  0.00  0.00    +0.000 A 
ATOM     11  C   UNL     1      70.072 220.416 340.539  0.00  0.00    +0.000 A 
ATOM     12  N   UNL     1      68.095 218.315 338.321  0.00  0.00    +0.000 N 
ATOM     13  C   UNL     1      69.013 220.511 338.224  0.00  0.00    +0.000 A 
ATOM     14  C   UNL     1      67.973 218.847 337.022  0.00  0.00    +0.000 A 
ATOM     15  C   UNL     1      68.488 220.193 336.952  0.00  0.00    +0.000 A 
ATOM     16  C   UNL     1      67.407 218.236 335.890  0.00  0.00    +0.000 A 
ATOM     17  C   UNL     1      68.417 220.864 335.715  0.00  0.00    +0.000 A 
ATOM     18  C   UNL     1      67.852 220.241 334.604  0.00  0.00    +0.000 A 
ATOM     19  C   UNL     1      67.358 218.948 334.693  0.00  0.00    +0.000 A 
ATOM     20  C   UNL     1      69.728 221.678 338.557  0.00  0.00    +0.000 A 
ATOM     21  C   UNL     1      70.307 221.616 339.855  0.00  0.00    +0.000 A 
ATOM     22  C   UNL     1      70.071 222.924 337.910  0.00  0.00    +0.000 C 
ATOM     23  C   UNL     1      71.057 222.886 340.051  0.00  0.00    +0.000 C 
ATOM     24  N   UNL     1      70.855 223.547 338.890  0.00  0.00    +0.000 N 
ATOM     25  H   UNL     1      71.243 224.463 338.717  0.00  0.00    +0.000 HD
ATOM     26  O   UNL     1      69.813 223.413 336.820  0.00  0.00    +0.000 OA
ATOM     27  C   UNL     1      70.644 220.063 341.773  0.00  0.00    +0.000 A 
ATOM     28  C   UNL     1      70.217 218.719 342.079  0.00  0.00    +0.000 A 
ATOM     29  C   UNL     1      71.506 220.718 342.676  0.00  0.00    +0.000 A 
ATOM     30  C   UNL     1      70.661 218.101 343.261  0.00  0.00    +0.000 A 
ATOM     31  C   UNL     1      71.512 218.790 344.125  0.00  0.00    +0.000 A 
ATOM     32  C   UNL     1      71.928 220.080 343.841  0.00  0.00    +0.000 A 
ENDROOT
BRANCH   5  33
ATOM     33  N   UNL     1      70.482 214.362 338.675  0.00  0.00    +0.000 N 
ATOM     34  C   UNL     1      71.578 214.982 337.963  0.00  0.00    +0.000 C 
ATOM     35  H   UNL     1      70.073 213.536 338.230  0.00  0.00    +0.000 HD
ENDBRANCH   5  33
BRANCH   3  36
ATOM     36  O   UNL     1      70.740 215.606 341.367  0.00  0.00    +0.000 OA
ATOM     37  C   UNL     1      70.766 214.391 342.067  0.00  0.00    +0.000 C 
ENDBRANCH   3  36
TORSDOF 2
ENDMDL
MODEL 5
REMARK VINA RESULT:      -6.5      2.551      6.366
REMARK  Name = Staurosporine.pdbqt.pdb
REMARK  2 active torsions:
REMARK  status: ('A' for Active; 'I' for Inactive)
REMARK    1  A    between atoms: C_3  and  O_11
REMARK    2  A    between atoms: C_5  and  N_8
REMARK                            x       y       z     vdW  Elec       q    Type
REMARK                         _______ _______ _______ _____ _____    ______ ____
ROOT
ATOM      1  O   UNL     1      52.640 245.800 328.060  0.00  0.00    +0.000 OA
ATOM      2  C   UNL     1      51.296 245.265 327.910  0.00  0.00    +0.000 C 
ATOM      3  C   UNL     1      50.181 246.326 327.825  0.00  0.00    +0.000 C 
ATOM      4  C   UNL     1      52.938 246.799 327.148  0.00  0.00    +0.000 C 
ATOM      5  C   UNL     1      50.532 247.678 327.397  0.00  0.00    +0.000 C 
ATOM      6  C   UNL     1      51.911 247.767 327.135  0.00  0.00    +0.000 C 
ATOM      7  C   UNL     1      51.074 244.476 329.244  0.00  0.00    +0.000 C 
ATOM      8  N   UNL     1      51.309 244.363 326.736  0.00  0.00    +0.000 N 
ATOM      9  C   UNL     1      52.123 244.317 325.632  0.00  0.00    +0.000 A 
ATOM     10  C   UNL     1      53.117 245.229 325.261  0.00  0.00    +0.000 A 
ATOM     11  C   UNL     1      51.934 243.294 324.694  0.00  0.00    +0.000 A 
ATOM     12  N   UNL     1      53.426 246.374 325.930  0.00  0.00    +0.000 N 
ATOM     13  C   UNL     1      53.715 244.984 324.017  0.00  0.00    +0.000 A 
ATOM     14  C   UNL     1      54.262 247.001 324.984  0.00  0.00    +0.000 A 
ATOM     15  C   UNL     1      54.482 246.156 323.834  0.00  0.00    +0.000 A 
ATOM     16  C   UNL     1      54.875 248.261 325.076  0.00  0.00    +0.000 A 
ATOM     17  C   UNL     1      55.315 246.643 322.807  0.00  0.00    +0.000 A 
ATOM     18  C   UNL     1      55.914 247.897 322.917  0.00  0.00    +0.000 A 
ATOM     19  C   UNL     1      55.694 248.691 324.033  0.00  0.00    +0.000 A 
ATOM     20  C   UNL     1      53.539 243.954 323.073  0.00  0.00    +0.000 A 
ATOM     21  C   UNL     1      52.549 243.012 323.467  0.00  0.00    +0.000 A 
ATOM     22  C   UNL     1      54.073 243.613 321.774  0.00  0.00    +0.000 C 
ATOM     23  C   UNL     1      52.443 242.016 322.367  0.00  0.00    +0.000 C 
ATOM     24  N   UNL     1      53.348 242.454 321.465  0.00  0.00    +0.000 N 
ATOM     25  H   UNL     1      53.515 241.973 320.592  0.00  0.00    +0.000 HD
ATOM     26  O   UNL     1      54.919 244.111 321.047  0.00  0.00    +0.000 OA
ATOM     27  C   UNL     1      50.842 242.593 325.231  0.00  0.00    +0.000 A 
ATOM     28  C   UNL     1      50.461 243.257 326.455  0.00  0.00    +0.000 A 
ATOM     29  C   UNL     1      50.097 241.470 324.815  0.00  0.00    +0.000 A 
ATOM     30  C   UNL     1      49.372 242.771 327.199  0.00  0.00    +0.000 A 
ATOM     31  C   UNL     1      48.667 241.655 326.748  0.00  0.00    +0.000 A 
ATOM     32  C   UNL     1      49.023 241.011 325.575  0.00  0.00    +0.000 A 
ENDROOT
BRANCH   5  33
ATOM     33  N   UNL     1      49.581 248.686 327.079  0.00  0.00    +0.000 N 
ATOM     34  C   UNL     1      49.289 248.831 325.670  0.00  0.00    +0.000 C 
ATOM     35  H   UNL     1      49.684 249.558 327.604  0.00  0.00    +0.000 HD
ENDBRANCH   5  33
BRANCH   3  36
ATOM     36  O   UNL     1      48.906 245.839 327.629  0.00  0.00    +0.000 OA
ATOM     37  C   UNL     1      48.080 246.075 328.739  0.00  0.00    +0.000 C 
ENDBRANCH   3  36
TORSDOF 2
ENDMDL
MODEL 6
REMARK VINA RESULT:      -6.4     32.890     34.642
REMARK  Name = Staurosporine.pdbqt.pdb
REMARK  2 active torsions:
REMARK  status: ('A' for Active; 'I' for Inactive)
REMARK    1  A    between atoms: C_3  and  O_11
REMARK    2  A    between atoms: C_5  and  N_8
REMARK                            x       y       z     vdW  Elec       q    Type
REMARK                         _______ _______ _______ _____ _____    ______ ____
ROOT
ATOM      1  O   UNL     1      70.971 223.475 339.665  0.00  0.00    +0.000 OA
ATOM      2  C   UNL     1      70.334 222.708 338.607  0.00  0.00    +0.000 C 
ATOM      3  C   UNL     1      71.205 222.480 337.354  0.00  0.00    +0.000 C 
ATOM      4  C   UNL     1      72.239 223.018 339.986  0.00  0.00    +0.000 C 
ATOM      5  C   UNL     1      72.657 222.564 337.487  0.00  0.00    +0.000 C 
ATOM      6  C   UNL     1      73.011 222.865 338.816  0.00  0.00    +0.000 C 
ATOM      7  C   UNL     1      69.140 223.623 338.171  0.00  0.00    +0.000 C 
ATOM      8  N   UNL     1      69.862 221.439 339.205  0.00  0.00    +0.000 N 
ATOM      9  C   UNL     1      70.280 220.743 340.312  0.00  0.00    +0.000 A 
ATOM     10  C   UNL     1      71.388 221.007 341.122  0.00  0.00    +0.000 A 
ATOM     11  C   UNL     1      69.591 219.579 340.679  0.00  0.00    +0.000 A 
ATOM     12  N   UNL     1      72.293 222.005 340.920  0.00  0.00    +0.000 N 
ATOM     13  C   UNL     1      71.635 220.056 342.123  0.00  0.00    +0.000 A 
ATOM     14  C   UNL     1      73.295 221.625 341.836  0.00  0.00    +0.000 A 
ATOM     15  C   UNL     1      72.898 220.469 342.603  0.00  0.00    +0.000 A 
ATOM     16  C   UNL     1      74.532 222.248 342.067  0.00  0.00    +0.000 A 
ATOM     17  C   UNL     1      73.794 219.981 343.575  0.00  0.00    +0.000 A 
ATOM     18  C   UNL     1      75.017 220.613 343.789  0.00  0.00    +0.000 A 
ATOM     19  C   UNL     1      75.378 221.727 343.045  0.00  0.00    +0.000 A 
ATOM     20  C   UNL     1      70.943 218.890 342.506  0.00  0.00    +0.000 A 
ATOM     21  C   UNL     1      69.799 218.641 341.698  0.00  0.00    +0.000 A 
ATOM     22  C   UNL     1      71.108 217.843 343.488  0.00  0.00    +0.000 C 
ATOM     23  C   UNL     1      69.199 217.370 342.187  0.00  0.00    +0.000 C 
ATOM     24  N   UNL     1      70.019 217.009 343.197  0.00  0.00    +0.000 N 
ATOM     25  H   UNL     1      69.868 216.171 343.741  0.00  0.00    +0.000 HD
ATOM     26  O   UNL     1      71.921 217.631 344.374  0.00  0.00    +0.000 OA
ATOM     27  C   UNL     1      68.614 219.480 339.675  0.00  0.00    +0.000 A 
ATOM     28  C   UNL     1      68.797 220.598 338.780  0.00  0.00    +0.000 A 
ATOM     29  C   UNL     1      67.591 218.551 339.392  0.00  0.00    +0.000 A 
ATOM     30  C   UNL     1      67.957 220.737 337.662  0.00  0.00    +0.000 A 
ATOM     31  C   UNL     1      66.956 219.794 337.425  0.00  0.00    +0.000 A 
ATOM     32  C   UNL     1      66.772 218.718 338.276  0.00  0.00    +0.000 A 
ENDROOT
BRANCH   5  33
ATOM     33  N   UNL     1      73.575 222.176 336.473  0.00  0.00    +0.000 N 
ATOM     34  C   UNL     1      74.862 221.721 336.951  0.00  0.00    +0.000 C 
ATOM     35  H   UNL     1      73.595 222.787 335.654  0.00  0.00    +0.000 HD
ENDBRANCH   5  33
BRANCH   3  36
ATOM     36  O   UNL     1      70.636 221.710 336.363  0.00  0.00    +0.000 OA
ATOM     37  C   UNL     1      71.279 220.470 336.231  0.00  0.00    +0.000 C 
ENDBRANCH   3  36
TORSDOF 2
ENDMDL
MODEL 7
REMARK VINA RESULT:      -6.4     29.784     32.945
REMARK  Name = Staurosporine.pdbqt.pdb
REMARK  2 active torsions:
REMARK  status: ('A' for Active; 'I' for Inactive)
REMARK    1  A    between atoms: C_3  and  O_11
REMARK    2  A    between atoms: C_5  and  N_8
REMARK                            x       y       z     vdW  Elec       q    Type
REMARK                         _______ _______ _______ _____ _____    ______ ____
ROOT
ATOM      1  O   UNL     1      57.742 218.946 338.670  0.00  0.00    +0.000 OA
ATOM      2  C   UNL     1      57.944 218.702 337.251  0.00  0.00    +0.000 C 
ATOM      3  C   UNL     1      59.392 218.350 336.852  0.00  0.00    +0.000 C 
ATOM      4  C   UNL     1      58.281 217.959 339.479  0.00  0.00    +0.000 C 
ATOM      5  C   UNL     1      60.285 217.803 337.870  0.00  0.00    +0.000 C 
ATOM      6  C   UNL     1      59.617 217.701 339.105  0.00  0.00    +0.000 C 
ATOM      7  C   UNL     1      57.616 220.087 336.599  0.00  0.00    +0.000 C 
ATOM      8  N   UNL     1      56.975 217.660 336.841  0.00  0.00    +0.000 N 
ATOM      9  C   UNL     1      56.337 216.678 337.556  0.00  0.00    +0.000 A 
ATOM     10  C   UNL     1      56.543 216.320 338.892  0.00  0.00    +0.000 A 
ATOM     11  C   UNL     1      55.409 215.859 336.900  0.00  0.00    +0.000 A 
ATOM     12  N   UNL     1      57.469 216.872 339.724  0.00  0.00    +0.000 N 
ATOM     13  C   UNL     1      55.822 215.197 339.325  0.00  0.00    +0.000 A 
ATOM     14  C   UNL     1      57.415 215.964 340.800  0.00  0.00    +0.000 A 
ATOM     15  C   UNL     1      56.395 214.964 340.595  0.00  0.00    +0.000 A 
ATOM     16  C   UNL     1      58.187 215.972 341.973  0.00  0.00    +0.000 A 
ATOM     17  C   UNL     1      56.211 213.994 341.600  0.00  0.00    +0.000 A 
ATOM     18  C   UNL     1      56.987 214.018 342.758  0.00  0.00    +0.000 A 
ATOM     19  C   UNL     1      57.959 214.990 342.937  0.00  0.00    +0.000 A 
ATOM     20  C   UNL     1      54.879 214.375 338.678  0.00  0.00    +0.000 A 
ATOM     21  C   UNL     1      54.651 214.760 337.327  0.00  0.00    +0.000 A 
ATOM     22  C   UNL     1      54.100 213.204 339.008  0.00  0.00    +0.000 C 
ATOM     23  C   UNL     1      53.675 213.789 336.764  0.00  0.00    +0.000 C 
ATOM     24  N   UNL     1      53.434 212.956 337.800  0.00  0.00    +0.000 N 
ATOM     25  H   UNL     1      52.796 212.177 337.728  0.00  0.00    +0.000 HD
ATOM     26  O   UNL     1      53.970 212.528 340.018  0.00  0.00    +0.000 OA
ATOM     27  C   UNL     1      55.460 216.343 335.583  0.00  0.00    +0.000 A 
ATOM     28  C   UNL     1      56.421 217.419 335.554  0.00  0.00    +0.000 A 
ATOM     29  C   UNL     1      54.816 215.983 334.381  0.00  0.00    +0.000 A 
ATOM     30  C   UNL     1      56.688 218.080 334.342  0.00  0.00    +0.000 A 
ATOM     31  C   UNL     1      56.024 217.690 333.179  0.00  0.00    +0.000 A 
ATOM     32  C   UNL     1      55.100 216.658 333.196  0.00  0.00    +0.000 A 
ENDROOT
BRANCH   5  33
ATOM     33  N   UNL     1      61.564 217.248 337.594  0.00  0.00    +0.000 N 
ATOM     34  C   UNL     1      61.827 215.971 338.220  0.00  0.00    +0.000 C 
ATOM     35  H   UNL     1      62.337 217.917 337.607  0.00  0.00    +0.000 HD
ENDBRANCH   5  33
BRANCH   3  36
ATOM     36  O   UNL     1      59.591 218.063 335.519  0.00  0.00    +0.000 OA
ATOM     37  C   UNL     1      59.849 216.701 335.310  0.00  0.00    +0.000 C 
ENDBRANCH   3  36
TORSDOF 2
ENDMDL
MODEL 8
REMARK VINA RESULT:      -6.3     32.194     34.103
REMARK  Name = Staurosporine.pdbqt.pdb
REMARK  2 active torsions:
REMARK  status: ('A' for Active; 'I' for Inactive)
REMARK    1  A    between atoms: C_3  and  O_11
REMARK    2  A    between atoms: C_5  and  N_8
REMARK                            x       y       z     vdW  Elec       q    Type
REMARK                         _______ _______ _______ _____ _____    ______ ____
ROOT
ATOM      1  O   UNL     1      70.792 223.373 337.241  0.00  0.00    +0.000 OA
ATOM      2  C   UNL     1      70.546 222.072 337.841  0.00  0.00    +0.000 C 
ATOM      3  C   UNL     1      70.804 220.868 336.912  0.00  0.00    +0.000 C 
ATOM      4  C   UNL     1      72.018 223.459 336.603  0.00  0.00    +0.000 C 
ATOM      5  C   UNL     1      71.705 221.042 335.776  0.00  0.00    +0.000 C 
ATOM      6  C   UNL     1      72.192 222.362 335.734  0.00  0.00    +0.000 C 
ATOM      7  C   UNL     1      69.008 222.098 338.136  0.00  0.00    +0.000 C 
ATOM      8  N   UNL     1      71.341 222.004 339.089  0.00  0.00    +0.000 N 
ATOM      9  C   UNL     1      72.479 222.663 339.479  0.00  0.00    +0.000 A 
ATOM     10  C   UNL     1      73.281 223.517 338.714  0.00  0.00    +0.000 A 
ATOM     11  C   UNL     1      72.983 222.437 340.767  0.00  0.00    +0.000 A 
ATOM     12  N   UNL     1      73.087 223.814 337.400  0.00  0.00    +0.000 N 
ATOM     13  C   UNL     1      74.451 223.961 339.348  0.00  0.00    +0.000 A 
ATOM     14  C   UNL     1      74.304 224.459 337.105  0.00  0.00    +0.000 A 
ATOM     15  C   UNL     1      75.128 224.593 338.282  0.00  0.00    +0.000 A 
ATOM     16  C   UNL     1      74.732 224.969 335.868  0.00  0.00    +0.000 A 
ATOM     17  C   UNL     1      76.374 225.237 338.145  0.00  0.00    +0.000 A 
ATOM     18  C   UNL     1      76.781 225.736 336.909  0.00  0.00    +0.000 A 
ATOM     19  C   UNL     1      75.972 225.601 335.791  0.00  0.00    +0.000 A 
ATOM     20  C   UNL     1      74.960 223.749 340.644  0.00  0.00    +0.000 A 
ATOM     21  C   UNL     1      74.127 222.904 341.429  0.00  0.00    +0.000 A 
ATOM     22  C   UNL     1      76.137 224.131 341.388  0.00  0.00    +0.000 C 
ATOM     23  C   UNL     1      74.804 222.737 342.743  0.00  0.00    +0.000 C 
ATOM     24  N   UNL     1      75.929 223.472 342.608  0.00  0.00    +0.000 N 
ATOM     25  H   UNL     1      76.607 223.561 343.350  0.00  0.00    +0.000 HD
ATOM     26  O   UNL     1      77.111 224.826 341.139  0.00  0.00    +0.000 OA
ATOM     27  C   UNL     1      72.081 221.491 341.281  0.00  0.00    +0.000 A 
ATOM     28  C   UNL     1      71.103 221.223 340.253  0.00  0.00    +0.000 A 
ATOM     29  C   UNL     1      71.980 220.796 342.503  0.00  0.00    +0.000 A 
ATOM     30  C   UNL     1      70.081 220.289 340.494  0.00  0.00    +0.000 A 
ATOM     31  C   UNL     1      70.021 219.628 341.721  0.00  0.00    +0.000 A 
ATOM     32  C   UNL     1      70.954 219.877 342.713  0.00  0.00    +0.000 A 
ENDROOT
BRANCH   5  33
ATOM     33  N   UNL     1      72.188 219.975 334.970  0.00  0.00    +0.000 N 
ATOM     34  C   UNL     1      71.368 219.653 333.823  0.00  0.00    +0.000 C 
ATOM     35  H   UNL     1      72.560 219.177 335.490  0.00  0.00    +0.000 HD
ENDBRANCH   5  33
BRANCH   3  36
ATOM     36  O   UNL     1      70.626 219.625 337.481  0.00  0.00    +0.000 OA
ATOM     37  C   UNL     1      69.508 218.964 336.953  0.00  0.00    +0.000 C 
ENDBRANCH   3  36
TORSDOF 2
ENDMDL
MODEL 9
REMARK VINA RESULT:      -6.3     32.299     33.998
REMARK  Name = Staurosporine.pdbqt.pdb
REMARK  2 active torsions:
REMARK  status: ('A' for Active; 'I' for Inactive)
REMARK    1  A    between atoms: C_3  and  O_11
REMARK    2  A    between atoms: C_5  and  N_8
REMARK                            x       y       z     vdW  Elec       q    Type
REMARK                         _______ _______ _______ _____ _____    ______ ____
ROOT
ATOM      1  O   UNL     1      70.200 223.008 339.672  0.00  0.00    +0.000 OA
ATOM      2  C   UNL     1      70.192 222.613 338.273  0.00  0.00    +0.000 C 
ATOM      3  C   UNL     1      71.576 222.606 337.591  0.00  0.00    +0.000 C 
ATOM      4  C   UNL     1      71.150 222.337 340.425  0.00  0.00    +0.000 C 
ATOM      5  C   UNL     1      72.767 222.480 338.428  0.00  0.00    +0.000 C 
ATOM      6  C   UNL     1      72.406 222.393 339.785  0.00  0.00    +0.000 C 
ATOM      7  C   UNL     1      69.353 223.744 337.587  0.00  0.00    +0.000 C 
ATOM      8  N   UNL     1      69.514 221.300 338.188  0.00  0.00    +0.000 N 
ATOM      9  C   UNL     1      69.341 220.303 339.116  0.00  0.00    +0.000 A 
ATOM     10  C   UNL     1      69.893 220.221 340.398  0.00  0.00    +0.000 A 
ATOM     11  C   UNL     1      68.588 219.175 338.764  0.00  0.00    +0.000 A 
ATOM     12  N   UNL     1      70.755 221.122 340.945  0.00  0.00    +0.000 N 
ATOM     13  C   UNL     1      69.631 219.026 341.084  0.00  0.00    +0.000 A 
ATOM     14  C   UNL     1      71.177 220.407 342.084  0.00  0.00    +0.000 A 
ATOM     15  C   UNL     1      70.477 219.151 342.208  0.00  0.00    +0.000 A 
ATOM     16  C   UNL     1      72.120 220.800 343.048  0.00  0.00    +0.000 A 
ATOM     17  C   UNL     1      70.781 218.331 343.313  0.00  0.00    +0.000 A 
ATOM     18  C   UNL     1      71.720 218.739 344.258  0.00  0.00    +0.000 A 
ATOM     19  C   UNL     1      72.378 219.952 344.124  0.00  0.00    +0.000 A 
ATOM     20  C   UNL     1      68.867 217.892 340.743  0.00  0.00    +0.000 A 
ATOM     21  C   UNL     1      68.283 217.992 339.450  0.00  0.00    +0.000 A 
ATOM     22  C   UNL     1      68.545 216.620 341.347  0.00  0.00    +0.000 C 
ATOM     23  C   UNL     1      67.548 216.721 339.212  0.00  0.00    +0.000 C 
ATOM     24  N   UNL     1      67.765 216.021 340.348  0.00  0.00    +0.000 N 
ATOM     25  H   UNL     1      67.382 215.098 340.493  0.00  0.00    +0.000 HD
ATOM     26  O   UNL     1      68.813 216.096 342.417  0.00  0.00    +0.000 OA
ATOM     27  C   UNL     1      68.243 219.449 337.430  0.00  0.00    +0.000 A 
ATOM     28  C   UNL     1      68.821 220.726 337.087  0.00  0.00    +0.000 A 
ATOM     29  C   UNL     1      67.518 218.751 336.442  0.00  0.00    +0.000 A 
ATOM     30  C   UNL     1      68.646 221.242 335.791  0.00  0.00    +0.000 A 
ATOM     31  C   UNL     1      67.918 220.516 334.848  0.00  0.00    +0.000 A 
ATOM     32  C   UNL     1      67.360 219.289 335.167  0.00  0.00    +0.000 A 
ENDROOT
BRANCH   5  33
ATOM     33  N   UNL     1      74.076 222.253 337.922  0.00  0.00    +0.000 N 
ATOM     34  C   UNL     1      74.779 223.440 337.486  0.00  0.00    +0.000 C 
ATOM     35  H   UNL     1      74.169 221.434 337.318  0.00  0.00    +0.000 HD
ENDBRANCH   5  33
BRANCH   3  36
ATOM     36  O   UNL     1      71.594 222.184 336.279  0.00  0.00    +0.000 OA
ATOM     37  C   UNL     1      72.241 220.948 336.137  0.00  0.00    +0.000 C 
ENDBRANCH   3  36
TORSDOF 2
ENDMDL
