MODEL 1
REMARK VINA RESULT:      -5.2      0.000      0.000
REMARK  Name = Testosterone.pdbqt.pdb
REMARK  1 active torsions:
REMARK  status: ('A' for Active; 'I' for Inactive)
REMARK    1  A    between atoms: C_9  and  O_21
REMARK                            x       y       z     vdW  Elec       q    Type
REMARK                         _______ _______ _______ _____ _____    ______ ____
ROOT
ATOM      1  O   UNL     1      48.356 245.670 344.648  0.00  0.00    +0.000 OA
ATOM      2  C   UNL     1      53.598 241.873 348.735  0.00  0.00    +0.000 C 
ATOM      3  C   UNL     1      54.858 241.161 348.046  0.00  0.00    +0.000 C 
ATOM      4  C   UNL     1      52.942 243.044 348.120  0.00  0.00    +0.000 C 
ATOM      5  C   UNL     1      53.122 243.518 346.704  0.00  0.00    +0.000 C 
ATOM      6  C   UNL     1      52.481 244.804 346.138  0.00  0.00    +0.000 C 
ATOM      7  C   UNL     1      54.834 241.576 346.643  0.00  0.00    +0.000 C 
ATOM      8  C   UNL     1      54.047 242.695 346.004  0.00  0.00    +0.000 C 
ATOM      9  C   UNL     1      54.561 239.651 348.216  0.00  0.00    +0.000 C 
ATOM     10  C   UNL     1      52.796 240.828 349.299  0.00  0.00    +0.000 C 
ATOM     11  C   UNL     1      51.933 243.758 348.807  0.00  0.00    +0.000 C 
ATOM     12  C   UNL     1      53.350 239.472 348.938  0.00  0.00    +0.000 C 
ATOM     13  C   UNL     1      51.174 245.372 346.981  0.00  0.00    +0.000 C 
ATOM     14  C   UNL     1      51.067 244.873 348.302  0.00  0.00    +0.000 C 
ATOM     15  C   UNL     1      56.164 241.549 348.783  0.00  0.00    +0.000 C 
ATOM     16  C   UNL     1      51.911 244.545 344.774  0.00  0.00    +0.000 C 
ATOM     17  C   UNL     1      53.534 245.947 346.111  0.00  0.00    +0.000 C 
ATOM     18  C   UNL     1      50.524 244.820 344.149  0.00  0.00    +0.000 C 
ATOM     19  C   UNL     1      50.061 245.589 346.311  0.00  0.00    +0.000 C 
ATOM     20  C   UNL     1      49.495 245.411 344.982  0.00  0.00    +0.000 C 
ENDROOT
BRANCH   9  21
ATOM     21  O   UNL     1      55.568 238.707 348.299  0.00  0.00    +0.000 OA
ATOM     22  H   UNL     1      55.677 238.384 349.215  0.00  0.00    +0.000 HD
ENDBRANCH   9  21
TORSDOF 1
ENDMDL
MODEL 2
REMARK VINA RESULT:      -5.1     14.106     15.646
REMARK  Name = Testosterone.pdbqt.pdb
REMARK  1 active torsions:
REMARK  status: ('A' for Active; 'I' for Inactive)
REMARK    1  A    between atoms: C_9  and  O_21
REMARK                            x       y       z     vdW  Elec       q    Type
REMARK                         _______ _______ _______ _____ _____    ______ ____
ROOT
ATOM      1  O   UNL     1      46.311 241.494 332.191  0.00  0.00    +0.000 OA
ATOM      2  C   UNL     1      41.905 237.787 337.237  0.00  0.00    +0.000 C 
ATOM      3  C   UNL     1      41.607 238.376 338.697  0.00  0.00    +0.000 C 
ATOM      4  C   UNL     1      42.214 238.672 336.095  0.00  0.00    +0.000 C 
ATOM      5  C   UNL     1      42.596 240.124 336.179  0.00  0.00    +0.000 C 
ATOM      6  C   UNL     1      42.821 241.028 334.947  0.00  0.00    +0.000 C 
ATOM      7  C   UNL     1      42.161 239.731 338.701  0.00  0.00    +0.000 C 
ATOM      8  C   UNL     1      42.603 240.573 337.529  0.00  0.00    +0.000 C 
ATOM      9  C   UNL     1      42.383 237.424 339.639  0.00  0.00    +0.000 C 
ATOM     10  C   UNL     1      42.664 236.586 337.427  0.00  0.00    +0.000 C 
ATOM     11  C   UNL     1      42.324 238.157 334.783  0.00  0.00    +0.000 C 
ATOM     12  C   UNL     1      43.003 236.391 338.884  0.00  0.00    +0.000 C 
ATOM     13  C   UNL     1      43.137 240.228 333.532  0.00  0.00    +0.000 C 
ATOM     14  C   UNL     1      42.759 238.862 333.534  0.00  0.00    +0.000 C 
ATOM     15  C   UNL     1      40.089 238.329 338.996  0.00  0.00    +0.000 C 
ATOM     16  C   UNL     1      44.051 241.869 335.136  0.00  0.00    +0.000 C 
ATOM     17  C   UNL     1      41.561 241.903 334.701  0.00  0.00    +0.000 C 
ATOM     18  C   UNL     1      45.293 242.120 334.251  0.00  0.00    +0.000 C 
ATOM     19  C   UNL     1      44.221 240.567 332.866  0.00  0.00    +0.000 C 
ATOM     20  C   UNL     1      45.395 241.420 332.986  0.00  0.00    +0.000 C 
ENDROOT
BRANCH   9  21
ATOM     21  O   UNL     1      41.983 237.189 340.942  0.00  0.00    +0.000 OA
ATOM     22  H   UNL     1      41.350 237.868 341.247  0.00  0.00    +0.000 HD
ENDBRANCH   9  21
TORSDOF 1
ENDMDL
MODEL 3
REMARK VINA RESULT:      -5.0     21.842     24.468
REMARK  Name = Testosterone.pdbqt.pdb
REMARK  1 active torsions:
REMARK  status: ('A' for Active; 'I' for Inactive)
REMARK    1  A    between atoms: C_9  and  O_21
REMARK                            x       y       z     vdW  Elec       q    Type
REMARK                         _______ _______ _______ _____ _____    ______ ____
ROOT
ATOM      1  O   UNL     1      45.891 240.629 328.416  0.00  0.00    +0.000 OA
ATOM      2  C   UNL     1      48.902 235.874 323.226  0.00  0.00    +0.000 C 
ATOM      3  C   UNL     1      48.055 235.334 321.978  0.00  0.00    +0.000 C 
ATOM      4  C   UNL     1      48.596 237.170 323.865  0.00  0.00    +0.000 C 
ATOM      5  C   UNL     1      47.338 237.973 323.680  0.00  0.00    +0.000 C 
ATOM      6  C   UNL     1      47.105 239.367 324.302  0.00  0.00    +0.000 C 
ATOM      7  C   UNL     1      46.796 236.080 321.997  0.00  0.00    +0.000 C 
ATOM      8  C   UNL     1      46.453 237.332 322.768  0.00  0.00    +0.000 C 
ATOM      9  C   UNL     1      47.852 233.833 322.298  0.00  0.00    +0.000 C 
ATOM     10  C   UNL     1      49.198 234.735 324.043  0.00  0.00    +0.000 C 
ATOM     11  C   UNL     1      49.440 237.708 324.863  0.00  0.00    +0.000 C 
ATOM     12  C   UNL     1      48.515 233.500 323.511  0.00  0.00    +0.000 C 
ATOM     13  C   UNL     1      48.067 239.730 325.600  0.00  0.00    +0.000 C 
ATOM     14  C   UNL     1      49.227 238.924 325.713  0.00  0.00    +0.000 C 
ATOM     15  C   UNL     1      48.858 235.512 320.666  0.00  0.00    +0.000 C 
ATOM     16  C   UNL     1      45.722 239.456 324.878  0.00  0.00    +0.000 C 
ATOM     17  C   UNL     1      47.354 240.466 323.233  0.00  0.00    +0.000 C 
ATOM     18  C   UNL     1      45.190 239.896 326.261  0.00  0.00    +0.000 C 
ATOM     19  C   UNL     1      47.476 240.119 326.710  0.00  0.00    +0.000 C 
ATOM     20  C   UNL     1      46.147 240.280 327.279  0.00  0.00    +0.000 C 
ENDROOT
BRANCH   9  21
ATOM     21  O   UNL     1      47.698 232.883 321.305  0.00  0.00    +0.000 OA
ATOM     22  H   UNL     1      47.656 233.296 320.421  0.00  0.00    +0.000 HD
ENDBRANCH   9  21
TORSDOF 1
ENDMDL
MODEL 4
REMARK VINA RESULT:      -4.9     27.467     30.738
REMARK  Name = Testosterone.pdbqt.pdb
REMARK  1 active torsions:
REMARK  status: ('A' for Active; 'I' for Inactive)
REMARK    1  A    between atoms: C_9  and  O_21
REMARK                            x       y       z     vdW  Elec       q    Type
REMARK                         _______ _______ _______ _____ _____    ______ ____
ROOT
ATOM      1  O   UNL     1      74.241 216.760 344.215  0.00  0.00    +0.000 OA
ATOM      2  C   UNL     1      71.765 222.261 339.501  0.00  0.00    +0.000 C 
ATOM      3  C   UNL     1      70.327 222.193 338.799  0.00  0.00    +0.000 C 
ATOM      4  C   UNL     1      72.027 221.595 340.793  0.00  0.00    +0.000 C 
ATOM      5  C   UNL     1      71.158 220.555 341.445  0.00  0.00    +0.000 C 
ATOM      6  C   UNL     1      71.431 219.956 342.842  0.00  0.00    +0.000 C 
ATOM      7  C   UNL     1      69.640 221.052 339.407  0.00  0.00    +0.000 C 
ATOM      8  C   UNL     1      70.002 220.292 340.659  0.00  0.00    +0.000 C 
ATOM      9  C   UNL     1      70.660 221.950 337.308  0.00  0.00    +0.000 C 
ATOM     10  C   UNL     1      72.737 222.175 338.451  0.00  0.00    +0.000 C 
ATOM     11  C   UNL     1      73.249 221.787 341.478  0.00  0.00    +0.000 C 
ATOM     12  C   UNL     1      72.069 221.930 337.121  0.00  0.00    +0.000 C 
ATOM     13  C   UNL     1      72.989 220.109 343.383  0.00  0.00    +0.000 C 
ATOM     14  C   UNL     1      73.747 221.101 342.714  0.00  0.00    +0.000 C 
ATOM     15  C   UNL     1      69.575 223.535 338.982  0.00  0.00    +0.000 C 
ATOM     16  C   UNL     1      71.232 218.468 342.818  0.00  0.00    +0.000 C 
ATOM     17  C   UNL     1      70.517 220.640 343.894  0.00  0.00    +0.000 C 
ATOM     18  C   UNL     1      72.114 217.286 343.281  0.00  0.00    +0.000 C 
ATOM     19  C   UNL     1      73.611 219.016 343.774  0.00  0.00    +0.000 C 
ATOM     20  C   UNL     1      73.425 217.574 343.827  0.00  0.00    +0.000 C 
ENDROOT
BRANCH   9  21
ATOM     21  O   UNL     1      69.829 222.375 336.288  0.00  0.00    +0.000 OA
ATOM     22  H   UNL     1      70.113 223.241 335.936  0.00  0.00    +0.000 HD
ENDBRANCH   9  21
TORSDOF 1
ENDMDL
MODEL 5
REMARK VINA RESULT:      -4.7     15.047     17.317
REMARK  Name = Testosterone.pdbqt.pdb
REMARK  1 active torsions:
REMARK  status: ('A' for Active; 'I' for Inactive)
REMARK    1  A    between atoms: C_9  and  O_21
REMARK                            x       y       z     vdW  Elec       q    Type
REMARK                         _______ _______ _______ _____ _____    ______ ____
ROOT
ATOM      1  O   UNL     1      38.167 235.579 337.484  0.00  0.00    +0.000 OA
ATOM      2  C   UNL     1      43.073 240.017 333.632  0.00  0.00    +0.000 C 
ATOM      3  C   UNL     1      43.679 241.359 334.264  0.00  0.00    +0.000 C 
ATOM      4  C   UNL     1      42.641 238.890 334.482  0.00  0.00    +0.000 C 
ATOM      5  C   UNL     1      42.408 238.939 335.967  0.00  0.00    +0.000 C 
ATOM      6  C   UNL     1      42.044 237.707 336.824  0.00  0.00    +0.000 C 
ATOM      7  C   UNL     1      43.255 241.367 335.665  0.00  0.00    +0.000 C 
ATOM      8  C   UNL     1      42.683 240.236 336.483  0.00  0.00    +0.000 C 
ATOM      9  C   UNL     1      43.007 242.485 333.441  0.00  0.00    +0.000 C 
ATOM     10  C   UNL     1      42.260 240.418 332.522  0.00  0.00    +0.000 C 
ATOM     11  C   UNL     1      42.252 237.655 333.913  0.00  0.00    +0.000 C 
ATOM     12  C   UNL     1      42.174 241.922 332.437  0.00  0.00    +0.000 C 
ATOM     13  C   UNL     1      41.409 236.427 335.986  0.00  0.00    +0.000 C 
ATOM     14  C   UNL     1      41.662 236.456 334.592  0.00  0.00    +0.000 C 
ATOM     15  C   UNL     1      45.217 241.391 334.084  0.00  0.00    +0.000 C 
ATOM     16  C   UNL     1      40.946 238.050 337.789  0.00  0.00    +0.000 C 
ATOM     17  C   UNL     1      43.310 237.185 337.557  0.00  0.00    +0.000 C 
ATOM     18  C   UNL     1      39.591 237.381 338.114  0.00  0.00    +0.000 C 
ATOM     19  C   UNL     1      40.257 235.939 336.394  0.00  0.00    +0.000 C 
ATOM     20  C   UNL     1      39.203 236.204 337.362  0.00  0.00    +0.000 C 
ENDROOT
BRANCH   9  21
ATOM     21  O   UNL     1      43.614 243.711 333.237  0.00  0.00    +0.000 OA
ATOM     22  H   UNL     1      43.123 244.429 333.682  0.00  0.00    +0.000 HD
ENDBRANCH   9  21
TORSDOF 1
ENDMDL
MODEL 6
REMARK VINA RESULT:      -4.7      3.144      5.338
REMARK  Name = Testosterone.pdbqt.pdb
REMARK  1 active torsions:
REMARK  status: ('A' for Active; 'I' for Inactive)
REMARK    1  A    between atoms: C_9  and  O_21
REMARK                            x       y       z     vdW  Elec       q    Type
REMARK                         _______ _______ _______ _____ _____    ______ ____
ROOT
ATOM      1  O   UNL     1      52.031 238.109 348.644  0.00  0.00    +0.000 OA
ATOM      2  C   UNL     1      56.737 244.115 349.263  0.00  0.00    +0.000 C 
ATOM      3  C   UNL     1      57.259 244.921 347.979  0.00  0.00    +0.000 C 
ATOM      4  C   UNL     1      55.448 243.395 349.251  0.00  0.00    +0.000 C 
ATOM      5  C   UNL     1      54.637 243.050 348.033  0.00  0.00    +0.000 C 
ATOM      6  C   UNL     1      53.250 242.374 348.083  0.00  0.00    +0.000 C 
ATOM      7  C   UNL     1      56.507 244.388 346.841  0.00  0.00    +0.000 C 
ATOM      8  C   UNL     1      55.263 243.533 346.850  0.00  0.00    +0.000 C 
ATOM      9  C   UNL     1      58.762 244.560 347.909  0.00  0.00    +0.000 C 
ATOM     10  C   UNL     1      57.888 243.498 349.853  0.00  0.00    +0.000 C 
ATOM     11  C   UNL     1      54.925 242.818 350.432  0.00  0.00    +0.000 C 
ATOM     12  C   UNL     1      59.113 243.721 349.002  0.00  0.00    +0.000 C 
ATOM     13  C   UNL     1      52.907 241.572 349.491  0.00  0.00    +0.000 C 
ATOM     14  C   UNL     1      53.718 241.944 350.591  0.00  0.00    +0.000 C 
ATOM     15  C   UNL     1      57.068 246.444 348.186  0.00  0.00    +0.000 C 
ATOM     16  C   UNL     1      53.161 241.288 347.051  0.00  0.00    +0.000 C 
ATOM     17  C   UNL     1      52.139 243.442 347.889  0.00  0.00    +0.000 C 
ATOM     18  C   UNL     1      52.736 239.804 347.126  0.00  0.00    +0.000 C 
ATOM     19  C   UNL     1      52.528 240.314 349.401  0.00  0.00    +0.000 C 
ATOM     20  C   UNL     1      52.368 239.255 348.416  0.00  0.00    +0.000 C 
ENDROOT
BRANCH   9  21
ATOM     21  O   UNL     1      59.700 245.414 347.359  0.00  0.00    +0.000 OA
ATOM     22  H   UNL     1      60.459 245.545 347.961  0.00  0.00    +0.000 HD
ENDBRANCH   9  21
TORSDOF 1
ENDMDL
MODEL 7
REMARK VINA RESULT:      -4.6     15.383     18.080
REMARK  Name = Testosterone.pdbqt.pdb
REMARK  1 active torsions:
REMARK  status: ('A' for Active; 'I' for Inactive)
REMARK    1  A    between atoms: C_9  and  O_21
REMARK                            x       y       z     vdW  Elec       q    Type
REMARK                         _______ _______ _______ _____ _____    ______ ____
ROOT
ATOM      1  O   UNL     1      37.706 238.148 330.562  0.00  0.00    +0.000 OA
ATOM      2  C   UNL     1      42.523 238.234 336.512  0.00  0.00    +0.000 C 
ATOM      3  C   UNL     1      42.319 237.279 337.782  0.00  0.00    +0.000 C 
ATOM      4  C   UNL     1      42.022 237.858 335.174  0.00  0.00    +0.000 C 
ATOM      5  C   UNL     1      41.034 236.765 334.874  0.00  0.00    +0.000 C 
ATOM      6  C   UNL     1      40.612 236.352 333.447  0.00  0.00    +0.000 C 
ATOM      7  C   UNL     1      41.232 236.366 337.425  0.00  0.00    +0.000 C 
ATOM      8  C   UNL     1      40.637 236.095 336.064  0.00  0.00    +0.000 C 
ATOM      9  C   UNL     1      41.916 238.257 338.912  0.00  0.00    +0.000 C 
ATOM     10  C   UNL     1      42.351 239.578 336.979  0.00  0.00    +0.000 C 
ATOM     11  C   UNL     1      42.339 238.631 334.033  0.00  0.00    +0.000 C 
ATOM     12  C   UNL     1      41.928 239.593 338.427  0.00  0.00    +0.000 C 
ATOM     13  C   UNL     1      40.886 237.489 332.274  0.00  0.00    +0.000 C 
ATOM     14  C   UNL     1      41.821 238.490 332.634  0.00  0.00    +0.000 C 
ATOM     15  C   UNL     1      43.644 236.556 338.129  0.00  0.00    +0.000 C 
ATOM     16  C   UNL     1      39.126 236.156 333.379  0.00  0.00    +0.000 C 
ATOM     17  C   UNL     1      41.380 235.070 333.023  0.00  0.00    +0.000 C 
ATOM     18  C   UNL     1      38.039 236.701 332.424  0.00  0.00    +0.000 C 
ATOM     19  C   UNL     1      39.870 237.838 331.512  0.00  0.00    +0.000 C 
ATOM     20  C   UNL     1      38.438 237.620 331.376  0.00  0.00    +0.000 C 
ENDROOT
BRANCH   9  21
ATOM     21  O   UNL     1      42.188 237.997 340.243  0.00  0.00    +0.000 OA
ATOM     22  H   UNL     1      42.025 237.059 340.462  0.00  0.00    +0.000 HD
ENDBRANCH   9  21
TORSDOF 1
ENDMDL
MODEL 8
REMARK VINA RESULT:      -4.6      3.577      5.345
REMARK  Name = Testosterone.pdbqt.pdb
REMARK  1 active torsions:
REMARK  status: ('A' for Active; 'I' for Inactive)
REMARK    1  A    between atoms: C_9  and  O_21
REMARK                            x       y       z     vdW  Elec       q    Type
REMARK                         _______ _______ _______ _____ _____    ______ ____
ROOT
ATOM      1  O   UNL     1      50.735 237.507 348.246  0.00  0.00    +0.000 OA
ATOM      2  C   UNL     1      56.293 241.819 351.267  0.00  0.00    +0.000 C 
ATOM      3  C   UNL     1      57.502 242.388 350.381  0.00  0.00    +0.000 C 
ATOM      4  C   UNL     1      54.974 241.524 350.673  0.00  0.00    +0.000 C 
ATOM      5  C   UNL     1      54.670 241.403 349.206  0.00  0.00    +0.000 C 
ATOM      6  C   UNL     1      53.252 241.182 348.634  0.00  0.00    +0.000 C 
ATOM      7  C   UNL     1      57.162 242.073 348.993  0.00  0.00    +0.000 C 
ATOM      8  C   UNL     1      55.834 241.637 348.423  0.00  0.00    +0.000 C 
ATOM      9  C   UNL     1      58.728 241.586 350.880  0.00  0.00    +0.000 C 
ATOM     10  C   UNL     1      56.870 240.899 352.203  0.00  0.00    +0.000 C 
ATOM     11  C   UNL     1      53.872 241.169 351.486  0.00  0.00    +0.000 C 
ATOM     12  C   UNL     1      58.343 240.714 351.935  0.00  0.00    +0.000 C 
ATOM     13  C   UNL     1      52.148 240.566 349.703  0.00  0.00    +0.000 C 
ATOM     14  C   UNL     1      52.510 240.708 351.066  0.00  0.00    +0.000 C 
ATOM     15  C   UNL     1      57.693 243.903 350.642  0.00  0.00    +0.000 C 
ATOM     16  C   UNL     1      53.282 240.143 347.551  0.00  0.00    +0.000 C 
ATOM     17  C   UNL     1      52.678 242.531 348.119  0.00  0.00    +0.000 C 
ATOM     18  C   UNL     1      52.455 238.861 347.306  0.00  0.00    +0.000 C 
ATOM     19  C   UNL     1      51.493 239.480 349.349  0.00  0.00    +0.000 C 
ATOM     20  C   UNL     1      51.451 238.490 348.283  0.00  0.00    +0.000 C 
ENDROOT
BRANCH   9  21
ATOM     21  O   UNL     1      60.012 242.098 350.834  0.00  0.00    +0.000 OA
ATOM     22  H   UNL     1      60.005 243.075 350.847  0.00  0.00    +0.000 HD
ENDBRANCH   9  21
TORSDOF 1
ENDMDL
MODEL 9
REMARK VINA RESULT:      -4.6      2.571      6.830
REMARK  Name = Testosterone.pdbqt.pdb
REMARK  1 active torsions:
REMARK  status: ('A' for Active; 'I' for Inactive)
REMARK    1  A    between atoms: C_9  and  O_21
REMARK                            x       y       z     vdW  Elec       q    Type
REMARK                         _______ _______ _______ _____ _____    ______ ____
ROOT
ATOM      1  O   UNL     1      56.814 239.160 353.147  0.00  0.00    +0.000 OA
ATOM      2  C   UNL     1      53.558 243.931 348.123  0.00  0.00    +0.000 C 
ATOM      3  C   UNL     1      54.053 244.029 346.602  0.00  0.00    +0.000 C 
ATOM      4  C   UNL     1      53.722 242.693 348.911  0.00  0.00    +0.000 C 
ATOM      5  C   UNL     1      54.603 241.528 348.555  0.00  0.00    +0.000 C 
ATOM      6  C   UNL     1      54.670 240.217 349.369  0.00  0.00    +0.000 C 
ATOM      7  C   UNL     1      55.018 242.942 346.426  0.00  0.00    +0.000 C 
ATOM      8  C   UNL     1      55.269 241.750 347.317  0.00  0.00    +0.000 C 
ATOM      9  C   UNL     1      54.720 245.423 346.525  0.00  0.00    +0.000 C 
ATOM     10  C   UNL     1      53.844 245.198 348.728  0.00  0.00    +0.000 C 
ATOM     11  C   UNL     1      53.147 242.565 350.196  0.00  0.00    +0.000 C 
ATOM     12  C   UNL     1      54.601 246.089 347.775  0.00  0.00    +0.000 C 
ATOM     13  C   UNL     1      54.131 240.328 350.930  0.00  0.00    +0.000 C 
ATOM     14  C   UNL     1      53.315 241.456 351.190  0.00  0.00    +0.000 C 
ATOM     15  C   UNL     1      52.844 243.944 345.637  0.00  0.00    +0.000 C 
ATOM     16  C   UNL     1      56.096 239.780 349.539  0.00  0.00    +0.000 C 
ATOM     17  C   UNL     1      53.815 239.123 348.671  0.00  0.00    +0.000 C 
ATOM     18  C   UNL     1      56.926 239.373 350.778  0.00  0.00    +0.000 C 
ATOM     19  C   UNL     1      54.937 239.916 351.887  0.00  0.00    +0.000 C 
ATOM     20  C   UNL     1      56.294 239.428 352.081  0.00  0.00    +0.000 C 
ENDROOT
BRANCH   9  21
ATOM     21  O   UNL     1      54.773 246.151 345.351  0.00  0.00    +0.000 OA
ATOM     22  H   UNL     1      54.975 247.091 345.524  0.00  0.00    +0.000 HD
ENDBRANCH   9  21
TORSDOF 1
ENDMDL
