MODEL 1
REMARK VINA RESULT:      -2.6      0.000      0.000
REMARK  Name = Tetrachloroethylene.pdbqt.pdb
REMARK  0 active torsions:
REMARK  status: ('A' for Active; 'I' for Inactive)
REMARK                            x       y       z     vdW  Elec       q    Type
REMARK                         _______ _______ _______ _____ _____    ______ ____
ROOT
ATOM      1 CL   UNL     1      59.035 218.375 335.338  0.00  0.00    +0.000 Cl
ATOM      2 CL   UNL     1      56.852 219.851 336.614  0.00  0.00    +0.000 Cl
ATOM      3 CL   UNL     1      58.130 219.242 339.504  0.00  0.00    +0.000 Cl
ATOM      4 CL   UNL     1      60.313 217.766 338.228  0.00  0.00    +0.000 Cl
ATOM      5  C   UNL     1      58.315 218.936 336.818  0.00  0.00    +0.000 C 
ATOM      6  C   UNL     1      58.849 218.682 338.025  0.00  0.00    +0.000 C 
ENDROOT
TORSDOF 0
ENDMDL
MODEL 2
REMARK VINA RESULT:      -2.6     10.913     12.124
REMARK  Name = Tetrachloroethylene.pdbqt.pdb
REMARK  0 active torsions:
REMARK  status: ('A' for Active; 'I' for Inactive)
REMARK                            x       y       z     vdW  Elec       q    Type
REMARK                         _______ _______ _______ _____ _____    ______ ____
ROOT
ATOM      1 CL   UNL     1      69.941 220.447 340.067  0.00  0.00    +0.000 Cl
ATOM      2 CL   UNL     1      71.012 223.172 340.126  0.00  0.00    +0.000 Cl
ATOM      3 CL   UNL     1      69.546 223.809 337.334  0.00  0.00    +0.000 Cl
ATOM      4 CL   UNL     1      68.475 221.085 337.274  0.00  0.00    +0.000 Cl
ATOM      5  C   UNL     1      70.050 221.995 339.283  0.00  0.00    +0.000 C 
ATOM      6  C   UNL     1      69.437 222.261 338.117  0.00  0.00    +0.000 C 
ENDROOT
TORSDOF 0
ENDMDL
MODEL 3
REMARK VINA RESULT:      -2.6     10.911     11.813
REMARK  Name = Tetrachloroethylene.pdbqt.pdb
REMARK  0 active torsions:
REMARK  status: ('A' for Active; 'I' for Inactive)
REMARK                            x       y       z     vdW  Elec       q    Type
REMARK                         _______ _______ _______ _____ _____    ______ ____
ROOT
ATOM      1 CL   UNL     1      68.438 221.087 337.312  0.00  0.00    +0.000 Cl
ATOM      2 CL   UNL     1      69.555 223.794 337.329  0.00  0.00    +0.000 Cl
ATOM      3 CL   UNL     1      71.047 223.160 340.109  0.00  0.00    +0.000 Cl
ATOM      4 CL   UNL     1      69.930 220.453 340.092  0.00  0.00    +0.000 Cl
ATOM      5  C   UNL     1      69.431 222.256 338.130  0.00  0.00    +0.000 C 
ATOM      6  C   UNL     1      70.054 221.991 339.291  0.00  0.00    +0.000 C 
ENDROOT
TORSDOF 0
ENDMDL
MODEL 4
REMARK VINA RESULT:      -2.4     16.447     17.175
REMARK  Name = Tetrachloroethylene.pdbqt.pdb
REMARK  0 active torsions:
REMARK  status: ('A' for Active; 'I' for Inactive)
REMARK                            x       y       z     vdW  Elec       q    Type
REMARK                         _______ _______ _______ _____ _____    ______ ____
ROOT
ATOM      1 CL   UNL     1      61.952 229.281 351.688  0.00  0.00    +0.000 Cl
ATOM      2 CL   UNL     1      61.283 231.253 349.630  0.00  0.00    +0.000 Cl
ATOM      3 CL   UNL     1      63.670 230.137 347.784  0.00  0.00    +0.000 Cl
ATOM      4 CL   UNL     1      64.340 228.165 349.842  0.00  0.00    +0.000 Cl
ATOM      5  C   UNL     1      62.313 229.942 350.122  0.00  0.00    +0.000 C 
ATOM      6  C   UNL     1      63.310 229.476 349.351  0.00  0.00    +0.000 C 
ENDROOT
TORSDOF 0
ENDMDL
MODEL 5
REMARK VINA RESULT:      -2.4     10.759     12.082
REMARK  Name = Tetrachloroethylene.pdbqt.pdb
REMARK  0 active torsions:
REMARK  status: ('A' for Active; 'I' for Inactive)
REMARK                            x       y       z     vdW  Elec       q    Type
REMARK                         _______ _______ _______ _____ _____    ______ ____
ROOT
ATOM      1 CL   UNL     1      62.551 224.139 327.932  0.00  0.00    +0.000 Cl
ATOM      2 CL   UNL     1      61.458 225.699 325.708  0.00  0.00    +0.000 Cl
ATOM      3 CL   UNL     1      58.488 224.746 326.500  0.00  0.00    +0.000 Cl
ATOM      4 CL   UNL     1      59.581 223.186 328.723  0.00  0.00    +0.000 Cl
ATOM      5  C   UNL     1      61.139 224.641 327.050  0.00  0.00    +0.000 C 
ATOM      6  C   UNL     1      59.899 224.243 327.381  0.00  0.00    +0.000 C 
ENDROOT
TORSDOF 0
ENDMDL
MODEL 6
REMARK VINA RESULT:      -2.4     10.769     12.073
REMARK  Name = Tetrachloroethylene.pdbqt.pdb
REMARK  0 active torsions:
REMARK  status: ('A' for Active; 'I' for Inactive)
REMARK                            x       y       z     vdW  Elec       q    Type
REMARK                         _______ _______ _______ _____ _____    ______ ____
ROOT
ATOM      1 CL   UNL     1      59.522 223.184 328.698  0.00  0.00    +0.000 Cl
ATOM      2 CL   UNL     1      58.446 224.678 326.422  0.00  0.00    +0.000 Cl
ATOM      3 CL   UNL     1      61.422 225.609 325.626  0.00  0.00    +0.000 Cl
ATOM      4 CL   UNL     1      62.498 224.116 327.903  0.00  0.00    +0.000 Cl
ATOM      5  C   UNL     1      59.851 224.202 327.328  0.00  0.00    +0.000 C 
ATOM      6  C   UNL     1      61.093 224.591 326.996  0.00  0.00    +0.000 C 
ENDROOT
TORSDOF 0
ENDMDL
MODEL 7
REMARK VINA RESULT:      -2.3     23.677     24.610
REMARK  Name = Tetrachloroethylene.pdbqt.pdb
REMARK  0 active torsions:
REMARK  status: ('A' for Active; 'I' for Inactive)
REMARK                            x       y       z     vdW  Elec       q    Type
REMARK                         _______ _______ _______ _____ _____    ______ ____
ROOT
ATOM      1 CL   UNL     1      55.015 239.290 348.854  0.00  0.00    +0.000 Cl
ATOM      2 CL   UNL     1      52.757 239.156 346.994  0.00  0.00    +0.000 Cl
ATOM      3 CL   UNL     1      53.430 242.130 345.964  0.00  0.00    +0.000 Cl
ATOM      4 CL   UNL     1      55.687 242.263 347.824  0.00  0.00    +0.000 Cl
ATOM      5  C   UNL     1      54.082 240.089 347.624  0.00  0.00    +0.000 C 
ATOM      6  C   UNL     1      54.363 241.331 347.194  0.00  0.00    +0.000 C 
ENDROOT
TORSDOF 0
ENDMDL
MODEL 8
REMARK VINA RESULT:      -2.2     17.828     18.465
REMARK  Name = Tetrachloroethylene.pdbqt.pdb
REMARK  0 active torsions:
REMARK  status: ('A' for Active; 'I' for Inactive)
REMARK                            x       y       z     vdW  Elec       q    Type
REMARK                         _______ _______ _______ _____ _____    ______ ____
ROOT
ATOM      1 CL   UNL     1      64.840 234.336 342.771  0.00  0.00    +0.000 Cl
ATOM      2 CL   UNL     1      65.025 236.170 345.046  0.00  0.00    +0.000 Cl
ATOM      3 CL   UNL     1      66.566 233.911 346.741  0.00  0.00    +0.000 Cl
ATOM      4 CL   UNL     1      66.381 232.077 344.466  0.00  0.00    +0.000 Cl
ATOM      5  C   UNL     1      65.381 234.595 344.402  0.00  0.00    +0.000 C 
ATOM      6  C   UNL     1      66.025 233.652 345.110  0.00  0.00    +0.000 C 
ENDROOT
TORSDOF 0
ENDMDL
MODEL 9
REMARK VINA RESULT:      -2.2     12.529     13.268
REMARK  Name = Tetrachloroethylene.pdbqt.pdb
REMARK  0 active torsions:
REMARK  status: ('A' for Active; 'I' for Inactive)
REMARK                            x       y       z     vdW  Elec       q    Type
REMARK                         _______ _______ _______ _____ _____    ______ ____
ROOT
ATOM      1 CL   UNL     1      71.721 222.282 336.020  0.00  0.00    +0.000 Cl
ATOM      2 CL   UNL     1      69.552 223.808 337.262  0.00  0.00    +0.000 Cl
ATOM      3 CL   UNL     1      70.763 223.160 340.172  0.00  0.00    +0.000 Cl
ATOM      4 CL   UNL     1      72.931 221.634 338.930  0.00  0.00    +0.000 Cl
ATOM      5  C   UNL     1      70.989 222.856 337.488  0.00  0.00    +0.000 C 
ATOM      6  C   UNL     1      71.495 222.586 338.704  0.00  0.00    +0.000 C 
ENDROOT
TORSDOF 0
ENDMDL
