MODEL 1
REMARK VINA RESULT:      -5.6      0.000      0.000
REMARK  Name = Thalidomide.pdbqt.pdb
REMARK  1 active torsions:
REMARK  status: ('A' for Active; 'I' for Inactive)
REMARK    1  A    between atoms: N_3  and  C_12
REMARK                            x       y       z     vdW  Elec       q    Type
REMARK                         _______ _______ _______ _____ _____    ______ ____
ROOT
ATOM      1  O   UNL     1      61.366 221.030 329.325  0.00  0.00    +0.000 OA
ATOM      2  O   UNL     1      63.576 224.738 327.733  0.00  0.00    +0.000 OA
ATOM      3  N   UNL     1      62.903 222.613 328.498  0.00  0.00    +0.000 N 
ATOM      4  C   UNL     1      61.668 222.056 328.745  0.00  0.00    +0.000 C 
ATOM      5  C   UNL     1      62.767 223.843 327.891  0.00  0.00    +0.000 C 
ATOM      6  C   UNL     1      60.677 222.939 328.140  0.00  0.00    +0.000 A 
ATOM      7  C   UNL     1      61.349 224.017 327.603  0.00  0.00    +0.000 A 
ATOM      8  C   UNL     1      59.304 222.824 328.081  0.00  0.00    +0.000 A 
ATOM      9  C   UNL     1      60.691 225.059 326.984  0.00  0.00    +0.000 A 
ATOM     10  C   UNL     1      58.616 223.859 327.445  0.00  0.00    +0.000 A 
ATOM     11  C   UNL     1      59.300 224.962 326.903  0.00  0.00    +0.000 A 
ENDROOT
BRANCH   3  12
ATOM     12  C   UNL     1      64.098 222.081 328.914  0.00  0.00    +0.000 C 
ATOM     13  C   UNL     1      64.845 221.162 328.144  0.00  0.00    +0.000 C 
ATOM     14  C   UNL     1      66.058 220.469 328.686  0.00  0.00    +0.000 C 
ATOM     15  C   UNL     1      66.567 220.734 329.999  0.00  0.00    +0.000 C 
ATOM     16  O   UNL     1      67.597 220.226 330.410  0.00  0.00    +0.000 OA
ATOM     17  N   UNL     1      65.799 221.658 330.703  0.00  0.00    +0.000 N 
ATOM     18  C   UNL     1      64.749 222.465 330.239  0.00  0.00    +0.000 C 
ATOM     19  H   UNL     1      66.208 221.964 331.573  0.00  0.00    +0.000 HD
ATOM     20  O   UNL     1      64.474 223.508 330.825  0.00  0.00    +0.000 OA
ENDBRANCH   3  12
TORSDOF 1
ENDMDL
MODEL 2
REMARK VINA RESULT:      -5.5      0.239      2.021
REMARK  Name = Thalidomide.pdbqt.pdb
REMARK  1 active torsions:
REMARK  status: ('A' for Active; 'I' for Inactive)
REMARK    1  A    between atoms: N_3  and  C_12
REMARK                            x       y       z     vdW  Elec       q    Type
REMARK                         _______ _______ _______ _____ _____    ______ ____
ROOT
ATOM      1  O   UNL     1      63.677 224.485 327.577  0.00  0.00    +0.000 OA
ATOM      2  O   UNL     1      61.306 220.831 329.056  0.00  0.00    +0.000 OA
ATOM      3  N   UNL     1      62.866 222.549 328.646  0.00  0.00    +0.000 N 
ATOM      4  C   UNL     1      62.798 223.722 327.931  0.00  0.00    +0.000 C 
ATOM      5  C   UNL     1      61.624 221.959 328.731  0.00  0.00    +0.000 C 
ATOM      6  C   UNL     1      61.388 223.962 327.645  0.00  0.00    +0.000 A 
ATOM      7  C   UNL     1      60.671 222.898 328.150  0.00  0.00    +0.000 A 
ATOM      8  C   UNL     1      60.781 225.009 326.983  0.00  0.00    +0.000 A 
ATOM      9  C   UNL     1      59.302 222.801 328.014  0.00  0.00    +0.000 A 
ATOM     10  C   UNL     1      59.393 224.942 326.845  0.00  0.00    +0.000 A 
ATOM     11  C   UNL     1      58.663 223.854 327.353  0.00  0.00    +0.000 A 
ENDROOT
BRANCH   3  12
ATOM     12  C   UNL     1      64.029 221.976 329.099  0.00  0.00    +0.000 C 
ATOM     13  C   UNL     1      64.702 220.943 328.409  0.00  0.00    +0.000 C 
ATOM     14  C   UNL     1      65.873 220.221 329.002  0.00  0.00    +0.000 C 
ATOM     15  C   UNL     1      66.416 220.566 330.282  0.00  0.00    +0.000 C 
ATOM     16  O   UNL     1      67.416 220.028 330.729  0.00  0.00    +0.000 OA
ATOM     17  N   UNL     1      65.722 221.600 330.905  0.00  0.00    +0.000 N 
ATOM     18  C   UNL     1      64.722 222.431 330.379  0.00  0.00    +0.000 C 
ATOM     19  H   UNL     1      66.163 221.953 331.742  0.00  0.00    +0.000 HD
ATOM     20  O   UNL     1      64.526 223.539 330.871  0.00  0.00    +0.000 OA
ENDBRANCH   3  12
TORSDOF 1
ENDMDL
MODEL 3
REMARK VINA RESULT:      -5.5     23.412     25.494
REMARK  Name = Thalidomide.pdbqt.pdb
REMARK  1 active torsions:
REMARK  status: ('A' for Active; 'I' for Inactive)
REMARK    1  A    between atoms: N_3  and  C_12
REMARK                            x       y       z     vdW  Elec       q    Type
REMARK                         _______ _______ _______ _____ _____    ______ ____
ROOT
ATOM      1  O   UNL     1      51.398 247.202 327.798  0.00  0.00    +0.000 OA
ATOM      2  O   UNL     1      52.554 242.815 328.563  0.00  0.00    +0.000 OA
ATOM      3  N   UNL     1      51.563 244.951 328.476  0.00  0.00    +0.000 N 
ATOM      4  C   UNL     1      51.789 246.055 327.685  0.00  0.00    +0.000 C 
ATOM      5  C   UNL     1      52.292 243.873 328.023  0.00  0.00    +0.000 C 
ATOM      6  C   UNL     1      52.626 245.616 326.575  0.00  0.00    +0.000 A 
ATOM      7  C   UNL     1      52.915 244.281 326.770  0.00  0.00    +0.000 A 
ATOM      8  C   UNL     1      53.113 246.323 325.495  0.00  0.00    +0.000 A 
ATOM      9  C   UNL     1      53.722 243.570 325.907  0.00  0.00    +0.000 A 
ATOM     10  C   UNL     1      53.919 245.620 324.598  0.00  0.00    +0.000 A 
ATOM     11  C   UNL     1      54.221 244.262 324.801  0.00  0.00    +0.000 A 
ENDROOT
BRANCH   3  12
ATOM     12  C   UNL     1      50.821 244.955 329.631  0.00  0.00    +0.000 C 
ATOM     13  C   UNL     1      51.010 245.894 330.669  0.00  0.00    +0.000 C 
ATOM     14  C   UNL     1      50.305 245.779 331.985  0.00  0.00    +0.000 C 
ATOM     15  C   UNL     1      49.356 244.741 332.257  0.00  0.00    +0.000 C 
ATOM     16  O   UNL     1      48.727 244.692 333.301  0.00  0.00    +0.000 OA
ATOM     17  N   UNL     1      49.200 243.856 331.192  0.00  0.00    +0.000 N 
ATOM     18  C   UNL     1      49.691 243.961 329.882  0.00  0.00    +0.000 C 
ATOM     19  H   UNL     1      48.442 243.199 331.303  0.00  0.00    +0.000 HD
ATOM     20  O   UNL     1      49.129 243.364 328.968  0.00  0.00    +0.000 OA
ENDBRANCH   3  12
TORSDOF 1
ENDMDL
MODEL 4
REMARK VINA RESULT:      -5.1     13.194     14.728
REMARK  Name = Thalidomide.pdbqt.pdb
REMARK  1 active torsions:
REMARK  status: ('A' for Active; 'I' for Inactive)
REMARK    1  A    between atoms: N_3  and  C_12
REMARK                            x       y       z     vdW  Elec       q    Type
REMARK                         _______ _______ _______ _____ _____    ______ ____
ROOT
ATOM      1  O   UNL     1      75.236 223.635 339.425  0.00  0.00    +0.000 OA
ATOM      2  O   UNL     1      71.514 223.760 336.724  0.00  0.00    +0.000 OA
ATOM      3  N   UNL     1      73.675 223.753 337.665  0.00  0.00    +0.000 N 
ATOM      4  C   UNL     1      74.147 223.439 338.919  0.00  0.00    +0.000 C 
ATOM      5  C   UNL     1      72.339 223.431 337.555  0.00  0.00    +0.000 C 
ATOM      6  C   UNL     1      73.066 222.753 339.619  0.00  0.00    +0.000 A 
ATOM      7  C   UNL     1      71.972 222.731 338.780  0.00  0.00    +0.000 A 
ATOM      8  C   UNL     1      73.032 222.213 340.887  0.00  0.00    +0.000 A 
ATOM      9  C   UNL     1      70.766 222.180 339.159  0.00  0.00    +0.000 A 
ATOM     10  C   UNL     1      71.827 221.634 341.289  0.00  0.00    +0.000 A 
ATOM     11  C   UNL     1      70.708 221.618 340.437  0.00  0.00    +0.000 A 
ENDROOT
BRANCH   3  12
ATOM     12  C   UNL     1      74.395 224.414 336.700  0.00  0.00    +0.000 C 
ATOM     13  C   UNL     1      75.096 223.751 335.669  0.00  0.00    +0.000 C 
ATOM     14  C   UNL     1      76.007 224.479 334.729  0.00  0.00    +0.000 C 
ATOM     15  C   UNL     1      76.185 225.900 334.784  0.00  0.00    +0.000 C 
ATOM     16  O   UNL     1      76.868 226.500 333.972  0.00  0.00    +0.000 OA
ATOM     17  N   UNL     1      75.457 226.499 335.810  0.00  0.00    +0.000 N 
ATOM     18  C   UNL     1      74.473 225.936 336.635  0.00  0.00    +0.000 C 
ATOM     19  H   UNL     1      75.457 227.508 335.786  0.00  0.00    +0.000 HD
ATOM     20  O   UNL     1      73.634 226.657 337.167  0.00  0.00    +0.000 OA
ENDBRANCH   3  12
TORSDOF 1
ENDMDL
MODEL 5
REMARK VINA RESULT:      -5.1     12.502     15.064
REMARK  Name = Thalidomide.pdbqt.pdb
REMARK  1 active torsions:
REMARK  status: ('A' for Active; 'I' for Inactive)
REMARK    1  A    between atoms: N_3  and  C_12
REMARK                            x       y       z     vdW  Elec       q    Type
REMARK                         _______ _______ _______ _____ _____    ______ ____
ROOT
ATOM      1  O   UNL     1      73.677 223.926 340.704  0.00  0.00    +0.000 OA
ATOM      2  O   UNL     1      73.147 224.134 336.139  0.00  0.00    +0.000 OA
ATOM      3  N   UNL     1      73.917 224.083 338.365  0.00  0.00    +0.000 N 
ATOM      4  C   UNL     1      73.312 223.752 339.556  0.00  0.00    +0.000 C 
ATOM      5  C   UNL     1      73.092 223.785 337.303  0.00  0.00    +0.000 C 
ATOM      6  C   UNL     1      72.062 223.079 339.223  0.00  0.00    +0.000 A 
ATOM      7  C   UNL     1      71.938 223.082 337.849  0.00  0.00    +0.000 A 
ATOM      8  C   UNL     1      71.102 222.530 340.047  0.00  0.00    +0.000 A 
ATOM      9  C   UNL     1      70.839 222.548 337.209  0.00  0.00    +0.000 A 
ATOM     10  C   UNL     1      69.987 221.969 339.421  0.00  0.00    +0.000 A 
ATOM     11  C   UNL     1      69.856 221.978 338.021  0.00  0.00    +0.000 A 
ENDROOT
BRANCH   3  12
ATOM     12  C   UNL     1      75.118 224.739 338.254  0.00  0.00    +0.000 C 
ATOM     13  C   UNL     1      76.356 224.070 338.128  0.00  0.00    +0.000 C 
ATOM     14  C   UNL     1      77.664 224.799 338.175  0.00  0.00    +0.000 C 
ATOM     15  C   UNL     1      77.741 226.224 338.299  0.00  0.00    +0.000 C 
ATOM     16  O   UNL     1      78.803 226.823 338.261  0.00  0.00    +0.000 OA
ATOM     17  N   UNL     1      76.490 226.829 338.403  0.00  0.00    +0.000 N 
ATOM     18  C   UNL     1      75.221 226.261 338.220  0.00  0.00    +0.000 C 
ATOM     19  H   UNL     1      76.509 227.837 338.354  0.00  0.00    +0.000 HD
ATOM     20  O   UNL     1      74.270 226.974 337.914  0.00  0.00    +0.000 OA
ENDBRANCH   3  12
TORSDOF 1
ENDMDL
MODEL 6
REMARK VINA RESULT:      -5.0     23.323     25.164
REMARK  Name = Thalidomide.pdbqt.pdb
REMARK  1 active torsions:
REMARK  status: ('A' for Active; 'I' for Inactive)
REMARK    1  A    between atoms: N_3  and  C_12
REMARK                            x       y       z     vdW  Elec       q    Type
REMARK                         _______ _______ _______ _____ _____    ______ ____
ROOT
ATOM      1  O   UNL     1      52.339 246.628 328.557  0.00  0.00    +0.000 OA
ATOM      2  O   UNL     1      49.611 242.929 328.353  0.00  0.00    +0.000 OA
ATOM      3  N   UNL     1      51.272 244.580 328.089  0.00  0.00    +0.000 N 
ATOM      4  C   UNL     1      51.610 245.692 328.827  0.00  0.00    +0.000 C 
ATOM      5  C   UNL     1      50.329 243.826 328.753  0.00  0.00    +0.000 C 
ATOM      6  C   UNL     1      50.924 245.574 330.108  0.00  0.00    +0.000 A 
ATOM      7  C   UNL     1      50.159 244.427 330.071  0.00  0.00    +0.000 A 
ATOM      8  C   UNL     1      50.947 246.407 331.208  0.00  0.00    +0.000 A 
ATOM      9  C   UNL     1      49.356 244.044 331.124  0.00  0.00    +0.000 A 
ATOM     10  C   UNL     1      50.154 246.032 332.294  0.00  0.00    +0.000 A 
ATOM     11  C   UNL     1      49.368 244.866 332.253  0.00  0.00    +0.000 A 
ENDROOT
BRANCH   3  12
ATOM     12  C   UNL     1      51.713 244.324 326.814  0.00  0.00    +0.000 C 
ATOM     13  C   UNL     1      51.040 244.778 325.658  0.00  0.00    +0.000 C 
ATOM     14  C   UNL     1      51.444 244.348 324.281  0.00  0.00    +0.000 C 
ATOM     15  C   UNL     1      52.569 243.491 324.047  0.00  0.00    +0.000 C 
ATOM     16  O   UNL     1      52.942 243.204 322.922  0.00  0.00    +0.000 OA
ATOM     17  N   UNL     1      53.200 243.090 325.222  0.00  0.00    +0.000 N 
ATOM     18  C   UNL     1      52.997 243.550 326.531  0.00  0.00    +0.000 C 
ATOM     19  H   UNL     1      54.071 242.601 325.081  0.00  0.00    +0.000 HD
ATOM     20  O   UNL     1      53.891 243.439 327.365  0.00  0.00    +0.000 OA
ENDBRANCH   3  12
TORSDOF 1
ENDMDL
MODEL 7
REMARK VINA RESULT:      -4.9     27.904     29.104
REMARK  Name = Thalidomide.pdbqt.pdb
REMARK  1 active torsions:
REMARK  status: ('A' for Active; 'I' for Inactive)
REMARK    1  A    between atoms: N_3  and  C_12
REMARK                            x       y       z     vdW  Elec       q    Type
REMARK                         _______ _______ _______ _____ _____    ______ ____
ROOT
ATOM      1  O   UNL     1      55.654 243.254 350.115  0.00  0.00    +0.000 OA
ATOM      2  O   UNL     1      55.319 242.636 345.569  0.00  0.00    +0.000 OA
ATOM      3  N   UNL     1      55.081 242.642 347.913  0.00  0.00    +0.000 N 
ATOM      4  C   UNL     1      55.647 243.407 348.908  0.00  0.00    +0.000 C 
ATOM      5  C   UNL     1      55.411 243.141 346.671  0.00  0.00    +0.000 C 
ATOM      6  C   UNL     1      56.282 244.547 348.256  0.00  0.00    +0.000 A 
ATOM      7  C   UNL     1      56.120 244.395 346.895  0.00  0.00    +0.000 A 
ATOM      8  C   UNL     1      56.962 245.616 348.801  0.00  0.00    +0.000 A 
ATOM      9  C   UNL     1      56.640 245.294 345.987  0.00  0.00    +0.000 A 
ATOM     10  C   UNL     1      57.484 246.549 347.903  0.00  0.00    +0.000 A 
ATOM     11  C   UNL     1      57.326 246.390 346.515  0.00  0.00    +0.000 A 
ENDROOT
BRANCH   3  12
ATOM     12  C   UNL     1      54.393 241.472 348.122  0.00  0.00    +0.000 C 
ATOM     13  C   UNL     1      53.008 241.336 347.878  0.00  0.00    +0.000 C 
ATOM     14  C   UNL     1      52.249 240.105 348.268  0.00  0.00    +0.000 C 
ATOM     15  C   UNL     1      52.887 238.969 348.864  0.00  0.00    +0.000 C 
ATOM     16  O   UNL     1      52.281 237.940 349.111  0.00  0.00    +0.000 OA
ATOM     17  N   UNL     1      54.252 239.157 349.064  0.00  0.00    +0.000 N 
ATOM     18  C   UNL     1      55.075 240.195 348.604  0.00  0.00    +0.000 C 
ATOM     19  H   UNL     1      54.749 238.328 349.354  0.00  0.00    +0.000 HD
ATOM     20  O   UNL     1      56.282 240.011 348.477  0.00  0.00    +0.000 OA
ENDBRANCH   3  12
TORSDOF 1
ENDMDL
MODEL 8
REMARK VINA RESULT:      -4.8      3.474      5.313
REMARK  Name = Thalidomide.pdbqt.pdb
REMARK  1 active torsions:
REMARK  status: ('A' for Active; 'I' for Inactive)
REMARK    1  A    between atoms: N_3  and  C_12
REMARK                            x       y       z     vdW  Elec       q    Type
REMARK                         _______ _______ _______ _____ _____    ______ ____
ROOT
ATOM      1  O   UNL     1      60.416 224.557 324.146  0.00  0.00    +0.000 OA
ATOM      2  O   UNL     1      63.586 226.723 326.682  0.00  0.00    +0.000 OA
ATOM      3  N   UNL     1      62.092 225.207 325.670  0.00  0.00    +0.000 N 
ATOM      4  C   UNL     1      61.322 225.274 324.531  0.00  0.00    +0.000 C 
ATOM      5  C   UNL     1      62.939 226.292 325.747  0.00  0.00    +0.000 C 
ATOM      6  C   UNL     1      61.800 226.418 323.763  0.00  0.00    +0.000 A 
ATOM      7  C   UNL     1      62.798 227.026 324.495  0.00  0.00    +0.000 A 
ATOM      8  C   UNL     1      61.386 226.902 322.540  0.00  0.00    +0.000 A 
ATOM      9  C   UNL     1      63.438 228.167 324.059  0.00  0.00    +0.000 A 
ATOM     10  C   UNL     1      62.030 228.048 322.069  0.00  0.00    +0.000 A 
ATOM     11  C   UNL     1      63.043 228.673 322.819  0.00  0.00    +0.000 A 
ENDROOT
BRANCH   3  12
ATOM     12  C   UNL     1      61.947 224.265 326.658  0.00  0.00    +0.000 C 
ATOM     13  C   UNL     1      62.899 223.252 326.906  0.00  0.00    +0.000 C 
ATOM     14  C   UNL     1      62.644 222.139 327.875  0.00  0.00    +0.000 C 
ATOM     15  C   UNL     1      61.441 222.060 328.649  0.00  0.00    +0.000 C 
ATOM     16  O   UNL     1      61.268 221.195 329.492  0.00  0.00    +0.000 OA
ATOM     17  N   UNL     1      60.549 223.093 328.373  0.00  0.00    +0.000 N 
ATOM     18  C   UNL     1      60.753 224.250 327.607  0.00  0.00    +0.000 C 
ATOM     19  H   UNL     1      59.758 223.139 328.998  0.00  0.00    +0.000 HD
ATOM     20  O   UNL     1      60.064 225.246 327.808  0.00  0.00    +0.000 OA
ENDBRANCH   3  12
TORSDOF 1
ENDMDL
MODEL 9
REMARK VINA RESULT:      -4.8     19.350     20.971
REMARK  Name = Thalidomide.pdbqt.pdb
REMARK  1 active torsions:
REMARK  status: ('A' for Active; 'I' for Inactive)
REMARK    1  A    between atoms: N_3  and  C_12
REMARK                            x       y       z     vdW  Elec       q    Type
REMARK                         _______ _______ _______ _____ _____    ______ ____
ROOT
ATOM      1  O   UNL     1      45.396 235.138 324.208  0.00  0.00    +0.000 OA
ATOM      2  O   UNL     1      49.884 235.331 323.217  0.00  0.00    +0.000 OA
ATOM      3  N   UNL     1      47.554 234.984 323.275  0.00  0.00    +0.000 N 
ATOM      4  C   UNL     1      46.554 235.487 324.076  0.00  0.00    +0.000 C 
ATOM      5  C   UNL     1      48.746 235.630 323.525  0.00  0.00    +0.000 C 
ATOM      6  C   UNL     1      47.120 236.620 324.799  0.00  0.00    +0.000 A 
ATOM      7  C   UNL     1      48.450 236.719 324.448  0.00  0.00    +0.000 A 
ATOM      8  C   UNL     1      46.533 237.480 325.704  0.00  0.00    +0.000 A 
ATOM      9  C   UNL     1      49.285 237.674 324.989  0.00  0.00    +0.000 A 
ATOM     10  C   UNL     1      47.354 238.466 326.253  0.00  0.00    +0.000 A 
ATOM     11  C   UNL     1      48.711 238.562 325.901  0.00  0.00    +0.000 A 
ENDROOT
BRANCH   3  12
ATOM     12  C   UNL     1      47.418 233.903 322.440  0.00  0.00    +0.000 C 
ATOM     13  C   UNL     1      47.653 232.572 322.853  0.00  0.00    +0.000 C 
ATOM     14  C   UNL     1      47.660 231.428 321.886  0.00  0.00    +0.000 C 
ATOM     15  C   UNL     1      47.378 231.603 320.492  0.00  0.00    +0.000 C 
ATOM     16  O   UNL     1      47.310 230.660 319.721  0.00  0.00    +0.000 OA
ATOM     17  N   UNL     1      47.138 232.931 320.149  0.00  0.00    +0.000 N 
ATOM     18  C   UNL     1      46.961 234.039 320.991  0.00  0.00    +0.000 C 
ATOM     19  H   UNL     1      46.805 233.065 319.206  0.00  0.00    +0.000 HD
ATOM     20  O   UNL     1      46.340 235.019 320.590  0.00  0.00    +0.000 OA
ENDBRANCH   3  12
TORSDOF 1
ENDMDL
