MODEL 1
REMARK VINA RESULT:      -6.2      0.000      0.000
REMARK  Name = Thapsigargin.pdbqt.pdb
REMARK  10 active torsions:
REMARK  status: ('A' for Active; 'I' for Inactive)
REMARK    1  A    between atoms: O_2  and  C_24
REMARK    2  A    between atoms: C_17  and  O_43
REMARK    3  A    between atoms: C_19  and  C_24
REMARK    4  A    between atoms: C_19  and  O_47
REMARK    5  A    between atoms: C_27  and  C_35
REMARK    6  A    between atoms: C_35  and  C_36
REMARK    7  A    between atoms: C_37  and  C_38
REMARK    8  A    between atoms: C_39  and  C_40
REMARK    9  A    between atoms: C_42  and  O_43
REMARK   10  A    between atoms: C_42  and  C_44
REMARK                            x       y       z     vdW  Elec       q    Type
REMARK                         _______ _______ _______ _____ _____    ______ ____
ROOT
ATOM      1  O   UNL     1      70.225 218.900 341.645  0.00  0.00    +0.000 OA
ATOM      2  O   UNL     1      70.524 222.370 336.688  0.00  0.00    +0.000 OA
ATOM      3  O   UNL     1      72.828 221.261 336.760  0.00  0.00    +0.000 OA
ATOM      4  O   UNL     1      72.548 223.414 340.326  0.00  0.00    +0.000 OA
ATOM      5  O   UNL     1      69.644 216.960 342.705  0.00  0.00    +0.000 OA
ATOM      6  O   UNL     1      71.848 220.408 336.065  0.00  0.00    +0.000 OA
ATOM      7  O   UNL     1      74.385 223.067 336.204  0.00  0.00    +0.000 OA
ATOM      8  O   UNL     1      73.483 221.695 341.867  0.00  0.00    +0.000 OA
ATOM      9  C   UNL     1      69.709 221.762 339.015  0.00  0.00    +0.000 C 
ATOM     10  C   UNL     1      68.725 218.788 339.875  0.00  0.00    +0.000 C 
ATOM     11  C   UNL     1      69.727 219.570 340.535  0.00  0.00    +0.000 C 
ATOM     12  C   UNL     1      68.649 221.438 338.018  0.00  0.00    +0.000 C 
ATOM     13  C   UNL     1      70.122 220.811 340.176  0.00  0.00    +0.000 C 
ATOM     14  C   UNL     1      68.078 219.334 338.898  0.00  0.00    +0.000 C 
ATOM     15  C   UNL     1      67.800 220.393 338.008  0.00  0.00    +0.000 C 
ATOM     16  C   UNL     1      70.304 223.031 339.368  0.00  0.00    +0.000 C 
ATOM     17  C   UNL     1      68.559 217.505 340.581  0.00  0.00    +0.000 C 
ATOM     18  C   UNL     1      71.284 222.818 340.359  0.00  0.00    +0.000 C 
ATOM     19  C   UNL     1      71.101 221.606 340.925  0.00  0.00    +0.000 C 
ATOM     20  C   UNL     1      70.068 221.372 337.622  0.00  0.00    +0.000 C 
ATOM     21  C   UNL     1      69.522 217.723 341.751  0.00  0.00    +0.000 C 
ATOM     22  C   UNL     1      72.247 221.258 341.652  0.00  0.00    +0.000 C 
ATOM     23  C   UNL     1      70.536 221.008 336.237  0.00  0.00    +0.000 C 
ATOM     24  C   UNL     1      73.517 222.049 335.831  0.00  0.00    +0.000 C 
ATOM     25  C   UNL     1      73.662 222.626 340.801  0.00  0.00    +0.000 C 
ATOM     26  C   UNL     1      69.579 220.756 335.064  0.00  0.00    +0.000 C 
ATOM     27  C   UNL     1      74.794 222.584 340.068  0.00  0.00    +0.000 C 
ATOM     28  C   UNL     1      75.980 221.745 340.486  0.00  0.00    +0.000 C 
ATOM     29  C   UNL     1      74.777 222.992 338.704  0.00  0.00    +0.000 C 
ATOM     30  C   UNL     1      74.618 223.079 337.516  0.00  0.00    +0.000 C 
ENDROOT
BRANCH  17  31
ATOM     31  O   UNL     1      67.216 217.327 340.995  0.00  0.00    +0.000 OA
ATOM     32  H   UNL     1      66.963 218.163 341.430  0.00  0.00    +0.000 HD
ENDBRANCH  17  31
BRANCH  17  33
ATOM     33  C   UNL     1      68.968 216.379 339.721  0.00  0.00    +0.000 C 
BRANCH  33  34
ATOM     34  O   UNL     1      69.350 215.378 338.930  0.00  0.00    +0.000 OA
ATOM     35  H   UNL     1      69.922 214.750 339.410  0.00  0.00    +0.000 HD
ENDBRANCH  33  34
ENDBRANCH  17  33
BRANCH  24  36
ATOM     36  C   UNL     1      73.240 221.999 334.562  0.00  0.00    +0.000 C 
BRANCH  36  37
ATOM     37  C   UNL     1      72.895 221.986 333.070  0.00  0.00    +0.000 C 
ATOM     38  C   UNL     1      72.590 221.986 331.909  0.00  0.00    +0.000 C 
BRANCH  38  39
ATOM     39  C   UNL     1      72.176 221.997 330.434  0.00  0.00    +0.000 C 
ATOM     40  C   UNL     1      71.838 222.009 329.282  0.00  0.00    +0.000 C 
BRANCH  40  41
ATOM     41  C   UNL     1      71.400 222.029 327.814  0.00  0.00    +0.000 C 
ATOM     42  C   UNL     1      71.022 222.048 326.537  0.00  0.00    +0.000 C 
ENDBRANCH  40  41
ENDBRANCH  38  39
ENDBRANCH  36  37
ENDBRANCH  24  36
BRANCH  15  43
ATOM     43  O   UNL     1      66.560 220.486 337.367  0.00  0.00    +0.000 OA
BRANCH  43  45
ATOM     44  O   UNL     1      66.062 218.257 336.909  0.00  0.00    +0.000 OA
ATOM     45  C   UNL     1      66.261 219.415 336.570  0.00  0.00    +0.000 C 
BRANCH  45  46
ATOM     46  C   UNL     1      66.201 219.785 335.189  0.00  0.00    +0.000 C 
ATOM     47  C   UNL     1      66.146 220.091 334.033  0.00  0.00    +0.000 C 
ATOM     48  C   UNL     1      66.090 220.486 332.555  0.00  0.00    +0.000 C 
ENDBRANCH  45  46
ENDBRANCH  43  45
ENDBRANCH  15  43
TORSDOF 10
ENDMDL
MODEL 2
REMARK VINA RESULT:      -6.1     21.209     23.742
REMARK  Name = Thapsigargin.pdbqt.pdb
REMARK  10 active torsions:
REMARK  status: ('A' for Active; 'I' for Inactive)
REMARK    1  A    between atoms: O_2  and  C_24
REMARK    2  A    between atoms: C_17  and  O_43
REMARK    3  A    between atoms: C_19  and  C_24
REMARK    4  A    between atoms: C_19  and  O_47
REMARK    5  A    between atoms: C_27  and  C_35
REMARK    6  A    between atoms: C_35  and  C_36
REMARK    7  A    between atoms: C_37  and  C_38
REMARK    8  A    between atoms: C_39  and  C_40
REMARK    9  A    between atoms: C_42  and  O_43
REMARK   10  A    between atoms: C_42  and  C_44
REMARK                            x       y       z     vdW  Elec       q    Type
REMARK                         _______ _______ _______ _____ _____    ______ ____
ROOT
ATOM      1  O   UNL     1      66.110 246.461 335.165  0.00  0.00    +0.000 OA
ATOM      2  O   UNL     1      66.806 241.330 332.021  0.00  0.00    +0.000 OA
ATOM      3  O   UNL     1      68.233 243.007 330.719  0.00  0.00    +0.000 OA
ATOM      4  O   UNL     1      64.359 244.559 330.602  0.00  0.00    +0.000 OA
ATOM      5  O   UNL     1      66.675 247.850 336.891  0.00  0.00    +0.000 OA
ATOM      6  O   UNL     1      68.999 242.399 331.821  0.00  0.00    +0.000 OA
ATOM      7  O   UNL     1      67.733 242.530 328.370  0.00  0.00    +0.000 OA
ATOM      8  O   UNL     1      64.905 246.943 331.069  0.00  0.00    +0.000 OA
ATOM      9  C   UNL     1      65.546 242.948 333.519  0.00  0.00    +0.000 C 
ATOM     10  C   UNL     1      66.864 244.460 336.074  0.00  0.00    +0.000 C 
ATOM     11  C   UNL     1      66.179 245.086 334.983  0.00  0.00    +0.000 C 
ATOM     12  C   UNL     1      66.096 241.834 334.343  0.00  0.00    +0.000 C 
ATOM     13  C   UNL     1      65.623 244.447 333.930  0.00  0.00    +0.000 C 
ATOM     14  C   UNL     1      66.895 243.169 336.107  0.00  0.00    +0.000 C 
ATOM     15  C   UNL     1      66.609 241.888 335.587  0.00  0.00    +0.000 C 
ATOM     16  C   UNL     1      64.582 242.926 332.442  0.00  0.00    +0.000 C 
ATOM     17  C   UNL     1      67.299 245.489 337.036  0.00  0.00    +0.000 C 
ATOM     18  C   UNL     1      64.399 244.239 331.963  0.00  0.00    +0.000 C 
ATOM     19  C   UNL     1      64.866 245.122 332.871  0.00  0.00    +0.000 C 
ATOM     20  C   UNL     1      66.806 242.259 333.122  0.00  0.00    +0.000 C 
ATOM     21  C   UNL     1      66.688 246.732 336.384  0.00  0.00    +0.000 C 
ATOM     22  C   UNL     1      64.994 246.380 332.268  0.00  0.00    +0.000 C 
ATOM     23  C   UNL     1      68.075 241.616 332.625  0.00  0.00    +0.000 C 
ATOM     24  C   UNL     1      68.449 242.290 329.537  0.00  0.00    +0.000 C 
ATOM     25  C   UNL     1      64.954 245.812 330.201  0.00  0.00    +0.000 C 
ATOM     26  C   UNL     1      68.714 240.389 333.288  0.00  0.00    +0.000 C 
ATOM     27  C   UNL     1      65.775 245.834 329.130  0.00  0.00    +0.000 C 
ATOM     28  C   UNL     1      66.465 247.104 328.684  0.00  0.00    +0.000 C 
ATOM     29  C   UNL     1      66.332 244.622 328.633  0.00  0.00    +0.000 C 
ATOM     30  C   UNL     1      66.969 243.617 328.459  0.00  0.00    +0.000 C 
ENDROOT
BRANCH  17  31
ATOM     31  O   UNL     1      66.775 245.226 338.326  0.00  0.00    +0.000 OA
ATOM     32  H   UNL     1      66.834 244.259 338.440  0.00  0.00    +0.000 HD
ENDBRANCH  17  31
BRANCH  17  33
ATOM     33  C   UNL     1      68.770 245.556 337.100  0.00  0.00    +0.000 C 
BRANCH  33  34
ATOM     34  O   UNL     1      70.101 245.609 337.135  0.00  0.00    +0.000 OA
ATOM     35  H   UNL     1      70.478 245.554 336.236  0.00  0.00    +0.000 HD
ENDBRANCH  33  34
ENDBRANCH  17  33
BRANCH  24  36
ATOM     36  C   UNL     1      69.201 241.231 329.513  0.00  0.00    +0.000 C 
BRANCH  36  37
ATOM     37  C   UNL     1      70.047 239.954 329.475  0.00  0.00    +0.000 C 
ATOM     38  C   UNL     1      70.728 238.966 329.473  0.00  0.00    +0.000 C 
BRANCH  38  39
ATOM     39  C   UNL     1      71.611 237.714 329.493  0.00  0.00    +0.000 C 
ATOM     40  C   UNL     1      72.304 236.734 329.495  0.00  0.00    +0.000 C 
BRANCH  40  41
ATOM     41  C   UNL     1      73.189 235.484 329.489  0.00  0.00    +0.000 C 
ATOM     42  C   UNL     1      73.961 234.398 329.481  0.00  0.00    +0.000 C 
ENDBRANCH  40  41
ENDBRANCH  38  39
ENDBRANCH  36  37
ENDBRANCH  24  36
BRANCH  15  43
ATOM     43  O   UNL     1      66.582 240.764 336.420  0.00  0.00    +0.000 OA
BRANCH  43  45
ATOM     44  O   UNL     1      64.389 240.188 336.950  0.00  0.00    +0.000 OA
ATOM     45  C   UNL     1      65.473 240.685 337.217  0.00  0.00    +0.000 C 
BRANCH  45  46
ATOM     46  C   UNL     1      65.698 241.289 338.496  0.00  0.00    +0.000 C 
ATOM     47  C   UNL     1      65.889 241.797 339.562  0.00  0.00    +0.000 C 
ATOM     48  C   UNL     1      66.128 242.435 340.933  0.00  0.00    +0.000 C 
ENDBRANCH  45  46
ENDBRANCH  43  45
ENDBRANCH  15  43
TORSDOF 10
ENDMDL
MODEL 3
REMARK VINA RESULT:      -5.9      3.036     10.199
REMARK  Name = Thapsigargin.pdbqt.pdb
REMARK  10 active torsions:
REMARK  status: ('A' for Active; 'I' for Inactive)
REMARK    1  A    between atoms: O_2  and  C_24
REMARK    2  A    between atoms: C_17  and  O_43
REMARK    3  A    between atoms: C_19  and  C_24
REMARK    4  A    between atoms: C_19  and  O_47
REMARK    5  A    between atoms: C_27  and  C_35
REMARK    6  A    between atoms: C_35  and  C_36
REMARK    7  A    between atoms: C_37  and  C_38
REMARK    8  A    between atoms: C_39  and  C_40
REMARK    9  A    between atoms: C_42  and  O_43
REMARK   10  A    between atoms: C_42  and  C_44
REMARK                            x       y       z     vdW  Elec       q    Type
REMARK                         _______ _______ _______ _____ _____    ______ ____
ROOT
ATOM      1  O   UNL     1      70.193 219.502 333.185  0.00  0.00    +0.000 OA
ATOM      2  O   UNL     1      66.221 219.140 337.745  0.00  0.00    +0.000 OA
ATOM      3  O   UNL     1      66.669 216.688 337.170  0.00  0.00    +0.000 OA
ATOM      4  O   UNL     1      65.099 218.353 333.677  0.00  0.00    +0.000 OA
ATOM      5  O   UNL     1      72.327 219.715 332.395  0.00  0.00    +0.000 OA
ATOM      6  O   UNL     1      67.668 217.203 338.123  0.00  0.00    +0.000 OA
ATOM      7  O   UNL     1      64.459 215.637 337.241  0.00  0.00    +0.000 OA
ATOM      8  O   UNL     1      66.670 217.323 332.042  0.00  0.00    +0.000 OA
ATOM      9  C   UNL     1      67.292 220.233 335.718  0.00  0.00    +0.000 C 
ATOM     10  C   UNL     1      70.499 220.480 335.270  0.00  0.00    +0.000 C 
ATOM     11  C   UNL     1      69.558 219.916 334.349  0.00  0.00    +0.000 C 
ATOM     12  C   UNL     1      67.770 220.910 336.958  0.00  0.00    +0.000 C 
ATOM     13  C   UNL     1      68.224 219.829 334.540  0.00  0.00    +0.000 C 
ATOM     14  C   UNL     1      70.038 221.026 336.347  0.00  0.00    +0.000 C 
ATOM     15  C   UNL     1      68.997 221.396 337.225  0.00  0.00    +0.000 C 
ATOM     16  C   UNL     1      65.959 220.123 335.169  0.00  0.00    +0.000 C 
ATOM     17  C   UNL     1      71.853 220.418 334.689  0.00  0.00    +0.000 C 
ATOM     18  C   UNL     1      66.014 219.366 333.982  0.00  0.00    +0.000 C 
ATOM     19  C   UNL     1      67.287 219.310 333.538  0.00  0.00    +0.000 C 
ATOM     20  C   UNL     1      67.406 219.481 337.000  0.00  0.00    +0.000 C 
ATOM     21  C   UNL     1      71.521 219.840 333.312  0.00  0.00    +0.000 C 
ATOM     22  C   UNL     1      67.396 218.301 332.571  0.00  0.00    +0.000 C 
ATOM     23  C   UNL     1      67.467 218.637 338.246  0.00  0.00    +0.000 C 
ATOM     24  C   UNL     1      65.623 216.071 337.864  0.00  0.00    +0.000 C 
ATOM     25  C   UNL     1      65.608 217.191 332.985  0.00  0.00    +0.000 C 
ATOM     26  C   UNL     1      67.830 219.199 339.627  0.00  0.00    +0.000 C 
ATOM     27  C   UNL     1      65.258 215.963 333.422  0.00  0.00    +0.000 C 
ATOM     28  C   UNL     1      65.790 214.707 332.771  0.00  0.00    +0.000 C 
ATOM     29  C   UNL     1      64.715 215.798 334.728  0.00  0.00    +0.000 C 
ATOM     30  C   UNL     1      64.536 215.712 335.914  0.00  0.00    +0.000 C 
ENDROOT
BRANCH  17  31
ATOM     31  O   UNL     1      72.432 221.710 334.623  0.00  0.00    +0.000 OA
ATOM     32  H   UNL     1      73.268 221.648 335.123  0.00  0.00    +0.000 HD
ENDBRANCH  17  31
BRANCH  17  33
ATOM     33  C   UNL     1      72.719 219.524 335.478  0.00  0.00    +0.000 C 
BRANCH  33  34
ATOM     34  O   UNL     1      73.510 218.705 336.170  0.00  0.00    +0.000 OA
ATOM     35  H   UNL     1      73.027 218.295 336.913  0.00  0.00    +0.000 HD
ENDBRANCH  33  34
ENDBRANCH  17  33
BRANCH  24  36
ATOM     36  C   UNL     1      65.598 216.036 339.163  0.00  0.00    +0.000 C 
BRANCH  36  37
ATOM     37  C   UNL     1      65.535 216.033 340.693  0.00  0.00    +0.000 C 
ATOM     38  C   UNL     1      65.501 216.064 341.893  0.00  0.00    +0.000 C 
BRANCH  38  39
ATOM     39  C   UNL     1      65.467 216.130 343.423  0.00  0.00    +0.000 C 
ATOM     40  C   UNL     1      65.455 216.176 344.623  0.00  0.00    +0.000 C 
BRANCH  40  41
ATOM     41  C   UNL     1      65.447 216.235 346.153  0.00  0.00    +0.000 C 
ATOM     42  C   UNL     1      65.437 216.284 347.485  0.00  0.00    +0.000 C 
ENDBRANCH  40  41
ENDBRANCH  38  39
ENDBRANCH  36  37
ENDBRANCH  24  36
BRANCH  15  43
ATOM     43  O   UNL     1      69.168 222.439 338.143  0.00  0.00    +0.000 OA
BRANCH  43  45
ATOM     44  O   UNL     1      71.388 223.144 338.130  0.00  0.00    +0.000 OA
ATOM     45  C   UNL     1      70.441 222.552 338.629  0.00  0.00    +0.000 C 
BRANCH  45  46
ATOM     46  C   UNL     1      70.596 221.857 339.871  0.00  0.00    +0.000 C 
ATOM     47  C   UNL     1      70.719 221.276 340.910  0.00  0.00    +0.000 C 
ATOM     48  C   UNL     1      70.891 220.537 342.239  0.00  0.00    +0.000 C 
ENDBRANCH  45  46
ENDBRANCH  43  45
ENDBRANCH  15  43
TORSDOF 10
ENDMDL
MODEL 4
REMARK VINA RESULT:      -5.9     16.995     20.052
REMARK  Name = Thapsigargin.pdbqt.pdb
REMARK  10 active torsions:
REMARK  status: ('A' for Active; 'I' for Inactive)
REMARK    1  A    between atoms: O_2  and  C_24
REMARK    2  A    between atoms: C_17  and  O_43
REMARK    3  A    between atoms: C_19  and  C_24
REMARK    4  A    between atoms: C_19  and  O_47
REMARK    5  A    between atoms: C_27  and  C_35
REMARK    6  A    between atoms: C_35  and  C_36
REMARK    7  A    between atoms: C_37  and  C_38
REMARK    8  A    between atoms: C_39  and  C_40
REMARK    9  A    between atoms: C_42  and  O_43
REMARK   10  A    between atoms: C_42  and  C_44
REMARK                            x       y       z     vdW  Elec       q    Type
REMARK                         _______ _______ _______ _____ _____    ______ ____
ROOT
ATOM      1  O   UNL     1      65.375 242.077 342.394  0.00  0.00    +0.000 OA
ATOM      2  O   UNL     1      68.589 237.610 339.861  0.00  0.00    +0.000 OA
ATOM      3  O   UNL     1      69.772 239.720 339.030  0.00  0.00    +0.000 OA
ATOM      4  O   UNL     1      65.865 240.029 337.591  0.00  0.00    +0.000 OA
ATOM      5  O   UNL     1      64.896 243.458 344.152  0.00  0.00    +0.000 OA
ATOM      6  O   UNL     1      70.289 239.304 340.345  0.00  0.00    +0.000 OA
ATOM      7  O   UNL     1      70.230 239.265 336.668  0.00  0.00    +0.000 OA
ATOM      8  O   UNL     1      65.471 242.432 338.113  0.00  0.00    +0.000 OA
ATOM      9  C   UNL     1      66.480 238.671 340.798  0.00  0.00    +0.000 C 
ATOM     10  C   UNL     1      66.371 240.345 343.580  0.00  0.00    +0.000 C 
ATOM     11  C   UNL     1      65.918 240.802 342.300  0.00  0.00    +0.000 C 
ATOM     12  C   UNL     1      67.049 237.726 341.802  0.00  0.00    +0.000 C 
ATOM     13  C   UNL     1      65.956 240.093 341.151  0.00  0.00    +0.000 C 
ATOM     14  C   UNL     1      66.785 239.124 343.673  0.00  0.00    +0.000 C 
ATOM     15  C   UNL     1      67.089 237.853 343.141  0.00  0.00    +0.000 C 
ATOM     16  C   UNL     1      65.972 238.426 339.467  0.00  0.00    +0.000 C 
ATOM     17  C   UNL     1      66.133 241.393 344.588  0.00  0.00    +0.000 C 
ATOM     18  C   UNL     1      65.560 239.650 338.902  0.00  0.00    +0.000 C 
ATOM     19  C   UNL     1      65.413 240.573 339.876  0.00  0.00    +0.000 C 
ATOM     20  C   UNL     1      67.948 238.423 340.864  0.00  0.00    +0.000 C 
ATOM     21  C   UNL     1      65.416 242.432 343.723  0.00  0.00    +0.000 C 
ATOM     22  C   UNL     1      65.336 241.847 339.297  0.00  0.00    +0.000 C 
ATOM     23  C   UNL     1      69.442 238.228 340.835  0.00  0.00    +0.000 C 
ATOM     24  C   UNL     1      70.567 239.180 338.013  0.00  0.00    +0.000 C 
ATOM     25  C   UNL     1      66.142 241.426 337.355  0.00  0.00    +0.000 C 
ATOM     26  C   UNL     1      70.177 237.213 341.720  0.00  0.00    +0.000 C 
ATOM     27  C   UNL     1      67.216 241.765 336.612  0.00  0.00    +0.000 C 
ATOM     28  C   UNL     1      67.588 243.209 336.363  0.00  0.00    +0.000 C 
ATOM     29  C   UNL     1      68.248 240.813 336.373  0.00  0.00    +0.000 C 
ATOM     30  C   UNL     1      69.183 240.061 336.458  0.00  0.00    +0.000 C 
ENDROOT
BRANCH  17  31
ATOM     31  O   UNL     1      65.329 240.902 345.646  0.00  0.00    +0.000 OA
ATOM     32  H   UNL     1      65.091 239.991 345.392  0.00  0.00    +0.000 HD
ENDBRANCH  17  31
BRANCH  17  33
ATOM     33  C   UNL     1      67.409 241.899 345.127  0.00  0.00    +0.000 C 
BRANCH  33  34
ATOM     34  O   UNL     1      68.574 242.338 345.600  0.00  0.00    +0.000 OA
ATOM     35  H   UNL     1      68.924 241.738 346.285  0.00  0.00    +0.000 HD
ENDBRANCH  33  34
ENDBRANCH  17  33
BRANCH  24  36
ATOM     36  C   UNL     1      71.573 238.402 338.280  0.00  0.00    +0.000 C 
BRANCH  36  37
ATOM     37  C   UNL     1      72.727 237.451 338.614  0.00  0.00    +0.000 C 
ATOM     38  C   UNL     1      73.610 236.689 338.900  0.00  0.00    +0.000 C 
BRANCH  38  39
ATOM     39  C   UNL     1      74.719 235.704 339.282  0.00  0.00    +0.000 C 
ATOM     40  C   UNL     1      75.594 234.934 339.568  0.00  0.00    +0.000 C 
BRANCH  40  41
ATOM     41  C   UNL     1      76.715 233.953 339.926  0.00  0.00    +0.000 C 
ATOM     42  C   UNL     1      77.691 233.101 340.235  0.00  0.00    +0.000 C 
ENDBRANCH  40  41
ENDBRANCH  38  39
ENDBRANCH  36  37
ENDBRANCH  24  36
BRANCH  15  43
ATOM     43  O   UNL     1      67.142 236.723 343.965  0.00  0.00    +0.000 OA
BRANCH  43  45
ATOM     44  O   UNL     1      65.109 235.650 343.591  0.00  0.00    +0.000 OA
ATOM     45  C   UNL     1      65.915 236.224 344.309  0.00  0.00    +0.000 C 
BRANCH  45  46
ATOM     46  C   UNL     1      65.619 236.453 345.690  0.00  0.00    +0.000 C 
ATOM     47  C   UNL     1      65.368 236.639 346.846  0.00  0.00    +0.000 C 
ATOM     48  C   UNL     1      65.053 236.892 348.322  0.00  0.00    +0.000 C 
ENDBRANCH  45  46
ENDBRANCH  43  45
ENDBRANCH  15  43
TORSDOF 10
ENDMDL
MODEL 5
REMARK VINA RESULT:      -5.6     28.839     31.357
REMARK  Name = Thapsigargin.pdbqt.pdb
REMARK  10 active torsions:
REMARK  status: ('A' for Active; 'I' for Inactive)
REMARK    1  A    between atoms: O_2  and  C_24
REMARK    2  A    between atoms: C_17  and  O_43
REMARK    3  A    between atoms: C_19  and  C_24
REMARK    4  A    between atoms: C_19  and  O_47
REMARK    5  A    between atoms: C_27  and  C_35
REMARK    6  A    between atoms: C_35  and  C_36
REMARK    7  A    between atoms: C_37  and  C_38
REMARK    8  A    between atoms: C_39  and  C_40
REMARK    9  A    between atoms: C_42  and  O_43
REMARK   10  A    between atoms: C_42  and  C_44
REMARK                            x       y       z     vdW  Elec       q    Type
REMARK                         _______ _______ _______ _____ _____    ______ ____
ROOT
ATOM      1  O   UNL     1      44.221 233.218 351.195  0.00  0.00    +0.000 OA
ATOM      2  O   UNL     1      45.265 233.301 345.228  0.00  0.00    +0.000 OA
ATOM      3  O   UNL     1      42.907 232.324 345.391  0.00  0.00    +0.000 OA
ATOM      4  O   UNL     1      45.333 229.662 347.503  0.00  0.00    +0.000 OA
ATOM      5  O   UNL     1      43.556 234.236 353.130  0.00  0.00    +0.000 OA
ATOM      6  O   UNL     1      42.873 233.797 345.373  0.00  0.00    +0.000 OA
ATOM      7  O   UNL     1      42.903 230.485 343.774  0.00  0.00    +0.000 OA
ATOM      8  O   UNL     1      43.852 229.299 349.472  0.00  0.00    +0.000 OA
ATOM      9  C   UNL     1      45.939 233.143 347.671  0.00  0.00    +0.000 C 
ATOM     10  C   UNL     1      44.819 235.116 349.996  0.00  0.00    +0.000 C 
ATOM     11  C   UNL     1      44.781 233.684 350.012  0.00  0.00    +0.000 C 
ATOM     12  C   UNL     1      46.252 234.507 347.158  0.00  0.00    +0.000 C 
ATOM     13  C   UNL     1      45.261 232.872 349.046  0.00  0.00    +0.000 C 
ATOM     14  C   UNL     1      45.430 235.693 349.014  0.00  0.00    +0.000 C 
ATOM     15  C   UNL     1      46.145 235.687 347.798  0.00  0.00    +0.000 C 
ATOM     16  C   UNL     1      46.451 231.853 347.268  0.00  0.00    +0.000 C 
ATOM     17  C   UNL     1      44.225 235.638 351.240  0.00  0.00    +0.000 C 
ATOM     18  C   UNL     1      45.832 230.852 348.044  0.00  0.00    +0.000 C 
ATOM     19  C   UNL     1      45.267 231.408 349.137  0.00  0.00    +0.000 C 
ATOM     20  C   UNL     1      45.119 233.755 346.588  0.00  0.00    +0.000 C 
ATOM     21  C   UNL     1      43.947 234.321 351.970  0.00  0.00    +0.000 C 
ATOM     22  C   UNL     1      44.383 230.490 349.719  0.00  0.00    +0.000 C 
ATOM     23  C   UNL     1      44.242 234.274 345.479  0.00  0.00    +0.000 C 
ATOM     24  C   UNL     1      42.749 231.829 344.092  0.00  0.00    +0.000 C 
ATOM     25  C   UNL     1      44.120 229.132 348.080  0.00  0.00    +0.000 C 
ATOM     26  C   UNL     1      44.491 235.607 344.761  0.00  0.00    +0.000 C 
ATOM     27  C   UNL     1      43.132 228.716 347.260  0.00  0.00    +0.000 C 
ATOM     28  C   UNL     1      41.820 228.192 347.799  0.00  0.00    +0.000 C 
ATOM     29  C   UNL     1      43.121 229.118 345.894  0.00  0.00    +0.000 C 
ATOM     30  C   UNL     1      43.033 229.720 344.857  0.00  0.00    +0.000 C 
ENDROOT
BRANCH  17  31
ATOM     31  O   UNL     1      45.145 236.469 351.928  0.00  0.00    +0.000 OA
ATOM     32  H   UNL     1      44.676 236.772 352.728  0.00  0.00    +0.000 HD
ENDBRANCH  17  31
BRANCH  17  33
ATOM     33  C   UNL     1      42.991 236.391 350.954  0.00  0.00    +0.000 C 
BRANCH  33  34
ATOM     34  O   UNL     1      41.867 237.053 350.683  0.00  0.00    +0.000 OA
ATOM     35  H   UNL     1      41.412 237.323 351.503  0.00  0.00    +0.000 HD
ENDBRANCH  33  34
ENDBRANCH  17  33
BRANCH  24  36
ATOM     36  C   UNL     1      42.633 232.625 343.072  0.00  0.00    +0.000 C 
BRANCH  36  37
ATOM     37  C   UNL     1      42.548 233.567 341.866  0.00  0.00    +0.000 C 
ATOM     38  C   UNL     1      42.517 234.306 340.921  0.00  0.00    +0.000 C 
BRANCH  38  39
ATOM     39  C   UNL     1      42.506 235.246 339.711  0.00  0.00    +0.000 C 
ATOM     40  C   UNL     1      42.507 235.991 338.770  0.00  0.00    +0.000 C 
BRANCH  40  41
ATOM     41  C   UNL     1      42.516 236.945 337.572  0.00  0.00    +0.000 C 
ATOM     42  C   UNL     1      42.527 237.775 336.529  0.00  0.00    +0.000 C 
ENDBRANCH  40  41
ENDBRANCH  38  39
ENDBRANCH  36  37
ENDBRANCH  24  36
BRANCH  15  43
ATOM     43  O   UNL     1      46.944 236.775 347.428  0.00  0.00    +0.000 OA
BRANCH  43  45
ATOM     44  O   UNL     1      45.526 238.540 347.976  0.00  0.00    +0.000 OA
ATOM     45  C   UNL     1      46.245 237.928 347.198  0.00  0.00    +0.000 C 
BRANCH  45  46
ATOM     46  C   UNL     1      46.432 238.402 345.861  0.00  0.00    +0.000 C 
ATOM     47  C   UNL     1      46.583 238.801 344.743  0.00  0.00    +0.000 C 
ATOM     48  C   UNL     1      46.786 239.300 343.310  0.00  0.00    +0.000 C 
ENDBRANCH  45  46
ENDBRANCH  43  45
ENDBRANCH  15  43
TORSDOF 10
ENDMDL
MODEL 6
REMARK VINA RESULT:      -5.5     31.225     33.691
REMARK  Name = Thapsigargin.pdbqt.pdb
REMARK  10 active torsions:
REMARK  status: ('A' for Active; 'I' for Inactive)
REMARK    1  A    between atoms: O_2  and  C_24
REMARK    2  A    between atoms: C_17  and  O_43
REMARK    3  A    between atoms: C_19  and  C_24
REMARK    4  A    between atoms: C_19  and  O_47
REMARK    5  A    between atoms: C_27  and  C_35
REMARK    6  A    between atoms: C_35  and  C_36
REMARK    7  A    between atoms: C_37  and  C_38
REMARK    8  A    between atoms: C_39  and  C_40
REMARK    9  A    between atoms: C_42  and  O_43
REMARK   10  A    between atoms: C_42  and  C_44
REMARK                            x       y       z     vdW  Elec       q    Type
REMARK                         _______ _______ _______ _____ _____    ______ ____
ROOT
ATOM      1  O   UNL     1      53.085 247.482 323.243  0.00  0.00    +0.000 OA
ATOM      2  O   UNL     1      51.412 242.094 325.449  0.00  0.00    +0.000 OA
ATOM      3  O   UNL     1      49.496 243.632 326.161  0.00  0.00    +0.000 OA
ATOM      4  O   UNL     1      52.901 245.228 327.975  0.00  0.00    +0.000 OA
ATOM      5  O   UNL     1      53.210 249.003 321.541  0.00  0.00    +0.000 OA
ATOM      6  O   UNL     1      49.280 243.108 324.801  0.00  0.00    +0.000 OA
ATOM      7  O   UNL     1      49.011 242.966 328.467  0.00  0.00    +0.000 OA
ATOM      8  O   UNL     1      52.479 247.635 327.495  0.00  0.00    +0.000 OA
ATOM      9  C   UNL     1      53.094 243.852 324.723  0.00  0.00    +0.000 C 
ATOM     10  C   UNL     1      52.868 245.554 321.966  0.00  0.00    +0.000 C 
ATOM     11  C   UNL     1      53.014 246.096 323.283  0.00  0.00    +0.000 C 
ATOM     12  C   UNL     1      52.986 242.803 323.669  0.00  0.00    +0.000 C 
ATOM     13  C   UNL     1      53.120 245.378 324.423  0.00  0.00    +0.000 C 
ATOM     14  C   UNL     1      52.916 244.269 321.832  0.00  0.00    +0.000 C 
ATOM     15  C   UNL     1      53.027 242.954 322.331  0.00  0.00    +0.000 C 
ATOM     16  C   UNL     1      53.532 243.753 326.097  0.00  0.00    +0.000 C 
ATOM     17  C   UNL     1      52.816 246.653 320.985  0.00  0.00    +0.000 C 
ATOM     18  C   UNL     1      53.438 245.024 326.700  0.00  0.00    +0.000 C 
ATOM     19  C   UNL     1      53.342 245.974 325.745  0.00  0.00    +0.000 C 
ATOM     20  C   UNL     1      51.818 243.112 324.514  0.00  0.00    +0.000 C 
ATOM     21  C   UNL     1      53.044 247.846 321.917  0.00  0.00    +0.000 C 
ATOM     22  C   UNL     1      52.917 247.174 326.329  0.00  0.00    +0.000 C 
ATOM     23  C   UNL     1      50.490 242.410 324.397  0.00  0.00    +0.000 C 
ATOM     24  C   UNL     1      48.850 242.815 327.095  0.00  0.00    +0.000 C 
ATOM     25  C   UNL     1      52.134 246.434 328.183  0.00  0.00    +0.000 C 
ATOM     26  C   UNL     1      50.239 241.234 323.444  0.00  0.00    +0.000 C 
ATOM     27  C   UNL     1      50.946 246.353 328.818  0.00  0.00    +0.000 C 
ATOM     28  C   UNL     1      50.072 247.569 329.028  0.00  0.00    +0.000 C 
ATOM     29  C   UNL     1      50.293 245.094 328.954  0.00  0.00    +0.000 C 
ATOM     30  C   UNL     1      49.691 244.069 328.778  0.00  0.00    +0.000 C 
ENDROOT
BRANCH  17  31
ATOM     31  O   UNL     1      53.835 246.508 320.011  0.00  0.00    +0.000 OA
ATOM     32  H   UNL     1      54.557 246.026 320.457  0.00  0.00    +0.000 HD
ENDBRANCH  17  31
BRANCH  17  33
ATOM     33  C   UNL     1      51.499 246.703 320.324  0.00  0.00    +0.000 C 
BRANCH  33  34
ATOM     34  O   UNL     1      50.317 246.767 319.715  0.00  0.00    +0.000 OA
ATOM     35  H   UNL     1      49.681 246.144 320.115  0.00  0.00    +0.000 HD
ENDBRANCH  33  34
ENDBRANCH  17  33
BRANCH  24  36
ATOM     36  C   UNL     1      48.207 241.746 326.731  0.00  0.00    +0.000 C 
BRANCH  36  37
ATOM     37  C   UNL     1      47.492 240.459 326.309  0.00  0.00    +0.000 C 
ATOM     38  C   UNL     1      46.944 239.434 326.009  0.00  0.00    +0.000 C 
BRANCH  38  39
ATOM     39  C   UNL     1      46.253 238.115 325.649  0.00  0.00    +0.000 C 
ATOM     40  C   UNL     1      45.725 237.075 325.363  0.00  0.00    +0.000 C 
BRANCH  40  41
ATOM     41  C   UNL     1      45.058 235.745 324.999  0.00  0.00    +0.000 C 
ATOM     42  C   UNL     1      44.477 234.590 324.680  0.00  0.00    +0.000 C 
ENDBRANCH  40  41
ENDBRANCH  38  39
ENDBRANCH  36  37
ENDBRANCH  24  36
BRANCH  15  43
ATOM     43  O   UNL     1      53.447 241.905 321.506  0.00  0.00    +0.000 OA
BRANCH  43  45
ATOM     44  O   UNL     1      53.717 242.517 319.275  0.00  0.00    +0.000 OA
ATOM     45  C   UNL     1      53.072 242.039 320.197  0.00  0.00    +0.000 C 
BRANCH  45  46
ATOM     46  C   UNL     1      51.750 241.538 319.973  0.00  0.00    +0.000 C 
ATOM     47  C   UNL     1      50.647 241.115 319.782  0.00  0.00    +0.000 C 
ATOM     48  C   UNL     1      49.231 240.587 319.541  0.00  0.00    +0.000 C 
ENDBRANCH  45  46
ENDBRANCH  43  45
ENDBRANCH  15  43
TORSDOF 10
ENDMDL
MODEL 7
REMARK VINA RESULT:      -5.3      2.280      7.192
REMARK  Name = Thapsigargin.pdbqt.pdb
REMARK  10 active torsions:
REMARK  status: ('A' for Active; 'I' for Inactive)
REMARK    1  A    between atoms: O_2  and  C_24
REMARK    2  A    between atoms: C_17  and  O_43
REMARK    3  A    between atoms: C_19  and  C_24
REMARK    4  A    between atoms: C_19  and  O_47
REMARK    5  A    between atoms: C_27  and  C_35
REMARK    6  A    between atoms: C_35  and  C_36
REMARK    7  A    between atoms: C_37  and  C_38
REMARK    8  A    between atoms: C_39  and  C_40
REMARK    9  A    between atoms: C_42  and  O_43
REMARK   10  A    between atoms: C_42  and  C_44
REMARK                            x       y       z     vdW  Elec       q    Type
REMARK                         _______ _______ _______ _____ _____    ______ ____
ROOT
ATOM      1  O   UNL     1      75.606 223.589 341.079  0.00  0.00    +0.000 OA
ATOM      2  O   UNL     1      72.003 220.067 337.717  0.00  0.00    +0.000 OA
ATOM      3  O   UNL     1      70.366 221.220 339.308  0.00  0.00    +0.000 OA
ATOM      4  O   UNL     1      72.979 219.105 341.784  0.00  0.00    +0.000 OA
ATOM      5  O   UNL     1      76.764 225.531 341.420  0.00  0.00    +0.000 OA
ATOM      6  O   UNL     1      70.619 222.046 338.115  0.00  0.00    +0.000 OA
ATOM      7  O   UNL     1      68.834 219.438 339.996  0.00  0.00    +0.000 OA
ATOM      8  O   UNL     1      73.349 220.860 343.512  0.00  0.00    +0.000 OA
ATOM      9  C   UNL     1      74.184 220.687 338.860  0.00  0.00    +0.000 C 
ATOM     10  C   UNL     1      75.508 223.652 338.759  0.00  0.00    +0.000 C 
ATOM     11  C   UNL     1      75.215 222.897 339.940  0.00  0.00    +0.000 C 
ATOM     12  C   UNL     1      74.288 220.978 337.401  0.00  0.00    +0.000 C 
ATOM     13  C   UNL     1      74.675 221.659 339.971  0.00  0.00    +0.000 C 
ATOM     14  C   UNL     1      75.317 223.081 337.615  0.00  0.00    +0.000 C 
ATOM     15  C   UNL     1      74.911 222.007 336.795  0.00  0.00    +0.000 C 
ATOM     16  C   UNL     1      73.979 219.434 339.550  0.00  0.00    +0.000 C 
ATOM     17  C   UNL     1      76.117 224.940 339.137  0.00  0.00    +0.000 C 
ATOM     18  C   UNL     1      73.934 219.678 340.938  0.00  0.00    +0.000 C 
ATOM     19  C   UNL     1      74.459 220.893 341.203  0.00  0.00    +0.000 C 
ATOM     20  C   UNL     1      72.977 221.067 338.072  0.00  0.00    +0.000 C 
ATOM     21  C   UNL     1      76.202 224.755 340.653  0.00  0.00    +0.000 C 
ATOM     22  C   UNL     1      74.113 221.271 342.507  0.00  0.00    +0.000 C 
ATOM     23  C   UNL     1      71.696 221.423 337.364  0.00  0.00    +0.000 C 
ATOM     24  C   UNL     1      69.225 220.434 339.110  0.00  0.00    +0.000 C 
ATOM     25  C   UNL     1      72.488 219.920 342.872  0.00  0.00    +0.000 C 
ATOM     26  C   UNL     1      71.604 221.642 335.848  0.00  0.00    +0.000 C 
ATOM     27  C   UNL     1      71.160 219.975 343.100  0.00  0.00    +0.000 C 
ATOM     28  C   UNL     1      70.576 220.842 344.194  0.00  0.00    +0.000 C 
ATOM     29  C   UNL     1      70.244 219.550 342.096  0.00  0.00    +0.000 C 
ATOM     30  C   UNL     1      69.554 219.446 341.117  0.00  0.00    +0.000 C 
ENDROOT
BRANCH  17  31
ATOM     31  O   UNL     1      77.386 225.097 338.525  0.00  0.00    +0.000 OA
ATOM     32  H   UNL     1      77.860 225.752 339.071  0.00  0.00    +0.000 HD
ENDBRANCH  17  31
BRANCH  17  33
ATOM     33  C   UNL     1      75.239 226.063 338.758  0.00  0.00    +0.000 C 
BRANCH  33  34
ATOM     34  O   UNL     1      74.467 227.091 338.411  0.00  0.00    +0.000 OA
ATOM     35  H   UNL     1      74.625 227.860 338.990  0.00  0.00    +0.000 HD
ENDBRANCH  33  34
ENDBRANCH  17  33
BRANCH  24  36
ATOM     36  C   UNL     1      68.568 220.464 337.990  0.00  0.00    +0.000 C 
BRANCH  36  37
ATOM     37  C   UNL     1      67.835 220.487 336.645  0.00  0.00    +0.000 C 
ATOM     38  C   UNL     1      67.290 220.489 335.575  0.00  0.00    +0.000 C 
BRANCH  38  39
ATOM     39  C   UNL     1      66.616 220.479 334.199  0.00  0.00    +0.000 C 
ATOM     40  C   UNL     1      66.075 220.470 333.128  0.00  0.00    +0.000 C 
BRANCH  40  41
ATOM     41  C   UNL     1      65.378 220.459 331.764  0.00  0.00    +0.000 C 
ATOM     42  C   UNL     1      64.771 220.453 330.578  0.00  0.00    +0.000 C 
ENDBRANCH  40  41
ENDBRANCH  38  39
ENDBRANCH  36  37
ENDBRANCH  24  36
BRANCH  15  43
ATOM     43  O   UNL     1      75.386 221.882 335.485  0.00  0.00    +0.000 OA
BRANCH  43  45
ATOM     44  O   UNL     1      75.428 224.101 334.777  0.00  0.00    +0.000 OA
ATOM     45  C   UNL     1      75.069 222.937 334.673  0.00  0.00    +0.000 C 
BRANCH  45  46
ATOM     46  C   UNL     1      74.204 222.539 333.605  0.00  0.00    +0.000 C 
ATOM     47  C   UNL     1      73.485 222.205 332.708  0.00  0.00    +0.000 C 
ATOM     48  C   UNL     1      72.554 221.785 331.568  0.00  0.00    +0.000 C 
ENDBRANCH  45  46
ENDBRANCH  43  45
ENDBRANCH  15  43
TORSDOF 10
ENDMDL
MODEL 8
REMARK VINA RESULT:      -5.2     24.013     28.707
REMARK  Name = Thapsigargin.pdbqt.pdb
REMARK  10 active torsions:
REMARK  status: ('A' for Active; 'I' for Inactive)
REMARK    1  A    between atoms: O_2  and  C_24
REMARK    2  A    between atoms: C_17  and  O_43
REMARK    3  A    between atoms: C_19  and  C_24
REMARK    4  A    between atoms: C_19  and  O_47
REMARK    5  A    between atoms: C_27  and  C_35
REMARK    6  A    between atoms: C_35  and  C_36
REMARK    7  A    between atoms: C_37  and  C_38
REMARK    8  A    between atoms: C_39  and  C_40
REMARK    9  A    between atoms: C_42  and  O_43
REMARK   10  A    between atoms: C_42  and  C_44
REMARK                            x       y       z     vdW  Elec       q    Type
REMARK                         _______ _______ _______ _____ _____    ______ ____
ROOT
ATOM      1  O   UNL     1      58.598 238.341 316.395  0.00  0.00    +0.000 OA
ATOM      2  O   UNL     1      57.139 232.482 315.909  0.00  0.00    +0.000 OA
ATOM      3  O   UNL     1      59.436 232.417 317.032  0.00  0.00    +0.000 OA
ATOM      4  O   UNL     1      60.072 234.318 313.369  0.00  0.00    +0.000 OA
ATOM      5  O   UNL     1      58.509 240.348 317.485  0.00  0.00    +0.000 OA
ATOM      6  O   UNL     1      58.361 232.569 318.028  0.00  0.00    +0.000 OA
ATOM      7  O   UNL     1      60.614 230.599 315.891  0.00  0.00    +0.000 OA
ATOM      8  O   UNL     1      61.551 236.158 314.163  0.00  0.00    +0.000 OA
ATOM      9  C   UNL     1      57.105 234.920 315.198  0.00  0.00    +0.000 C 
ATOM     10  C   UNL     1      56.650 237.402 317.244  0.00  0.00    +0.000 C 
ATOM     11  C   UNL     1      57.742 237.250 316.329  0.00  0.00    +0.000 C 
ATOM     12  C   UNL     1      55.823 234.584 315.882  0.00  0.00    +0.000 C 
ATOM     13  C   UNL     1      57.916 236.219 315.473  0.00  0.00    +0.000 C 
ATOM     14  C   UNL     1      55.702 236.524 317.204  0.00  0.00    +0.000 C 
ATOM     15  C   UNL     1      55.092 235.351 316.712  0.00  0.00    +0.000 C 
ATOM     16  C   UNL     1      57.679 234.394 313.981  0.00  0.00    +0.000 C 
ATOM     17  C   UNL     1      56.801 238.669 317.982  0.00  0.00    +0.000 C 
ATOM     18  C   UNL     1      58.923 235.017 313.755  0.00  0.00    +0.000 C 
ATOM     19  C   UNL     1      59.011 236.140 314.501  0.00  0.00    +0.000 C 
ATOM     20  C   UNL     1      57.059 233.876 316.262  0.00  0.00    +0.000 C 
ATOM     21  C   UNL     1      58.050 239.226 317.295  0.00  0.00    +0.000 C 
ATOM     22  C   UNL     1      60.344 236.567 314.538  0.00  0.00    +0.000 C 
ATOM     23  C   UNL     1      57.118 232.795 317.309  0.00  0.00    +0.000 C 
ATOM     24  C   UNL     1      59.754 231.063 316.878  0.00  0.00    +0.000 C 
ATOM     25  C   UNL     1      61.332 234.771 313.909  0.00  0.00    +0.000 C 
ATOM     26  C   UNL     1      55.877 232.250 318.028  0.00  0.00    +0.000 C 
ATOM     27  C   UNL     1      62.194 233.862 314.411  0.00  0.00    +0.000 C 
ATOM     28  C   UNL     1      63.511 234.272 315.031  0.00  0.00    +0.000 C 
ATOM     29  C   UNL     1      61.739 232.553 314.740  0.00  0.00    +0.000 C 
ATOM     30  C   UNL     1      61.226 231.590 315.245  0.00  0.00    +0.000 C 
ENDROOT
BRANCH  17  31
ATOM     31  O   UNL     1      55.660 239.491 317.810  0.00  0.00    +0.000 OA
ATOM     32  H   UNL     1      55.906 240.139 317.123  0.00  0.00    +0.000 HD
ENDBRANCH  17  31
BRANCH  17  33
ATOM     33  C   UNL     1      57.019 238.414 319.418  0.00  0.00    +0.000 C 
BRANCH  33  34
ATOM     34  O   UNL     1      57.210 238.207 320.719  0.00  0.00    +0.000 OA
ATOM     35  H   UNL     1      56.377 238.308 321.217  0.00  0.00    +0.000 HD
ENDBRANCH  33  34
ENDBRANCH  17  33
BRANCH  24  36
ATOM     36  C   UNL     1      59.116 230.138 317.531  0.00  0.00    +0.000 C 
BRANCH  36  37
ATOM     37  C   UNL     1      58.372 229.074 318.344  0.00  0.00    +0.000 C 
ATOM     38  C   UNL     1      57.766 228.234 318.952  0.00  0.00    +0.000 C 
BRANCH  38  39
ATOM     39  C   UNL     1      56.979 227.158 319.706  0.00  0.00    +0.000 C 
ATOM     40  C   UNL     1      56.349 226.320 320.291  0.00  0.00    +0.000 C 
BRANCH  40  41
ATOM     41  C   UNL     1      55.539 225.252 321.032  0.00  0.00    +0.000 C 
ATOM     42  C   UNL     1      54.834 224.325 321.680  0.00  0.00    +0.000 C 
ENDBRANCH  40  41
ENDBRANCH  38  39
ENDBRANCH  36  37
ENDBRANCH  24  36
BRANCH  15  43
ATOM     43  O   UNL     1      53.713 235.150 316.843  0.00  0.00    +0.000 OA
BRANCH  43  45
ATOM     44  O   UNL     1      53.861 234.631 319.109  0.00  0.00    +0.000 OA
ATOM     45  C   UNL     1      53.277 235.093 318.139  0.00  0.00    +0.000 C 
BRANCH  45  46
ATOM     46  C   UNL     1      51.970 235.658 318.282  0.00  0.00    +0.000 C 
ATOM     47  C   UNL     1      50.874 236.125 318.401  0.00  0.00    +0.000 C 
ATOM     48  C   UNL     1      49.480 236.736 318.551  0.00  0.00    +0.000 C 
ENDBRANCH  45  46
ENDBRANCH  43  45
ENDBRANCH  15  43
TORSDOF 10
ENDMDL
MODEL 9
REMARK VINA RESULT:      -5.1     16.835     20.476
REMARK  Name = Thapsigargin.pdbqt.pdb
REMARK  10 active torsions:
REMARK  status: ('A' for Active; 'I' for Inactive)
REMARK    1  A    between atoms: O_2  and  C_24
REMARK    2  A    between atoms: C_17  and  O_43
REMARK    3  A    between atoms: C_19  and  C_24
REMARK    4  A    between atoms: C_19  and  O_47
REMARK    5  A    between atoms: C_27  and  C_35
REMARK    6  A    between atoms: C_35  and  C_36
REMARK    7  A    between atoms: C_37  and  C_38
REMARK    8  A    between atoms: C_39  and  C_40
REMARK    9  A    between atoms: C_42  and  O_43
REMARK   10  A    between atoms: C_42  and  C_44
REMARK                            x       y       z     vdW  Elec       q    Type
REMARK                         _______ _______ _______ _____ _____    ______ ____
ROOT
ATOM      1  O   UNL     1      69.694 240.440 330.067  0.00  0.00    +0.000 OA
ATOM      2  O   UNL     1      73.141 239.708 334.995  0.00  0.00    +0.000 OA
ATOM      3  O   UNL     1      70.965 238.521 335.627  0.00  0.00    +0.000 OA
ATOM      4  O   UNL     1      69.867 242.482 334.895  0.00  0.00    +0.000 OA
ATOM      5  O   UNL     1      69.023 239.808 327.975  0.00  0.00    +0.000 OA
ATOM      6  O   UNL     1      71.871 237.618 334.897  0.00  0.00    +0.000 OA
ATOM      7  O   UNL     1      70.553 239.206 337.941  0.00  0.00    +0.000 OA
ATOM      8  O   UNL     1      67.801 242.052 333.572  0.00  0.00    +0.000 OA
ATOM      9  C   UNL     1      72.347 240.925 332.912  0.00  0.00    +0.000 C 
ATOM     10  C   UNL     1      71.808 239.476 330.056  0.00  0.00    +0.000 C 
ATOM     11  C   UNL     1      70.882 240.299 330.774  0.00  0.00    +0.000 C 
ATOM     12  C   UNL     1      73.634 240.229 332.621  0.00  0.00    +0.000 C 
ATOM     13  C   UNL     1      71.120 240.908 331.956  0.00  0.00    +0.000 C 
ATOM     14  C   UNL     1      73.004 239.358 330.529  0.00  0.00    +0.000 C 
ATOM     15  C   UNL     1      74.010 239.607 331.488  0.00  0.00    +0.000 C 
ATOM     16  C   UNL     1      72.049 241.982 333.852  0.00  0.00    +0.000 C 
ATOM     17  C   UNL     1      71.188 239.021 328.798  0.00  0.00    +0.000 C 
ATOM     18  C   UNL     1      70.677 242.294 333.771  0.00  0.00    +0.000 C 
ATOM     19  C   UNL     1      70.167 241.803 332.621  0.00  0.00    +0.000 C 
ATOM     20  C   UNL     1      72.709 239.665 333.621  0.00  0.00    +0.000 C 
ATOM     21  C   UNL     1      69.855 239.769 328.877  0.00  0.00    +0.000 C 
ATOM     22  C   UNL     1      68.768 241.814 332.694  0.00  0.00    +0.000 C 
ATOM     23  C   UNL     1      72.987 238.410 334.406  0.00  0.00    +0.000 C 
ATOM     24  C   UNL     1      71.151 238.371 337.005  0.00  0.00    +0.000 C 
ATOM     25  C   UNL     1      68.504 242.010 334.813  0.00  0.00    +0.000 C 
ATOM     26  C   UNL     1      74.306 237.632 334.312  0.00  0.00    +0.000 C 
ATOM     27  C   UNL     1      67.996 241.296 335.838  0.00  0.00    +0.000 C 
ATOM     28  C   UNL     1      66.592 240.735 335.798  0.00  0.00    +0.000 C 
ATOM     29  C   UNL     1      68.866 240.710 336.801  0.00  0.00    +0.000 C 
ATOM     30  C   UNL     1      69.662 240.028 337.391  0.00  0.00    +0.000 C 
ENDROOT
BRANCH  17  31
ATOM     31  O   UNL     1      71.974 239.404 327.682  0.00  0.00    +0.000 OA
ATOM     32  H   UNL     1      72.819 239.720 328.053  0.00  0.00    +0.000 HD
ENDBRANCH  17  31
BRANCH  17  33
ATOM     33  C   UNL     1      71.010 237.557 328.802  0.00  0.00    +0.000 C 
BRANCH  33  34
ATOM     34  O   UNL     1      70.832 236.238 328.824  0.00  0.00    +0.000 OA
ATOM     35  H   UNL     1      71.190 235.848 329.644  0.00  0.00    +0.000 HD
ENDBRANCH  33  34
ENDBRANCH  17  33
BRANCH  24  36
ATOM     36  C   UNL     1      72.043 237.557 337.485  0.00  0.00    +0.000 C 
BRANCH  36  37
ATOM     37  C   UNL     1      73.128 236.616 338.017  0.00  0.00    +0.000 C 
ATOM     38  C   UNL     1      74.004 235.905 338.429  0.00  0.00    +0.000 C 
BRANCH  38  39
ATOM     39  C   UNL     1      75.138 235.019 338.954  0.00  0.00    +0.000 C 
ATOM     40  C   UNL     1      76.035 234.337 339.368  0.00  0.00    +0.000 C 
BRANCH  40  41
ATOM     41  C   UNL     1      77.182 233.474 339.901  0.00  0.00    +0.000 C 
ATOM     42  C   UNL     1      78.178 232.722 340.367  0.00  0.00    +0.000 C 
ENDBRANCH  40  41
ENDBRANCH  38  39
ENDBRANCH  36  37
ENDBRANCH  24  36
BRANCH  15  43
ATOM     43  O   UNL     1      75.364 239.482 331.157  0.00  0.00    +0.000 OA
BRANCH  43  45
ATOM     44  O   UNL     1      76.843 238.151 332.367  0.00  0.00    +0.000 OA
ATOM     45  C   UNL     1      75.933 238.307 331.565  0.00  0.00    +0.000 C 
BRANCH  45  46
ATOM     46  C   UNL     1      75.335 237.179 330.921  0.00  0.00    +0.000 C 
ATOM     47  C   UNL     1      74.829 236.235 330.385  0.00  0.00    +0.000 C 
ATOM     48  C   UNL     1      74.197 235.024 329.695  0.00  0.00    +0.000 C 
ENDBRANCH  45  46
ENDBRANCH  43  45
ENDBRANCH  15  43
TORSDOF 10
ENDMDL
