REMARK  Name = Thioguanosine.pdbqt.pdb
REMARK  5 active torsions:
REMARK  status: ('A' for Active; 'I' for Inactive)
REMARK    1  A    between atoms: N_2  and  C1*_12
REMARK    2  A    between atoms: C4*_14  and  C5*_17
REMARK    3  A    between atoms: C3*_15  and  O3*_20
REMARK    4  A    between atoms: C2*_16  and  O2*_22
REMARK    5  A    between atoms: C5*_17  and  O5*_18
REMARK                            x       y       z     vdW  Elec       q    Type
REMARK                         _______ _______ _______ _____ _____    ______ ____
ROOT
ATOM      1  S   UNL     1      -5.129  -1.753   0.070  0.00  0.00    +0.000 S 
ATOM      2  N   UNL     1      -0.339  -0.756  -0.168  0.00  0.00    +0.000 N 
ATOM      3  N   UNL     1      -1.811   1.217  -0.173  0.00  0.00    +0.000 N 
ATOM      4  N   UNL     1      -1.988  -2.299  -0.007  0.00  0.00    +0.000 NA
ATOM      5  N   UNL     1      -4.149   0.787  -0.103  0.00  0.00    +0.000 NA
ATOM      6  C   UNL     1      -1.544  -0.101  -0.132  0.00  0.00    +0.000 A 
ATOM      7  C   UNL     1      -0.687  -2.094  -0.067  0.00  0.00    +0.000 A 
ATOM      8  C   UNL     1      -2.539  -1.042  -0.055  0.00  0.00    +0.000 A 
ATOM      9  C   UNL     1      -3.932  -0.591  -0.036  0.00  0.00    +0.000 A 
ATOM     10  C   UNL     1      -3.127   1.591  -0.160  0.00  0.00    +0.000 A 
ATOM     11  H   UNL     1      -1.086   1.924  -0.269  0.00  0.00    +0.000 HD
ATOM     12  N   UNL     1      -3.310   2.932  -0.220  0.00  0.00    +0.000 N 
ATOM     13  H   UNL     1      -2.731   3.461   0.419  0.00  0.00    +0.000 HD
ATOM     14  H   UNL     1      -4.292   3.163  -0.087  0.00  0.00    +0.000 HD
ENDROOT
BRANCH   2  15
ATOM     15  C1* UNL     1       0.949  -0.273  -0.295  0.00  0.00    +0.000 A 
ATOM     16  O4* UNL     1       2.073  -1.133  -0.303  0.00  0.00    +0.000 OA
ATOM     17  C4* UNL     1       3.243  -0.366  -0.430  0.00  0.00    +0.000 A 
ATOM     18  C3* UNL     1       2.865   1.016  -0.513  0.00  0.00    +0.000 A 
ATOM     19  C2* UNL     1       1.438   1.076  -0.440  0.00  0.00    +0.000 A 
BRANCH  18  20
ATOM     20  O3* UNL     1       3.626   2.039  -0.015  0.00  0.00    +0.000 OA
ATOM     21  H3* UNL     1       4.556   1.770   0.102  0.00  0.00    +0.000 HD
ENDBRANCH  18  20
BRANCH  19  22
ATOM     22  O2* UNL     1       0.811   2.160   0.111  0.00  0.00    +0.000 OA
ATOM     23  H2* UNL     1       1.461   2.881   0.236  0.00  0.00    +0.000 HD
ENDBRANCH  19  22
BRANCH  17  24
ATOM     24  C5* UNL     1       4.529  -0.897  -0.221  0.00  0.00    +0.000 C 
BRANCH  24  25
ATOM     25  O5* UNL     1       5.752  -1.377  -0.022  0.00  0.00    +0.000 OA
ATOM     26  H5* UNL     1       5.763  -2.344  -0.134  0.00  0.00    +0.000 HD
ENDBRANCH  24  25
ENDBRANCH  17  24
ENDBRANCH   2  15
TORSDOF 5
