MODEL 1
REMARK VINA RESULT:      -5.3      0.000      0.000
REMARK  Name = Thioguanosine.pdbqt.pdb
REMARK  5 active torsions:
REMARK  status: ('A' for Active; 'I' for Inactive)
REMARK    1  A    between atoms: N_2  and  C1*_12
REMARK    2  A    between atoms: C4*_14  and  C5*_17
REMARK    3  A    between atoms: C3*_15  and  O3*_20
REMARK    4  A    between atoms: C2*_16  and  O2*_22
REMARK    5  A    between atoms: C5*_17  and  O5*_18
REMARK                            x       y       z     vdW  Elec       q    Type
REMARK                         _______ _______ _______ _____ _____    ______ ____
ROOT
ATOM      1  S   UNL     1      54.605 247.879 345.606  0.00  0.00    +0.000 S 
ATOM      2  N   UNL     1      54.182 243.190 346.959  0.00  0.00    +0.000 N 
ATOM      3  N   UNL     1      56.420 243.844 346.170  0.00  0.00    +0.000 N 
ATOM      4  N   UNL     1      53.227 245.229 346.725  0.00  0.00    +0.000 NA
ATOM      5  N   UNL     1      56.668 246.100 345.460  0.00  0.00    +0.000 NA
ATOM      6  C   UNL     1      55.128 244.059 346.477  0.00  0.00    +0.000 A 
ATOM      7  C   UNL     1      53.052 243.979 347.106  0.00  0.00    +0.000 A 
ATOM      8  C   UNL     1      54.537 245.287 346.319  0.00  0.00    +0.000 A 
ATOM      9  C   UNL     1      55.340 246.388 345.781  0.00  0.00    +0.000 A 
ATOM     10  C   UNL     1      57.128 244.900 345.664  0.00  0.00    +0.000 A 
ATOM     11  H   UNL     1      56.860 242.931 346.246  0.00  0.00    +0.000 HD
ATOM     12  N   UNL     1      58.414 244.597 345.366  0.00  0.00    +0.000 N 
ATOM     13  H   UNL     1      58.903 244.091 346.094  0.00  0.00    +0.000 HD
ATOM     14  H   UNL     1      58.927 245.437 345.109  0.00  0.00    +0.000 HD
ENDROOT
BRANCH   2  15
ATOM     15  C1* UNL     1      54.254 241.838 347.236  0.00  0.00    +0.000 A 
ATOM     16  O4* UNL     1      53.098 241.022 347.285  0.00  0.00    +0.000 OA
ATOM     17  C4* UNL     1      53.473 239.706 347.600  0.00  0.00    +0.000 A 
ATOM     18  C3* UNL     1      54.900 239.671 347.751  0.00  0.00    +0.000 A 
ATOM     19  C2* UNL     1      55.389 240.994 347.515  0.00  0.00    +0.000 A 
BRANCH  18  20
ATOM     20  O3* UNL     1      55.548 238.841 348.625  0.00  0.00    +0.000 OA
ATOM     21  H3* UNL     1      56.515 238.961 348.584  0.00  0.00    +0.000 HD
ENDBRANCH  18  20
BRANCH  19  22
ATOM     22  O2* UNL     1      56.518 241.445 348.143  0.00  0.00    +0.000 OA
ATOM     23  H2* UNL     1      56.411 241.346 349.111  0.00  0.00    +0.000 HD
ENDBRANCH  19  22
BRANCH  17  24
ATOM     24  C5* UNL     1      52.543 238.715 347.965  0.00  0.00    +0.000 C 
BRANCH  24  25
ATOM     25  O5* UNL     1      51.671 237.767 348.291  0.00  0.00    +0.000 OA
ATOM     26  H5* UNL     1      51.055 237.601 347.556  0.00  0.00    +0.000 HD
ENDBRANCH  24  25
ENDBRANCH  17  24
ENDBRANCH   2  15
TORSDOF 5
ENDMDL
MODEL 2
REMARK VINA RESULT:      -4.9      4.074      5.070
REMARK  Name = Thioguanosine.pdbqt.pdb
REMARK  5 active torsions:
REMARK  status: ('A' for Active; 'I' for Inactive)
REMARK    1  A    between atoms: N_2  and  C1*_12
REMARK    2  A    between atoms: C4*_14  and  C5*_17
REMARK    3  A    between atoms: C3*_15  and  O3*_20
REMARK    4  A    between atoms: C2*_16  and  O2*_22
REMARK    5  A    between atoms: C5*_17  and  O5*_18
REMARK                            x       y       z     vdW  Elec       q    Type
REMARK                         _______ _______ _______ _____ _____    ______ ____
ROOT
ATOM      1  S   UNL     1      60.704 241.487 352.115  0.00  0.00    +0.000 S 
ATOM      2  N   UNL     1      56.504 240.501 349.793  0.00  0.00    +0.000 N 
ATOM      3  N   UNL     1      57.828 242.330 348.812  0.00  0.00    +0.000 N 
ATOM      4  N   UNL     1      57.952 240.012 351.464  0.00  0.00    +0.000 NA
ATOM      5  N   UNL     1      59.856 242.879 349.927  0.00  0.00    +0.000 NA
ATOM      6  C   UNL     1      57.578 241.351 349.700  0.00  0.00    +0.000 A 
ATOM      7  C   UNL     1      56.812 239.699 350.881  0.00  0.00    +0.000 A 
ATOM      8  C   UNL     1      58.441 241.063 350.727  0.00  0.00    +0.000 A 
ATOM      9  C   UNL     1      59.660 241.862 350.864  0.00  0.00    +0.000 A 
ATOM     10  C   UNL     1      58.975 243.055 348.984  0.00  0.00    +0.000 A 
ATOM     11  H   UNL     1      57.179 242.580 348.069  0.00  0.00    +0.000 HD
ATOM     12  N   UNL     1      59.145 244.030 348.059  0.00  0.00    +0.000 N 
ATOM     13  H   UNL     1      58.992 243.731 347.105  0.00  0.00    +0.000 HD
ATOM     14  H   UNL     1      60.063 244.458 348.158  0.00  0.00    +0.000 HD
ENDROOT
BRANCH   2  15
ATOM     15  C1* UNL     1      55.350 240.417 349.040  0.00  0.00    +0.000 A 
ATOM     16  O4* UNL     1      54.360 239.437 349.294  0.00  0.00    +0.000 OA
ATOM     17  C4* UNL     1      53.314 239.583 348.368  0.00  0.00    +0.000 A 
ATOM     18  C3* UNL     1      53.633 240.684 347.503  0.00  0.00    +0.000 A 
ATOM     19  C2* UNL     1      54.893 241.211 347.926  0.00  0.00    +0.000 A 
BRANCH  18  20
ATOM     20  O3* UNL     1      53.267 240.740 346.186  0.00  0.00    +0.000 OA
ATOM     21  H3* UNL     1      52.411 240.298 346.032  0.00  0.00    +0.000 HD
ENDBRANCH  18  20
BRANCH  19  22
ATOM     22  O2* UNL     1      55.744 241.794 347.027  0.00  0.00    +0.000 OA
ATOM     23  H2* UNL     1      55.455 242.713 346.856  0.00  0.00    +0.000 HD
ENDBRANCH  19  22
BRANCH  17  24
ATOM     24  C5* UNL     1      52.307 238.616 348.196  0.00  0.00    +0.000 C 
BRANCH  24  25
ATOM     25  O5* UNL     1      51.359 237.696 348.057  0.00  0.00    +0.000 OA
ATOM     26  H5* UNL     1      51.118 237.318 348.921  0.00  0.00    +0.000 HD
ENDBRANCH  24  25
ENDBRANCH  17  24
ENDBRANCH   2  15
TORSDOF 5
ENDMDL
MODEL 3
REMARK VINA RESULT:      -4.7      5.477      7.153
REMARK  Name = Thioguanosine.pdbqt.pdb
REMARK  5 active torsions:
REMARK  status: ('A' for Active; 'I' for Inactive)
REMARK    1  A    between atoms: N_2  and  C1*_12
REMARK    2  A    between atoms: C4*_14  and  C5*_17
REMARK    3  A    between atoms: C3*_15  and  O3*_20
REMARK    4  A    between atoms: C2*_16  and  O2*_22
REMARK    5  A    between atoms: C5*_17  and  O5*_18
REMARK                            x       y       z     vdW  Elec       q    Type
REMARK                         _______ _______ _______ _____ _____    ______ ____
ROOT
ATOM      1  S   UNL     1      55.267 240.899 355.873  0.00  0.00    +0.000 S 
ATOM      2  N   UNL     1      54.304 240.684 351.075  0.00  0.00    +0.000 N 
ATOM      3  N   UNL     1      55.267 238.631 352.032  0.00  0.00    +0.000 N 
ATOM      4  N   UNL     1      54.250 241.862 353.008  0.00  0.00    +0.000 NA
ATOM      5  N   UNL     1      55.794 238.697 354.350  0.00  0.00    +0.000 NA
ATOM      6  C   UNL     1      54.805 239.894 352.078  0.00  0.00    +0.000 A 
ATOM      7  C   UNL     1      53.967 241.864 351.720  0.00  0.00    +0.000 A 
ATOM      8  C   UNL     1      54.788 240.620 353.242  0.00  0.00    +0.000 A 
ATOM      9  C   UNL     1      55.308 240.001 354.463  0.00  0.00    +0.000 A 
ATOM     10  C   UNL     1      55.748 238.097 353.196  0.00  0.00    +0.000 A 
ATOM     11  H   UNL     1      55.321 238.095 351.170  0.00  0.00    +0.000 HD
ATOM     12  N   UNL     1      56.208 236.830 353.061  0.00  0.00    +0.000 N 
ATOM     13  H   UNL     1      55.586 236.212 352.558  0.00  0.00    +0.000 HD
ATOM     14  H   UNL     1      56.442 236.438 353.971  0.00  0.00    +0.000 HD
ENDROOT
BRANCH   2  15
ATOM     15  C1* UNL     1      54.159 240.444 349.722  0.00  0.00    +0.000 A 
ATOM     16  O4* UNL     1      54.269 241.479 348.763  0.00  0.00    +0.000 OA
ATOM     17  C4* UNL     1      54.062 240.946 347.480  0.00  0.00    +0.000 A 
ATOM     18  C3* UNL     1      53.821 239.537 347.614  0.00  0.00    +0.000 A 
ATOM     19  C2* UNL     1      53.891 239.221 349.007  0.00  0.00    +0.000 A 
BRANCH  18  20
ATOM     20  O3* UNL     1      52.992 238.830 346.785  0.00  0.00    +0.000 OA
ATOM     21  H3* UNL     1      52.877 237.912 347.092  0.00  0.00    +0.000 HD
ENDBRANCH  18  20
BRANCH  19  22
ATOM     22  O2* UNL     1      53.147 238.199 349.530  0.00  0.00    +0.000 OA
ATOM     23  H2* UNL     1      53.071 238.317 350.499  0.00  0.00    +0.000 HD
ENDBRANCH  19  22
BRANCH  17  24
ATOM     24  C5* UNL     1      53.861 241.750 346.343  0.00  0.00    +0.000 C 
BRANCH  24  25
ATOM     25  O5* UNL     1      53.653 242.497 345.264  0.00  0.00    +0.000 OA
ATOM     26  H5* UNL     1      52.948 243.148 345.428  0.00  0.00    +0.000 HD
ENDBRANCH  24  25
ENDBRANCH  17  24
ENDBRANCH   2  15
TORSDOF 5
ENDMDL
MODEL 4
REMARK VINA RESULT:      -4.5     18.110     19.055
REMARK  Name = Thioguanosine.pdbqt.pdb
REMARK  5 active torsions:
REMARK  status: ('A' for Active; 'I' for Inactive)
REMARK    1  A    between atoms: N_2  and  C1*_12
REMARK    2  A    between atoms: C4*_14  and  C5*_17
REMARK    3  A    between atoms: C3*_15  and  O3*_20
REMARK    4  A    between atoms: C2*_16  and  O2*_22
REMARK    5  A    between atoms: C5*_17  and  O5*_18
REMARK                            x       y       z     vdW  Elec       q    Type
REMARK                         _______ _______ _______ _____ _____    ______ ____
ROOT
ATOM      1  S   UNL     1      52.868 247.691 324.241  0.00  0.00    +0.000 S 
ATOM      2  N   UNL     1      50.814 246.101 328.394  0.00  0.00    +0.000 N 
ATOM      3  N   UNL     1      52.549 244.624 327.463  0.00  0.00    +0.000 N 
ATOM      4  N   UNL     1      50.967 247.703 326.801  0.00  0.00    +0.000 NA
ATOM      5  N   UNL     1      53.548 245.328 325.423  0.00  0.00    +0.000 NA
ATOM      6  C   UNL     1      51.774 245.724 327.490  0.00  0.00    +0.000 A 
ATOM      7  C   UNL     1      50.379 247.329 327.920  0.00  0.00    +0.000 A 
ATOM      8  C   UNL     1      51.847 246.688 326.517  0.00  0.00    +0.000 A 
ATOM      9  C   UNL     1      52.786 246.498 325.409  0.00  0.00    +0.000 A 
ATOM     10  C   UNL     1      53.406 244.486 326.405  0.00  0.00    +0.000 A 
ATOM     11  H   UNL     1      52.478 243.882 328.156  0.00  0.00    +0.000 HD
ATOM     12  N   UNL     1      54.137 243.346 326.445  0.00  0.00    +0.000 N 
ATOM     13  H   UNL     1      54.564 243.156 327.342  0.00  0.00    +0.000 HD
ATOM     14  H   UNL     1      54.838 243.348 325.708  0.00  0.00    +0.000 HD
ENDROOT
BRANCH   2  15
ATOM     15  C1* UNL     1      50.326 245.460 329.516  0.00  0.00    +0.000 A 
ATOM     16  O4* UNL     1      49.832 246.176 330.632  0.00  0.00    +0.000 OA
ATOM     17  C4* UNL     1      49.421 245.268 331.621  0.00  0.00    +0.000 A 
ATOM     18  C3* UNL     1      49.647 243.938 331.130  0.00  0.00    +0.000 A 
ATOM     19  C2* UNL     1      50.200 244.055 329.816  0.00  0.00    +0.000 A 
BRANCH  18  20
ATOM     20  O3* UNL     1      49.989 242.884 331.933  0.00  0.00    +0.000 OA
ATOM     21  H3* UNL     1      49.775 242.030 331.513  0.00  0.00    +0.000 HD
ENDBRANCH  18  20
BRANCH  19  22
ATOM     22  O2* UNL     1      51.064 243.109 329.335  0.00  0.00    +0.000 OA
ATOM     23  H2* UNL     1      50.931 243.010 328.370  0.00  0.00    +0.000 HD
ENDBRANCH  19  22
BRANCH  17  24
ATOM     24  C5* UNL     1      49.117 245.660 332.938  0.00  0.00    +0.000 C 
BRANCH  24  25
ATOM     25  O5* UNL     1      48.818 246.048 334.173  0.00  0.00    +0.000 OA
ATOM     26  H5* UNL     1      49.217 246.915 334.365  0.00  0.00    +0.000 HD
ENDBRANCH  24  25
ENDBRANCH  17  24
ENDBRANCH   2  15
TORSDOF 5
ENDMDL
MODEL 5
REMARK VINA RESULT:      -4.5      5.025      6.396
REMARK  Name = Thioguanosine.pdbqt.pdb
REMARK  5 active torsions:
REMARK  status: ('A' for Active; 'I' for Inactive)
REMARK    1  A    between atoms: N_2  and  C1*_12
REMARK    2  A    between atoms: C4*_14  and  C5*_17
REMARK    3  A    between atoms: C3*_15  and  O3*_20
REMARK    4  A    between atoms: C2*_16  and  O2*_22
REMARK    5  A    between atoms: C5*_17  and  O5*_18
REMARK                            x       y       z     vdW  Elec       q    Type
REMARK                         _______ _______ _______ _____ _____    ______ ____
ROOT
ATOM      1  S   UNL     1      57.089 241.949 354.191  0.00  0.00    +0.000 S 
ATOM      2  N   UNL     1      53.995 240.740 350.592  0.00  0.00    +0.000 N 
ATOM      3  N   UNL     1      55.042 238.834 351.744  0.00  0.00    +0.000 N 
ATOM      4  N   UNL     1      54.982 242.356 351.833  0.00  0.00    +0.000 NA
ATOM      5  N   UNL     1      56.587 239.366 353.471  0.00  0.00    +0.000 NA
ATOM      6  C   UNL     1      54.806 240.139 351.520  0.00  0.00    +0.000 A 
ATOM      7  C   UNL     1      54.136 242.094 350.856  0.00  0.00    +0.000 A 
ATOM      8  C   UNL     1      55.416 241.124 352.255  0.00  0.00    +0.000 A 
ATOM      9  C   UNL     1      56.366 240.734 353.300  0.00  0.00    +0.000 A 
ATOM     10  C   UNL     1      55.942 238.518 352.725  0.00  0.00    +0.000 A 
ATOM     11  H   UNL     1      54.627 238.094 351.182  0.00  0.00    +0.000 HD
ATOM     12  N   UNL     1      56.134 237.185 352.875  0.00  0.00    +0.000 N 
ATOM     13  H   UNL     1      55.281 236.642 352.916  0.00  0.00    +0.000 HD
ATOM     14  H   UNL     1      56.715 236.999 353.690  0.00  0.00    +0.000 HD
ENDROOT
BRANCH   2  15
ATOM     15  C1* UNL     1      53.212 240.199 349.590  0.00  0.00    +0.000 A 
ATOM     16  O4* UNL     1      52.078 239.402 349.875  0.00  0.00    +0.000 OA
ATOM     17  C4* UNL     1      51.492 238.982 348.670  0.00  0.00    +0.000 A 
ATOM     18  C3* UNL     1      52.258 239.527 347.586  0.00  0.00    +0.000 A 
ATOM     19  C2* UNL     1      53.323 240.293 348.155  0.00  0.00    +0.000 A 
BRANCH  18  20
ATOM     20  O3* UNL     1      52.431 238.889 346.387  0.00  0.00    +0.000 OA
ATOM     21  H3* UNL     1      52.316 237.925 346.474  0.00  0.00    +0.000 HD
ENDBRANCH  18  20
BRANCH  19  22
ATOM     22  O2* UNL     1      54.521 240.416 347.506  0.00  0.00    +0.000 OA
ATOM     23  H2* UNL     1      54.455 240.001 346.622  0.00  0.00    +0.000 HD
ENDBRANCH  19  22
BRANCH  17  24
ATOM     24  C5* UNL     1      50.505 237.981 348.610  0.00  0.00    +0.000 C 
BRANCH  24  25
ATOM     25  O5* UNL     1      49.557 237.052 348.549  0.00  0.00    +0.000 OA
ATOM     26  H5* UNL     1      48.829 237.263 349.160  0.00  0.00    +0.000 HD
ENDBRANCH  24  25
ENDBRANCH  17  24
ENDBRANCH   2  15
TORSDOF 5
ENDMDL
MODEL 6
REMARK VINA RESULT:      -4.3      1.277      2.411
REMARK  Name = Thioguanosine.pdbqt.pdb
REMARK  5 active torsions:
REMARK  status: ('A' for Active; 'I' for Inactive)
REMARK    1  A    between atoms: N_2  and  C1*_12
REMARK    2  A    between atoms: C4*_14  and  C5*_17
REMARK    3  A    between atoms: C3*_15  and  O3*_20
REMARK    4  A    between atoms: C2*_16  and  O2*_22
REMARK    5  A    between atoms: C5*_17  and  O5*_18
REMARK                            x       y       z     vdW  Elec       q    Type
REMARK                         _______ _______ _______ _____ _____    ______ ____
ROOT
ATOM      1  S   UNL     1      55.860 247.809 345.954  0.00  0.00    +0.000 S 
ATOM      2  N   UNL     1      55.316 243.100 347.186  0.00  0.00    +0.000 N 
ATOM      3  N   UNL     1      53.416 244.079 345.965  0.00  0.00    +0.000 N 
ATOM      4  N   UNL     1      56.608 244.958 347.172  0.00  0.00    +0.000 NA
ATOM      5  N   UNL     1      53.611 246.376 345.381  0.00  0.00    +0.000 NA
ATOM      6  C   UNL     1      54.634 244.097 346.535  0.00  0.00    +0.000 A 
ATOM      7  C   UNL     1      56.521 243.692 347.530  0.00  0.00    +0.000 A 
ATOM      8  C   UNL     1      55.414 245.225 346.548  0.00  0.00    +0.000 A 
ATOM      9  C   UNL     1      54.890 246.448 345.938  0.00  0.00    +0.000 A 
ATOM     10  C   UNL     1      52.965 245.247 345.414  0.00  0.00    +0.000 A 
ATOM     11  H   UNL     1      52.811 243.261 345.982  0.00  0.00    +0.000 HD
ATOM     12  N   UNL     1      51.725 245.148 344.876  0.00  0.00    +0.000 N 
ATOM     13  H   UNL     1      51.590 244.340 344.283  0.00  0.00    +0.000 HD
ATOM     14  H   UNL     1      51.486 246.002 344.376  0.00  0.00    +0.000 HD
ENDROOT
BRANCH   2  15
ATOM     15  C1* UNL     1      54.950 241.802 347.487  0.00  0.00    +0.000 A 
ATOM     16  O4* UNL     1      53.725 241.248 347.043  0.00  0.00    +0.000 OA
ATOM     17  C4* UNL     1      53.618 239.927 347.508  0.00  0.00    +0.000 A 
ATOM     18  C3* UNL     1      54.800 239.620 348.261  0.00  0.00    +0.000 A 
ATOM     19  C2* UNL     1      55.636 240.781 348.240  0.00  0.00    +0.000 A 
BRANCH  18  20
ATOM     20  O3* UNL     1      54.812 238.780 349.341  0.00  0.00    +0.000 OA
ATOM     21  H3* UNL     1      55.493 239.038 349.989  0.00  0.00    +0.000 HD
ENDBRANCH  18  20
BRANCH  19  22
ATOM     22  O2* UNL     1      56.470 241.061 349.288  0.00  0.00    +0.000 OA
ATOM     23  H2* UNL     1      56.055 241.738 349.860  0.00  0.00    +0.000 HD
ENDBRANCH  19  22
BRANCH  17  24
ATOM     24  C5* UNL     1      52.418 239.194 347.450  0.00  0.00    +0.000 C 
BRANCH  24  25
ATOM     25  O5* UNL     1      51.294 238.487 347.412  0.00  0.00    +0.000 OA
ATOM     26  H5* UNL     1      51.452 237.613 347.014  0.00  0.00    +0.000 HD
ENDBRANCH  24  25
ENDBRANCH  17  24
ENDBRANCH   2  15
TORSDOF 5
ENDMDL
MODEL 7
REMARK VINA RESULT:      -4.3      4.200      5.348
REMARK  Name = Thioguanosine.pdbqt.pdb
REMARK  5 active torsions:
REMARK  status: ('A' for Active; 'I' for Inactive)
REMARK    1  A    between atoms: N_2  and  C1*_12
REMARK    2  A    between atoms: C4*_14  and  C5*_17
REMARK    3  A    between atoms: C3*_15  and  O3*_20
REMARK    4  A    between atoms: C2*_16  and  O2*_22
REMARK    5  A    between atoms: C5*_17  and  O5*_18
REMARK                            x       y       z     vdW  Elec       q    Type
REMARK                         _______ _______ _______ _____ _____    ______ ____
ROOT
ATOM      1  S   UNL     1      59.339 242.108 353.352  0.00  0.00    +0.000 S 
ATOM      2  N   UNL     1      56.061 241.018 349.880  0.00  0.00    +0.000 N 
ATOM      3  N   UNL     1      58.159 242.003 349.052  0.00  0.00    +0.000 N 
ATOM      4  N   UNL     1      56.631 241.016 352.071  0.00  0.00    +0.000 NA
ATOM      5  N   UNL     1      59.768 242.592 350.701  0.00  0.00    +0.000 NA
ATOM      6  C   UNL     1      57.322 241.544 350.000  0.00  0.00    +0.000 A 
ATOM      7  C   UNL     1      55.710 240.699 351.182  0.00  0.00    +0.000 A 
ATOM      8  C   UNL     1      57.653 241.559 351.331  0.00  0.00    +0.000 A 
ATOM      9  C   UNL     1      58.951 242.110 351.726  0.00  0.00    +0.000 A 
ATOM     10  C   UNL     1      59.358 242.515 349.469  0.00  0.00    +0.000 A 
ATOM     11  H   UNL     1      57.912 242.034 348.066  0.00  0.00    +0.000 HD
ATOM     12  N   UNL     1      60.134 242.970 348.456  0.00  0.00    +0.000 N 
ATOM     13  H   UNL     1      60.214 242.334 347.673  0.00  0.00    +0.000 HD
ATOM     14  H   UNL     1      61.055 243.227 348.802  0.00  0.00    +0.000 HD
ENDROOT
BRANCH   2  15
ATOM     15  C1* UNL     1      55.259 240.837 348.769  0.00  0.00    +0.000 A 
ATOM     16  O4* UNL     1      55.044 241.869 347.825  0.00  0.00    +0.000 OA
ATOM     17  C4* UNL     1      54.181 241.405 346.819  0.00  0.00    +0.000 A 
ATOM     18  C3* UNL     1      53.838 240.043 347.116  0.00  0.00    +0.000 A 
ATOM     19  C2* UNL     1      54.516 239.684 348.324  0.00  0.00    +0.000 A 
BRANCH  18  20
ATOM     20  O3* UNL     1      52.626 239.485 346.812  0.00  0.00    +0.000 OA
ATOM     21  H3* UNL     1      52.161 239.179 347.613  0.00  0.00    +0.000 HD
ENDBRANCH  18  20
BRANCH  19  22
ATOM     22  O2* UNL     1      53.974 238.767 349.183  0.00  0.00    +0.000 OA
ATOM     23  H2* UNL     1      53.479 239.235 349.885  0.00  0.00    +0.000 HD
ENDBRANCH  19  22
BRANCH  17  24
ATOM     24  C5* UNL     1      53.579 242.259 345.877  0.00  0.00    +0.000 C 
BRANCH  24  25
ATOM     25  O5* UNL     1      53.032 243.069 344.977  0.00  0.00    +0.000 OA
ATOM     26  H5* UNL     1      52.955 243.973 345.331  0.00  0.00    +0.000 HD
ENDBRANCH  24  25
ENDBRANCH  17  24
ENDBRANCH   2  15
TORSDOF 5
ENDMDL
MODEL 8
REMARK VINA RESULT:      -4.2     17.971     19.042
REMARK  Name = Thioguanosine.pdbqt.pdb
REMARK  5 active torsions:
REMARK  status: ('A' for Active; 'I' for Inactive)
REMARK    1  A    between atoms: N_2  and  C1*_12
REMARK    2  A    between atoms: C4*_14  and  C5*_17
REMARK    3  A    between atoms: C3*_15  and  O3*_20
REMARK    4  A    between atoms: C2*_16  and  O2*_22
REMARK    5  A    between atoms: C5*_17  and  O5*_18
REMARK                            x       y       z     vdW  Elec       q    Type
REMARK                         _______ _______ _______ _____ _____    ______ ____
ROOT
ATOM      1  S   UNL     1      51.432 250.556 331.361  0.00  0.00    +0.000 S 
ATOM      2  N   UNL     1      51.827 246.287 328.992  0.00  0.00    +0.000 N 
ATOM      3  N   UNL     1      53.930 247.546 329.219  0.00  0.00    +0.000 N 
ATOM      4  N   UNL     1      50.526 247.768 330.105  0.00  0.00    +0.000 NA
ATOM      5  N   UNL     1      53.785 249.648 330.323  0.00  0.00    +0.000 NA
ATOM      6  C   UNL     1      52.613 247.337 329.395  0.00  0.00    +0.000 A 
ATOM      7  C   UNL     1      50.570 246.609 329.478  0.00  0.00    +0.000 A 
ATOM      8  C   UNL     1      51.815 248.240 330.051  0.00  0.00    +0.000 A 
ATOM      9  C   UNL     1      52.419 249.475 330.555  0.00  0.00    +0.000 A 
ATOM     10  C   UNL     1      54.449 248.717 329.700  0.00  0.00    +0.000 A 
ATOM     11  H   UNL     1      54.526 246.905 328.702  0.00  0.00    +0.000 HD
ATOM     12  N   UNL     1      55.776 248.858 329.468  0.00  0.00    +0.000 N 
ATOM     13  H   UNL     1      56.329 248.043 329.700  0.00  0.00    +0.000 HD
ATOM     14  H   UNL     1      56.135 249.681 329.947  0.00  0.00    +0.000 HD
ENDROOT
BRANCH   2  15
ATOM     15  C1* UNL     1      52.135 245.158 328.258  0.00  0.00    +0.000 A 
ATOM     16  O4* UNL     1      52.701 245.238 326.964  0.00  0.00    +0.000 OA
ATOM     17  C4* UNL     1      52.891 243.941 326.459  0.00  0.00    +0.000 A 
ATOM     18  C3* UNL     1      52.444 243.005 327.452  0.00  0.00    +0.000 A 
ATOM     19  C2* UNL     1      51.983 243.759 328.576  0.00  0.00    +0.000 A 
BRANCH  18  20
ATOM     20  O3* UNL     1      51.876 241.797 327.150  0.00  0.00    +0.000 OA
ATOM     21  H3* UNL     1      50.991 241.906 326.753  0.00  0.00    +0.000 HD
ENDBRANCH  18  20
BRANCH  19  22
ATOM     22  O2* UNL     1      50.982 243.280 329.376  0.00  0.00    +0.000 OA
ATOM     23  H2* UNL     1      50.117 243.461 328.956  0.00  0.00    +0.000 HD
ENDBRANCH  19  22
BRANCH  17  24
ATOM     24  C5* UNL     1      53.201 243.685 325.111  0.00  0.00    +0.000 C 
BRANCH  24  25
ATOM     25  O5* UNL     1      53.491 243.421 323.841  0.00  0.00    +0.000 OA
ATOM     26  H5* UNL     1      52.696 243.502 323.284  0.00  0.00    +0.000 HD
ENDBRANCH  24  25
ENDBRANCH  17  24
ENDBRANCH   2  15
TORSDOF 5
ENDMDL
MODEL 9
REMARK VINA RESULT:      -4.1     10.772     13.203
REMARK  Name = Thioguanosine.pdbqt.pdb
REMARK  5 active torsions:
REMARK  status: ('A' for Active; 'I' for Inactive)
REMARK    1  A    between atoms: N_2  and  C1*_12
REMARK    2  A    between atoms: C4*_14  and  C5*_17
REMARK    3  A    between atoms: C3*_15  and  O3*_20
REMARK    4  A    between atoms: C2*_16  and  O2*_22
REMARK    5  A    between atoms: C5*_17  and  O5*_18
REMARK                            x       y       z     vdW  Elec       q    Type
REMARK                         _______ _______ _______ _____ _____    ______ ____
ROOT
ATOM      1  S   UNL     1      47.234 238.185 349.028  0.00  0.00    +0.000 S 
ATOM      2  N   UNL     1      44.892 234.473 346.853  0.00  0.00    +0.000 N 
ATOM      3  N   UNL     1      46.335 235.802 345.367  0.00  0.00    +0.000 N 
ATOM      4  N   UNL     1      45.347 235.630 348.745  0.00  0.00    +0.000 NA
ATOM      5  N   UNL     1      47.462 237.644 346.364  0.00  0.00    +0.000 NA
ATOM      6  C   UNL     1      45.774 235.478 346.545  0.00  0.00    +0.000 A 
ATOM      7  C   UNL     1      44.692 234.615 348.217  0.00  0.00    +0.000 A 
ATOM      8  C   UNL     1      46.030 236.187 347.692  0.00  0.00    +0.000 A 
ATOM      9  C   UNL     1      46.927 237.342 347.618  0.00  0.00    +0.000 A 
ATOM     10  C   UNL     1      47.161 236.893 345.344  0.00  0.00    +0.000 A 
ATOM     11  H   UNL     1      46.125 235.310 344.502  0.00  0.00    +0.000 HD
ATOM     12  N   UNL     1      47.671 237.162 344.118  0.00  0.00    +0.000 N 
ATOM     13  H   UNL     1      48.050 236.356 343.638  0.00  0.00    +0.000 HD
ATOM     14  H   UNL     1      48.367 237.902 344.177  0.00  0.00    +0.000 HD
ENDROOT
BRANCH   2  15
ATOM     15  C1* UNL     1      44.287 233.525 346.051  0.00  0.00    +0.000 A 
ATOM     16  O4* UNL     1      42.955 233.670 345.596  0.00  0.00    +0.000 OA
ATOM     17  C4* UNL     1      42.607 232.553 344.817  0.00  0.00    +0.000 A 
ATOM     18  C3* UNL     1      43.740 231.674 344.764  0.00  0.00    +0.000 A 
ATOM     19  C2* UNL     1      44.790 232.281 345.521  0.00  0.00    +0.000 A 
BRANCH  18  20
ATOM     20  O3* UNL     1      43.636 230.311 344.694  0.00  0.00    +0.000 OA
ATOM     21  H3* UNL     1      43.031 229.962 345.375  0.00  0.00    +0.000 HD
ENDBRANCH  18  20
BRANCH  19  22
ATOM     22  O2* UNL     1      45.716 231.513 346.173  0.00  0.00    +0.000 OA
ATOM     23  H2* UNL     1      45.408 231.340 347.086  0.00  0.00    +0.000 HD
ENDBRANCH  19  22
BRANCH  17  24
ATOM     24  C5* UNL     1      41.282 232.278 344.430  0.00  0.00    +0.000 C 
BRANCH  24  25
ATOM     25  O5* UNL     1      40.039 231.997 344.055  0.00  0.00    +0.000 OA
ATOM     26  H5* UNL     1      39.718 232.654 343.413  0.00  0.00    +0.000 HD
ENDBRANCH  24  25
ENDBRANCH  17  24
ENDBRANCH   2  15
TORSDOF 5
ENDMDL
