MODEL 1
REMARK VINA RESULT:      -5.0      0.000      0.000
REMARK  Name = Trichostatin_A.pdbqt.pdb
REMARK  6 active torsions:
REMARK  status: ('A' for Active; 'I' for Inactive)
REMARK    1  A    between atoms: C_1  and  C_15
REMARK    2  A    between atoms: C_4  and  C_6
REMARK    3  A    between atoms: C_7  and  C_10
REMARK    4  A    between atoms: N_9  and  O_12
REMARK    5  A    between atoms: C_15  and  C_16
REMARK    6  A    between atoms: C_17  and  N_22
REMARK                            x       y       z     vdW  Elec       q    Type
REMARK                         _______ _______ _______ _____ _____    ______ ____
ROOT
ATOM      1  C   UNL     1      74.028 220.786 342.083  0.00  0.00    +0.000 C 
ATOM      2  C   UNL     1      74.720 219.526 341.606  0.00  0.00    +0.000 C 
ATOM      3  C   UNL     1      72.619 220.808 341.944  0.00  0.00    +0.000 C 
ATOM      4  C   UNL     1      71.334 220.882 341.834  0.00  0.00    +0.000 C 
ATOM      5  C   UNL     1      70.471 220.547 343.012  0.00  0.00    +0.000 C 
ENDROOT
BRANCH   4   6
ATOM      6  C   UNL     1      70.753 221.463 340.683  0.00  0.00    +0.000 C 
ATOM      7  C   UNL     1      70.257 221.954 339.704  0.00  0.00    +0.000 C 
BRANCH   7  10
ATOM      8  O   UNL     1      68.882 221.900 337.846  0.00  0.00    +0.000 OA
ATOM      9  N   UNL     1      70.017 223.840 338.270  0.00  0.00    +0.000 N 
ATOM     10  C   UNL     1      69.660 222.548 338.537  0.00  0.00    +0.000 C 
ATOM     11  H   UNL     1      70.664 224.386 338.826  0.00  0.00    +0.000 HD
BRANCH   9  12
ATOM     12  O   UNL     1      69.459 224.450 337.127  0.00  0.00    +0.000 OA
ATOM     13  H   UNL     1      70.148 224.306 336.443  0.00  0.00    +0.000 HD
ENDBRANCH   9  12
ENDBRANCH   7  10
ENDBRANCH   4   6
BRANCH   1  15
ATOM     14  O   UNL     1      75.198 222.242 343.551  0.00  0.00    +0.000 OA
ATOM     15  C   UNL     1      74.751 222.050 342.420  0.00  0.00    +0.000 C 
BRANCH  15  16
ATOM     16  C   UNL     1      74.955 223.089 341.390  0.00  0.00    +0.000 A 
ATOM     17  C   UNL     1      75.448 224.959 339.324  0.00  0.00    +0.000 A 
ATOM     18  C   UNL     1      73.898 223.601 340.644  0.00  0.00    +0.000 A 
ATOM     19  C   UNL     1      76.258 223.480 341.095  0.00  0.00    +0.000 A 
ATOM     20  C   UNL     1      74.147 224.532 339.635  0.00  0.00    +0.000 A 
ATOM     21  C   UNL     1      76.494 224.412 340.084  0.00  0.00    +0.000 A 
BRANCH  17  22
ATOM     22  N   UNL     1      75.691 225.919 338.310  0.00  0.00    +0.000 N 
ATOM     23  C   UNL     1      74.591 226.595 337.641  0.00  0.00    +0.000 C 
ATOM     24  C   UNL     1      76.960 225.955 337.602  0.00  0.00    +0.000 C 
ENDBRANCH  17  22
ENDBRANCH  15  16
ENDBRANCH   1  15
TORSDOF 6
ENDMDL
MODEL 2
REMARK VINA RESULT:      -4.9      3.596      7.592
REMARK  Name = Trichostatin_A.pdbqt.pdb
REMARK  6 active torsions:
REMARK  status: ('A' for Active; 'I' for Inactive)
REMARK    1  A    between atoms: C_1  and  C_15
REMARK    2  A    between atoms: C_4  and  C_6
REMARK    3  A    between atoms: C_7  and  C_10
REMARK    4  A    between atoms: N_9  and  O_12
REMARK    5  A    between atoms: C_15  and  C_16
REMARK    6  A    between atoms: C_17  and  N_22
REMARK                            x       y       z     vdW  Elec       q    Type
REMARK                         _______ _______ _______ _____ _____    ______ ____
ROOT
ATOM      1  C   UNL     1      71.181 222.670 339.427  0.00  0.00    +0.000 C 
ATOM      2  C   UNL     1      69.955 223.499 339.753  0.00  0.00    +0.000 C 
ATOM      3  C   UNL     1      72.410 223.372 339.386  0.00  0.00    +0.000 C 
ATOM      4  C   UNL     1      73.556 223.965 339.331  0.00  0.00    +0.000 C 
ATOM      5  C   UNL     1      74.458 223.940 340.527  0.00  0.00    +0.000 C 
ENDROOT
BRANCH   4   6
ATOM      6  C   UNL     1      74.040 224.460 338.098  0.00  0.00    +0.000 C 
ATOM      7  C   UNL     1      74.454 224.877 337.050  0.00  0.00    +0.000 C 
BRANCH   7  10
ATOM      8  O   UNL     1      74.591 224.849 334.742  0.00  0.00    +0.000 OA
ATOM      9  N   UNL     1      75.800 226.438 335.856  0.00  0.00    +0.000 N 
ATOM     10  C   UNL     1      74.944 225.375 335.791  0.00  0.00    +0.000 C 
ATOM     11  H   UNL     1      76.107 226.881 336.715  0.00  0.00    +0.000 HD
BRANCH   9  12
ATOM     12  O   UNL     1      76.307 226.946 334.642  0.00  0.00    +0.000 OA
ATOM     13  H   UNL     1      75.802 227.780 334.526  0.00  0.00    +0.000 HD
ENDBRANCH   9  12
ENDBRANCH   7  10
ENDBRANCH   4   6
BRANCH   1  15
ATOM     14  O   UNL     1      71.989 220.450 339.180  0.00  0.00    +0.000 OA
ATOM     15  C   UNL     1      71.116 221.272 338.901  0.00  0.00    +0.000 C 
BRANCH  15  16
ATOM     16  C   UNL     1      69.990 220.850 338.044  0.00  0.00    +0.000 A 
ATOM     17  C   UNL     1      67.723 220.146 336.504  0.00  0.00    +0.000 A 
ATOM     18  C   UNL     1      69.943 221.157 336.688  0.00  0.00    +0.000 A 
ATOM     19  C   UNL     1      68.903 220.220 338.645  0.00  0.00    +0.000 A 
ATOM     20  C   UNL     1      68.828 220.796 335.932  0.00  0.00    +0.000 A 
ATOM     21  C   UNL     1      67.794 219.864 337.878  0.00  0.00    +0.000 A 
BRANCH  17  22
ATOM     22  N   UNL     1      66.600 219.767 335.726  0.00  0.00    +0.000 N 
ATOM     23  C   UNL     1      66.370 220.347 334.413  0.00  0.00    +0.000 C 
ATOM     24  C   UNL     1      65.436 219.151 336.341  0.00  0.00    +0.000 C 
ENDBRANCH  17  22
ENDBRANCH  15  16
ENDBRANCH   1  15
TORSDOF 6
ENDMDL
MODEL 3
REMARK VINA RESULT:      -4.9     31.536     33.480
REMARK  Name = Trichostatin_A.pdbqt.pdb
REMARK  6 active torsions:
REMARK  status: ('A' for Active; 'I' for Inactive)
REMARK    1  A    between atoms: C_1  and  C_15
REMARK    2  A    between atoms: C_4  and  C_6
REMARK    3  A    between atoms: C_7  and  C_10
REMARK    4  A    between atoms: N_9  and  O_12
REMARK    5  A    between atoms: C_15  and  C_16
REMARK    6  A    between atoms: C_17  and  N_22
REMARK                            x       y       z     vdW  Elec       q    Type
REMARK                         _______ _______ _______ _____ _____    ______ ____
ROOT
ATOM      1  C   UNL     1      46.920 240.581 326.179  0.00  0.00    +0.000 C 
ATOM      2  C   UNL     1      46.095 240.877 324.943  0.00  0.00    +0.000 C 
ATOM      3  C   UNL     1      47.706 241.652 326.669  0.00  0.00    +0.000 C 
ATOM      4  C   UNL     1      48.447 242.594 327.152  0.00  0.00    +0.000 C 
ATOM      5  C   UNL     1      47.935 243.426 328.288  0.00  0.00    +0.000 C 
ENDROOT
BRANCH   4   6
ATOM      6  C   UNL     1      49.798 242.711 326.751  0.00  0.00    +0.000 C 
ATOM      7  C   UNL     1      50.945 242.812 326.407  0.00  0.00    +0.000 C 
BRANCH   7  10
ATOM      8  O   UNL     1      52.617 242.898 324.812  0.00  0.00    +0.000 OA
ATOM      9  N   UNL     1      53.233 243.096 327.006  0.00  0.00    +0.000 N 
ATOM     10  C   UNL     1      52.320 242.937 326.001  0.00  0.00    +0.000 C 
ATOM     11  H   UNL     1      53.006 243.123 327.993  0.00  0.00    +0.000 HD
BRANCH   9  12
ATOM     12  O   UNL     1      54.591 243.213 326.643  0.00  0.00    +0.000 OA
ATOM     13  H   UNL     1      54.904 242.282 326.665  0.00  0.00    +0.000 HD
ENDBRANCH   9  12
ENDBRANCH   7  10
ENDBRANCH   4   6
BRANCH   1  15
ATOM     14  O   UNL     1      47.087 238.976 327.923  0.00  0.00    +0.000 OA
ATOM     15  C   UNL     1      47.143 239.204 326.714  0.00  0.00    +0.000 C 
BRANCH  15  16
ATOM     16  C   UNL     1      47.424 238.084 325.793  0.00  0.00    +0.000 A 
ATOM     17  C   UNL     1      48.066 235.862 324.162  0.00  0.00    +0.000 A 
ATOM     18  C   UNL     1      46.417 237.244 325.328  0.00  0.00    +0.000 A 
ATOM     19  C   UNL     1      48.752 237.807 325.476  0.00  0.00    +0.000 A 
ATOM     20  C   UNL     1      46.739 236.158 324.514  0.00  0.00    +0.000 A 
ATOM     21  C   UNL     1      49.061 236.718 324.661  0.00  0.00    +0.000 A 
BRANCH  17  22
ATOM     22  N   UNL     1      48.383 234.767 323.320  0.00  0.00    +0.000 N 
ATOM     23  C   UNL     1      48.220 234.860 321.879  0.00  0.00    +0.000 C 
ATOM     24  C   UNL     1      48.457 233.414 323.847  0.00  0.00    +0.000 C 
ENDBRANCH  17  22
ENDBRANCH  15  16
ENDBRANCH   1  15
TORSDOF 6
ENDMDL
MODEL 4
REMARK VINA RESULT:      -4.9     31.988     33.996
REMARK  Name = Trichostatin_A.pdbqt.pdb
REMARK  6 active torsions:
REMARK  status: ('A' for Active; 'I' for Inactive)
REMARK    1  A    between atoms: C_1  and  C_15
REMARK    2  A    between atoms: C_4  and  C_6
REMARK    3  A    between atoms: C_7  and  C_10
REMARK    4  A    between atoms: N_9  and  O_12
REMARK    5  A    between atoms: C_15  and  C_16
REMARK    6  A    between atoms: C_17  and  N_22
REMARK                            x       y       z     vdW  Elec       q    Type
REMARK                         _______ _______ _______ _____ _____    ______ ____
ROOT
ATOM      1  C   UNL     1      55.187 246.485 322.741  0.00  0.00    +0.000 C 
ATOM      2  C   UNL     1      56.483 247.176 322.368  0.00  0.00    +0.000 C 
ATOM      3  C   UNL     1      54.278 247.248 323.512  0.00  0.00    +0.000 C 
ATOM      4  C   UNL     1      53.417 247.900 324.221  0.00  0.00    +0.000 C 
ATOM      5  C   UNL     1      52.279 248.598 323.541  0.00  0.00    +0.000 C 
ENDROOT
BRANCH   4   6
ATOM      6  C   UNL     1      53.430 247.790 325.631  0.00  0.00    +0.000 C 
ATOM      7  C   UNL     1      53.437 247.695 326.829  0.00  0.00    +0.000 C 
BRANCH   7  10
ATOM      8  O   UNL     1      52.605 246.899 328.834  0.00  0.00    +0.000 OA
ATOM      9  N   UNL     1      54.446 248.254 328.913  0.00  0.00    +0.000 N 
ATOM     10  C   UNL     1      53.452 247.577 328.263  0.00  0.00    +0.000 C 
ATOM     11  H   UNL     1      55.149 248.824 328.458  0.00  0.00    +0.000 HD
BRANCH   9  12
ATOM     12  O   UNL     1      54.485 248.168 330.321  0.00  0.00    +0.000 OA
ATOM     13  H   UNL     1      55.430 248.337 330.524  0.00  0.00    +0.000 HD
ENDBRANCH   9  12
ENDBRANCH   7  10
ENDBRANCH   4   6
BRANCH   1  15
ATOM     14  O   UNL     1      55.437 244.404 321.623  0.00  0.00    +0.000 OA
ATOM     15  C   UNL     1      54.957 245.017 322.577  0.00  0.00    +0.000 C 
BRANCH  15  16
ATOM     16  C   UNL     1      54.156 244.273 323.569  0.00  0.00    +0.000 A 
ATOM     17  C   UNL     1      52.593 243.005 325.559  0.00  0.00    +0.000 A 
ATOM     18  C   UNL     1      52.974 243.626 323.223  0.00  0.00    +0.000 A 
ATOM     19  C   UNL     1      54.550 244.318 324.904  0.00  0.00    +0.000 A 
ATOM     20  C   UNL     1      52.214 242.992 324.207  0.00  0.00    +0.000 A 
ATOM     21  C   UNL     1      53.782 243.680 325.878  0.00  0.00    +0.000 A 
BRANCH  17  22
ATOM     22  N   UNL     1      51.826 242.344 326.550  0.00  0.00    +0.000 N 
ATOM     23  C   UNL     1      50.648 241.571 326.192  0.00  0.00    +0.000 C 
ATOM     24  C   UNL     1      51.900 242.745 327.946  0.00  0.00    +0.000 C 
ENDBRANCH  17  22
ENDBRANCH  15  16
ENDBRANCH   1  15
TORSDOF 6
ENDMDL
MODEL 5
REMARK VINA RESULT:      -4.9     31.688     33.222
REMARK  Name = Trichostatin_A.pdbqt.pdb
REMARK  6 active torsions:
REMARK  status: ('A' for Active; 'I' for Inactive)
REMARK    1  A    between atoms: C_1  and  C_15
REMARK    2  A    between atoms: C_4  and  C_6
REMARK    3  A    between atoms: C_7  and  C_10
REMARK    4  A    between atoms: N_9  and  O_12
REMARK    5  A    between atoms: C_15  and  C_16
REMARK    6  A    between atoms: C_17  and  N_22
REMARK                            x       y       z     vdW  Elec       q    Type
REMARK                         _______ _______ _______ _____ _____    ______ ____
ROOT
ATOM      1  C   UNL     1      45.948 231.220 321.917  0.00  0.00    +0.000 C 
ATOM      2  C   UNL     1      45.004 231.360 320.740  0.00  0.00    +0.000 C 
ATOM      3  C   UNL     1      45.345 230.907 323.159  0.00  0.00    +0.000 C 
ATOM      4  C   UNL     1      44.844 230.628 324.317  0.00  0.00    +0.000 C 
ATOM      5  C   UNL     1      44.825 229.206 324.790  0.00  0.00    +0.000 C 
ENDROOT
BRANCH   4   6
ATOM      6  C   UNL     1      44.502 231.668 325.212  0.00  0.00    +0.000 C 
ATOM      7  C   UNL     1      44.208 232.553 325.970  0.00  0.00    +0.000 C 
BRANCH   7  10
ATOM      8  O   UNL     1      44.251 233.573 328.045  0.00  0.00    +0.000 OA
ATOM      9  N   UNL     1      43.077 234.609 326.377  0.00  0.00    +0.000 N 
ATOM     10  C   UNL     1      43.857 233.607 326.884  0.00  0.00    +0.000 C 
ATOM     11  H   UNL     1      42.737 234.649 325.424  0.00  0.00    +0.000 HD
BRANCH   9  12
ATOM     12  O   UNL     1      42.706 235.654 327.249  0.00  0.00    +0.000 OA
ATOM     13  H   UNL     1      42.666 236.433 326.652  0.00  0.00    +0.000 HD
ENDBRANCH   9  12
ENDBRANCH   7  10
ENDBRANCH   4   6
BRANCH   1  15
ATOM     14  O   UNL     1      48.251 230.909 321.425  0.00  0.00    +0.000 OA
ATOM     15  C   UNL     1      47.379 231.648 321.884  0.00  0.00    +0.000 C 
BRANCH  15  16
ATOM     16  C   UNL     1      47.771 232.977 322.393  0.00  0.00    +0.000 A 
ATOM     17  C   UNL     1      48.697 235.465 323.374  0.00  0.00    +0.000 A 
ATOM     18  C   UNL     1      47.606 234.133 321.636  0.00  0.00    +0.000 A 
ATOM     19  C   UNL     1      48.421 233.048 323.623  0.00  0.00    +0.000 A 
ATOM     20  C   UNL     1      48.053 235.358 322.131  0.00  0.00    +0.000 A 
ATOM     21  C   UNL     1      48.864 234.279 324.107  0.00  0.00    +0.000 A 
BRANCH  17  22
ATOM     22  N   UNL     1      49.134 236.716 323.878  0.00  0.00    +0.000 N 
ATOM     23  C   UNL     1      48.769 237.151 325.216  0.00  0.00    +0.000 C 
ATOM     24  C   UNL     1      49.566 237.776 322.981  0.00  0.00    +0.000 C 
ENDBRANCH  17  22
ENDBRANCH  15  16
ENDBRANCH   1  15
TORSDOF 6
ENDMDL
MODEL 6
REMARK VINA RESULT:      -4.8      2.877      6.398
REMARK  Name = Trichostatin_A.pdbqt.pdb
REMARK  6 active torsions:
REMARK  status: ('A' for Active; 'I' for Inactive)
REMARK    1  A    between atoms: C_1  and  C_15
REMARK    2  A    between atoms: C_4  and  C_6
REMARK    3  A    between atoms: C_7  and  C_10
REMARK    4  A    between atoms: N_9  and  O_12
REMARK    5  A    between atoms: C_15  and  C_16
REMARK    6  A    between atoms: C_17  and  N_22
REMARK                            x       y       z     vdW  Elec       q    Type
REMARK                         _______ _______ _______ _____ _____    ______ ____
ROOT
ATOM      1  C   UNL     1      69.956 219.944 339.107  0.00  0.00    +0.000 C 
ATOM      2  C   UNL     1      70.260 219.212 337.816  0.00  0.00    +0.000 C 
ATOM      3  C   UNL     1      70.223 221.335 339.107  0.00  0.00    +0.000 C 
ATOM      4  C   UNL     1      70.455 222.604 339.161  0.00  0.00    +0.000 C 
ATOM      5  C   UNL     1      69.335 223.570 338.920  0.00  0.00    +0.000 C 
ENDROOT
BRANCH   4   6
ATOM      6  C   UNL     1      71.698 223.078 339.639  0.00  0.00    +0.000 C 
ATOM      7  C   UNL     1      72.757 223.481 340.042  0.00  0.00    +0.000 C 
BRANCH   7  10
ATOM      8  O   UNL     1      74.546 223.454 341.507  0.00  0.00    +0.000 OA
ATOM      9  N   UNL     1      74.567 225.016 339.836  0.00  0.00    +0.000 N 
ATOM     10  C   UNL     1      74.021 223.970 340.527  0.00  0.00    +0.000 C 
ATOM     11  H   UNL     1      74.143 225.458 339.029  0.00  0.00    +0.000 HD
BRANCH   9  12
ATOM     12  O   UNL     1      75.801 225.526 340.290  0.00  0.00    +0.000 OA
ATOM     13  H   UNL     1      75.532 226.302 340.827  0.00  0.00    +0.000 HD
ENDBRANCH   9  12
ENDBRANCH   7  10
ENDBRANCH   4   6
BRANCH   1  15
ATOM     14  O   UNL     1      68.729 218.457 340.494  0.00  0.00    +0.000 OA
ATOM     15  C   UNL     1      69.663 219.254 340.399  0.00  0.00    +0.000 C 
BRANCH  15  16
ATOM     16  C   UNL     1      70.503 219.508 341.587  0.00  0.00    +0.000 A 
ATOM     17  C   UNL     1      72.219 220.102 343.757  0.00  0.00    +0.000 A 
ATOM     18  C   UNL     1      70.008 220.161 342.711  0.00  0.00    +0.000 A 
ATOM     19  C   UNL     1      71.853 219.174 341.524  0.00  0.00    +0.000 A 
ATOM     20  C   UNL     1      70.856 220.440 343.783  0.00  0.00    +0.000 A 
ATOM     21  C   UNL     1      72.691 219.458 342.603  0.00  0.00    +0.000 A 
BRANCH  17  22
ATOM     22  N   UNL     1      73.071 220.372 344.857  0.00  0.00    +0.000 N 
ATOM     23  C   UNL     1      72.536 220.502 346.203  0.00  0.00    +0.000 C 
ATOM     24  C   UNL     1      74.390 220.951 344.659  0.00  0.00    +0.000 C 
ENDBRANCH  17  22
ENDBRANCH  15  16
ENDBRANCH   1  15
TORSDOF 6
ENDMDL
MODEL 7
REMARK VINA RESULT:      -4.8     26.179     27.777
REMARK  Name = Trichostatin_A.pdbqt.pdb
REMARK  6 active torsions:
REMARK  status: ('A' for Active; 'I' for Inactive)
REMARK    1  A    between atoms: C_1  and  C_15
REMARK    2  A    between atoms: C_4  and  C_6
REMARK    3  A    between atoms: C_7  and  C_10
REMARK    4  A    between atoms: N_9  and  O_12
REMARK    5  A    between atoms: C_15  and  C_16
REMARK    6  A    between atoms: C_17  and  N_22
REMARK                            x       y       z     vdW  Elec       q    Type
REMARK                         _______ _______ _______ _____ _____    ______ ____
ROOT
ATOM      1  C   UNL     1      52.760 240.026 348.232  0.00  0.00    +0.000 C 
ATOM      2  C   UNL     1      52.172 239.221 347.090  0.00  0.00    +0.000 C 
ATOM      3  C   UNL     1      52.848 241.423 348.022  0.00  0.00    +0.000 C 
ATOM      4  C   UNL     1      52.958 242.702 347.878  0.00  0.00    +0.000 C 
ATOM      5  C   UNL     1      51.896 243.600 348.437  0.00  0.00    +0.000 C 
ENDROOT
BRANCH   4   6
ATOM      6  C   UNL     1      54.157 243.260 347.380  0.00  0.00    +0.000 C 
ATOM      7  C   UNL     1      55.175 243.738 346.954  0.00  0.00    +0.000 C 
BRANCH   7  10
ATOM      8  O   UNL     1      56.388 244.964 345.414  0.00  0.00    +0.000 OA
ATOM      9  N   UNL     1      57.520 244.078 347.193  0.00  0.00    +0.000 N 
ATOM     10  C   UNL     1      56.395 244.311 346.452  0.00  0.00    +0.000 C 
ATOM     11  H   UNL     1      57.546 243.535 348.048  0.00  0.00    +0.000 HD
BRANCH   9  12
ATOM     12  O   UNL     1      58.736 244.618 346.724  0.00  0.00    +0.000 OA
ATOM     13  H   UNL     1      58.443 245.247 346.030  0.00  0.00    +0.000 HD
ENDBRANCH   9  12
ENDBRANCH   7  10
ENDBRANCH   4   6
BRANCH   1  15
ATOM     14  O   UNL     1      53.051 238.377 349.917  0.00  0.00    +0.000 OA
ATOM     15  C   UNL     1      53.467 239.412 349.396  0.00  0.00    +0.000 C 
BRANCH  15  16
ATOM     16  C   UNL     1      54.692 240.036 349.937  0.00  0.00    +0.000 A 
ATOM     17  C   UNL     1      57.048 241.333 350.819  0.00  0.00    +0.000 A 
ATOM     18  C   UNL     1      54.679 240.791 351.105  0.00  0.00    +0.000 A 
ATOM     19  C   UNL     1      55.864 239.946 349.189  0.00  0.00    +0.000 A 
ATOM     20  C   UNL     1      55.847 241.417 351.541  0.00  0.00    +0.000 A 
ATOM     21  C   UNL     1      57.025 240.577 349.636  0.00  0.00    +0.000 A 
BRANCH  17  22
ATOM     22  N   UNL     1      58.235 241.957 351.277  0.00  0.00    +0.000 N 
ATOM     23  C   UNL     1      59.240 242.432 350.340  0.00  0.00    +0.000 C 
ATOM     24  C   UNL     1      58.702 241.768 352.641  0.00  0.00    +0.000 C 
ENDBRANCH  17  22
ENDBRANCH  15  16
ENDBRANCH   1  15
TORSDOF 6
ENDMDL
MODEL 8
REMARK VINA RESULT:      -4.8     32.510     33.726
REMARK  Name = Trichostatin_A.pdbqt.pdb
REMARK  6 active torsions:
REMARK  status: ('A' for Active; 'I' for Inactive)
REMARK    1  A    between atoms: C_1  and  C_15
REMARK    2  A    between atoms: C_4  and  C_6
REMARK    3  A    between atoms: C_7  and  C_10
REMARK    4  A    between atoms: N_9  and  O_12
REMARK    5  A    between atoms: C_15  and  C_16
REMARK    6  A    between atoms: C_17  and  N_22
REMARK                            x       y       z     vdW  Elec       q    Type
REMARK                         _______ _______ _______ _____ _____    ______ ____
ROOT
ATOM      1  C   UNL     1      51.070 245.949 327.315  0.00  0.00    +0.000 C 
ATOM      2  C   UNL     1      50.409 246.610 328.508  0.00  0.00    +0.000 C 
ATOM      3  C   UNL     1      50.224 245.163 326.497  0.00  0.00    +0.000 C 
ATOM      4  C   UNL     1      49.497 244.429 325.721  0.00  0.00    +0.000 C 
ATOM      5  C   UNL     1      48.933 245.018 324.464  0.00  0.00    +0.000 C 
ENDROOT
BRANCH   4   6
ATOM      6  C   UNL     1      49.399 243.037 325.948  0.00  0.00    +0.000 C 
ATOM      7  C   UNL     1      49.315 241.854 326.145  0.00  0.00    +0.000 C 
BRANCH   7  10
ATOM      8  O   UNL     1      48.502 240.012 327.282  0.00  0.00    +0.000 OA
ATOM      9  N   UNL     1      49.931 239.635 325.537  0.00  0.00    +0.000 N 
ATOM     10  C   UNL     1      49.209 240.437 326.375  0.00  0.00    +0.000 C 
ATOM     11  H   UNL     1      50.526 239.970 324.788  0.00  0.00    +0.000 HD
BRANCH   9  12
ATOM     12  O   UNL     1      49.858 238.241 325.740  0.00  0.00    +0.000 OA
ATOM     13  H   UNL     1      49.952 237.882 324.831  0.00  0.00    +0.000 HD
ENDBRANCH   9  12
ENDBRANCH   7  10
ENDBRANCH   4   6
BRANCH   1  15
ATOM     14  O   UNL     1      53.318 246.048 328.078  0.00  0.00    +0.000 OA
ATOM     15  C   UNL     1      52.551 245.868 327.131  0.00  0.00    +0.000 C 
BRANCH  15  16
ATOM     16  C   UNL     1      53.121 245.556 325.805  0.00  0.00    +0.000 A 
ATOM     17  C   UNL     1      54.367 245.046 323.316  0.00  0.00    +0.000 A 
ATOM     18  C   UNL     1      53.340 244.247 325.388  0.00  0.00    +0.000 A 
ATOM     19  C   UNL     1      53.545 246.613 325.004  0.00  0.00    +0.000 A 
ATOM     20  C   UNL     1      53.943 244.002 324.154  0.00  0.00    +0.000 A 
ATOM     21  C   UNL     1      54.147 246.355 323.772  0.00  0.00    +0.000 A 
BRANCH  17  22
ATOM     22  N   UNL     1      54.963 244.789 322.056  0.00  0.00    +0.000 N 
ATOM     23  C   UNL     1      56.164 245.495 321.640  0.00  0.00    +0.000 C 
ATOM     24  C   UNL     1      54.205 244.174 320.979  0.00  0.00    +0.000 C 
ENDBRANCH  17  22
ENDBRANCH  15  16
ENDBRANCH   1  15
TORSDOF 6
ENDMDL
MODEL 9
REMARK VINA RESULT:      -4.7     31.840     33.530
REMARK  Name = Trichostatin_A.pdbqt.pdb
REMARK  6 active torsions:
REMARK  status: ('A' for Active; 'I' for Inactive)
REMARK    1  A    between atoms: C_1  and  C_15
REMARK    2  A    between atoms: C_4  and  C_6
REMARK    3  A    between atoms: C_7  and  C_10
REMARK    4  A    between atoms: N_9  and  O_12
REMARK    5  A    between atoms: C_15  and  C_16
REMARK    6  A    between atoms: C_17  and  N_22
REMARK                            x       y       z     vdW  Elec       q    Type
REMARK                         _______ _______ _______ _____ _____    ______ ____
ROOT
ATOM      1  C   UNL     1      47.342 232.569 321.359  0.00  0.00    +0.000 C 
ATOM      2  C   UNL     1      47.350 231.250 320.614  0.00  0.00    +0.000 C 
ATOM      3  C   UNL     1      47.310 233.734 320.554  0.00  0.00    +0.000 C 
ATOM      4  C   UNL     1      47.288 234.827 319.866  0.00  0.00    +0.000 C 
ATOM      5  C   UNL     1      45.981 235.517 319.619  0.00  0.00    +0.000 C 
ENDROOT
BRANCH   4   6
ATOM      6  C   UNL     1      48.498 235.473 319.521  0.00  0.00    +0.000 C 
ATOM      7  C   UNL     1      49.526 236.020 319.225  0.00  0.00    +0.000 C 
BRANCH   7  10
ATOM      8  O   UNL     1      50.755 237.883 318.619  0.00  0.00    +0.000 OA
ATOM      9  N   UNL     1      51.873 235.900 318.839  0.00  0.00    +0.000 N 
ATOM     10  C   UNL     1      50.753 236.683 318.871  0.00  0.00    +0.000 C 
ATOM     11  H   UNL     1      51.888 234.906 319.037  0.00  0.00    +0.000 HD
BRANCH   9  12
ATOM     12  O   UNL     1      53.092 236.515 318.486  0.00  0.00    +0.000 OA
ATOM     13  H   UNL     1      53.298 237.061 319.276  0.00  0.00    +0.000 HD
ENDBRANCH   9  12
ENDBRANCH   7  10
ENDBRANCH   4   6
BRANCH   1  15
ATOM     14  O   UNL     1      47.765 231.696 323.527  0.00  0.00    +0.000 OA
ATOM     15  C   UNL     1      47.630 232.695 322.820  0.00  0.00    +0.000 C 
BRANCH  15  16
ATOM     16  C   UNL     1      47.771 234.028 323.440  0.00  0.00    +0.000 A 
ATOM     17  C   UNL     1      48.123 236.639 324.472  0.00  0.00    +0.000 A 
ATOM     18  C   UNL     1      46.666 234.792 323.800  0.00  0.00    +0.000 A 
ATOM     19  C   UNL     1      49.049 234.566 323.563  0.00  0.00    +0.000 A 
ATOM     20  C   UNL     1      46.846 236.073 324.320  0.00  0.00    +0.000 A 
ATOM     21  C   UNL     1      49.217 235.849 324.085  0.00  0.00    +0.000 A 
BRANCH  17  22
ATOM     22  N   UNL     1      48.299 237.935 325.018  0.00  0.00    +0.000 N 
ATOM     23  C   UNL     1      47.588 238.344 326.218  0.00  0.00    +0.000 C 
ATOM     24  C   UNL     1      48.822 239.024 324.208  0.00  0.00    +0.000 C 
ENDBRANCH  17  22
ENDBRANCH  15  16
ENDBRANCH   1  15
TORSDOF 6
ENDMDL
