MODEL 1
REMARK VINA RESULT:      -6.5      0.000      0.000
REMARK  Name = Troglitazone.pdbqt.pdb
REMARK  4 active torsions:
REMARK  status: ('A' for Active; 'I' for Inactive)
REMARK    1  A    between atoms: C_1  and  O_2
REMARK    2  A    between atoms: C_1  and  C_18
REMARK    3  A    between atoms: O_2  and  C_3
REMARK    4  A    between atoms: C_26  and  O_32
REMARK                            x       y       z     vdW  Elec       q    Type
REMARK                         _______ _______ _______ _____ _____    ______ ____
ROOT
ATOM      1  C   UNL     1      67.884 218.533 336.531  0.00  0.00    +0.000 C 
ENDROOT
BRANCH   1   2
ATOM      2  C   UNL     1      67.817 219.152 337.866  0.00  0.00    +0.000 C 
ATOM      3  O   UNL     1      68.978 220.052 337.984  0.00  0.00    +0.000 OA
ATOM      4  C   UNL     1      69.652 220.289 339.188  0.00  0.00    +0.000 A 
ATOM      5  C   UNL     1      69.607 219.414 340.313  0.00  0.00    +0.000 A 
ATOM      6  C   UNL     1      70.466 221.441 339.245  0.00  0.00    +0.000 A 
ATOM      7  C   UNL     1      68.772 218.280 340.139  0.00  0.00    +0.000 C 
ATOM      8  C   UNL     1      70.329 219.687 341.481  0.00  0.00    +0.000 A 
ATOM      9  C   UNL     1      67.905 218.160 338.930  0.00  0.00    +0.000 C 
ATOM     10  C   UNL     1      71.120 220.845 341.533  0.00  0.00    +0.000 A 
ATOM     11  C   UNL     1      70.263 218.740 342.661  0.00  0.00    +0.000 C 
ATOM     12  C   UNL     1      71.191 221.715 340.425  0.00  0.00    +0.000 A 
ATOM     13  C   UNL     1      72.097 222.935 340.591  0.00  0.00    +0.000 C 
ATOM     14  C   UNL     1      70.548 222.343 338.020  0.00  0.00    +0.000 C 
ATOM     15  C   UNL     1      66.552 220.030 338.025  0.00  0.00    +0.000 C 
BRANCH  10  16
ATOM     16  O   UNL     1      71.846 221.136 342.676  0.00  0.00    +0.000 OA
ATOM     17  H   UNL     1      72.219 220.297 343.025  0.00  0.00    +0.000 HD
ENDBRANCH  10  16
ENDBRANCH   1   2
BRANCH   1  18
ATOM     18  O   UNL     1      67.954 217.976 335.321  0.00  0.00    +0.000 OA
BRANCH  18  19
ATOM     19  C   UNL     1      67.077 218.492 334.400  0.00  0.00    +0.000 C 
ATOM     20  C   UNL     1      66.231 217.725 333.597  0.00  0.00    +0.000 C 
ATOM     21  C   UNL     1      65.368 218.342 332.694  0.00  0.00    +0.000 C 
ATOM     22  C   UNL     1      65.350 219.731 332.594  0.00  0.00    +0.000 C 
ATOM     23  C   UNL     1      66.192 220.503 333.392  0.00  0.00    +0.000 C 
ATOM     24  C   UNL     1      67.053 219.883 334.295  0.00  0.00    +0.000 C 
ATOM     25  C   UNL     1      64.468 220.365 331.673  0.00  0.00    +0.000 C 
ATOM     26  C   UNL     1      63.601 221.000 330.756  0.00  0.00    +0.000 C 
ATOM     27  S   UNL     1      61.983 220.509 330.428  0.00  0.00    +0.000 S 
ATOM     28  C   UNL     1      61.753 221.804 329.270  0.00  0.00    +0.000 C 
ATOM     29  O   UNL     1      60.718 222.001 328.656  0.00  0.00    +0.000 OA
ATOM     30  N   UNL     1      62.888 222.541 329.172  0.00  0.00    +0.000 N 
ATOM     31  C   UNL     1      63.951 222.187 329.949  0.00  0.00    +0.000 C 
ATOM     32  H   UNL     1      62.936 223.335 328.553  0.00  0.00    +0.000 HD
ATOM     33  O   UNL     1      65.023 222.768 329.972  0.00  0.00    +0.000 OA
ENDBRANCH  18  19
ENDBRANCH   1  18
TORSDOF 4
ENDMDL
MODEL 2
REMARK VINA RESULT:      -6.5      6.825     10.266
REMARK  Name = Troglitazone.pdbqt.pdb
REMARK  4 active torsions:
REMARK  status: ('A' for Active; 'I' for Inactive)
REMARK    1  A    between atoms: C_1  and  O_2
REMARK    2  A    between atoms: C_1  and  C_18
REMARK    3  A    between atoms: O_2  and  C_3
REMARK    4  A    between atoms: C_26  and  O_32
REMARK                            x       y       z     vdW  Elec       q    Type
REMARK                         _______ _______ _______ _____ _____    ______ ____
ROOT
ATOM      1  C   UNL     1      65.936 216.019 340.873  0.00  0.00    +0.000 C 
ENDROOT
BRANCH   1   2
ATOM      2  C   UNL     1      65.747 215.236 342.105  0.00  0.00    +0.000 C 
ATOM      3  O   UNL     1      64.302 215.222 342.393  0.00  0.00    +0.000 OA
ATOM      4  C   UNL     1      63.771 215.208 343.689  0.00  0.00    +0.000 A 
ATOM      5  C   UNL     1      64.487 215.630 344.847  0.00  0.00    +0.000 A 
ATOM      6  C   UNL     1      62.426 214.804 343.821  0.00  0.00    +0.000 A 
ATOM      7  C   UNL     1      65.825 216.032 344.595  0.00  0.00    +0.000 C 
ATOM      8  C   UNL     1      63.894 215.625 346.116  0.00  0.00    +0.000 A 
ATOM      9  C   UNL     1      66.427 215.840 343.244  0.00  0.00    +0.000 C 
ATOM     10  C   UNL     1      62.562 215.203 346.238  0.00  0.00    +0.000 A 
ATOM     11  C   UNL     1      64.678 216.078 347.330  0.00  0.00    +0.000 C 
ATOM     12  C   UNL     1      61.830 214.796 345.102  0.00  0.00    +0.000 A 
ATOM     13  C   UNL     1      60.383 214.374 345.354  0.00  0.00    +0.000 C 
ATOM     14  C   UNL     1      61.653 214.403 342.570  0.00  0.00    +0.000 C 
ATOM     15  C   UNL     1      66.178 213.760 341.916  0.00  0.00    +0.000 C 
BRANCH  10  16
ATOM     16  O   UNL     1      61.951 215.190 347.481  0.00  0.00    +0.000 OA
ATOM     17  H   UNL     1      62.653 215.156 348.167  0.00  0.00    +0.000 HD
ENDBRANCH  10  16
ENDBRANCH   1   2
BRANCH   1  18
ATOM     18  O   UNL     1      66.118 216.729 339.758  0.00  0.00    +0.000 OA
BRANCH  18  19
ATOM     19  C   UNL     1      67.163 217.618 339.810  0.00  0.00    +0.000 C 
ATOM     20  C   UNL     1      68.326 217.429 340.558  0.00  0.00    +0.000 C 
ATOM     21  C   UNL     1      69.336 218.387 340.541  0.00  0.00    +0.000 C 
ATOM     22  C   UNL     1      69.184 219.540 339.775  0.00  0.00    +0.000 C 
ATOM     23  C   UNL     1      68.025 219.735 339.026  0.00  0.00    +0.000 C 
ATOM     24  C   UNL     1      67.016 218.774 339.044  0.00  0.00    +0.000 C 
ATOM     25  C   UNL     1      70.216 220.521 339.755  0.00  0.00    +0.000 C 
ATOM     26  C   UNL     1      71.232 221.502 339.737  0.00  0.00    +0.000 C 
ATOM     27  S   UNL     1      72.922 221.170 339.709  0.00  0.00    +0.000 S 
ATOM     28  C   UNL     1      73.325 222.875 339.688  0.00  0.00    +0.000 C 
ATOM     29  O   UNL     1      74.463 223.312 339.656  0.00  0.00    +0.000 OA
ATOM     30  N   UNL     1      72.190 223.618 339.709  0.00  0.00    +0.000 N 
ATOM     31  C   UNL     1      70.995 222.961 339.728  0.00  0.00    +0.000 C 
ATOM     32  H   UNL     1      72.231 224.624 339.697  0.00  0.00    +0.000 HD
ATOM     33  O   UNL     1      69.902 223.501 339.733  0.00  0.00    +0.000 OA
ENDBRANCH  18  19
ENDBRANCH   1  18
TORSDOF 4
ENDMDL
MODEL 3
REMARK VINA RESULT:      -6.5     28.164     30.475
REMARK  Name = Troglitazone.pdbqt.pdb
REMARK  4 active torsions:
REMARK  status: ('A' for Active; 'I' for Inactive)
REMARK    1  A    between atoms: C_1  and  O_2
REMARK    2  A    between atoms: C_1  and  C_18
REMARK    3  A    between atoms: O_2  and  C_3
REMARK    4  A    between atoms: C_26  and  O_32
REMARK                            x       y       z     vdW  Elec       q    Type
REMARK                         _______ _______ _______ _____ _____    ______ ____
ROOT
ATOM      1  C   UNL     1      51.447 244.095 325.490  0.00  0.00    +0.000 C 
ENDROOT
BRANCH   1   2
ATOM      2  C   UNL     1      52.897 244.222 325.266  0.00  0.00    +0.000 C 
ATOM      3  O   UNL     1      53.192 245.661 325.144  0.00  0.00    +0.000 OA
ATOM      4  C   UNL     1      54.198 246.176 324.317  0.00  0.00    +0.000 A 
ATOM      5  C   UNL     1      54.752 245.476 323.205  0.00  0.00    +0.000 A 
ATOM      6  C   UNL     1      54.630 247.492 324.587  0.00  0.00    +0.000 A 
ATOM      7  C   UNL     1      54.231 244.169 323.018  0.00  0.00    +0.000 C 
ATOM      8  C   UNL     1      55.734 246.055 322.393  0.00  0.00    +0.000 A 
ATOM      9  C   UNL     1      53.317 243.570 324.032  0.00  0.00    +0.000 C 
ATOM     10  C   UNL     1      56.170 247.357 322.682  0.00  0.00    +0.000 A 
ATOM     11  C   UNL     1      56.305 245.289 321.218  0.00  0.00    +0.000 C 
ATOM     12  C   UNL     1      55.623 248.073 323.768  0.00  0.00    +0.000 A 
ATOM     13  C   UNL     1      56.163 249.488 323.975  0.00  0.00    +0.000 C 
ATOM     14  C   UNL     1      53.996 248.250 325.746  0.00  0.00    +0.000 C 
ATOM     15  C   UNL     1      53.708 243.701 326.477  0.00  0.00    +0.000 C 
BRANCH  10  16
ATOM     16  O   UNL     1      57.140 247.954 321.892  0.00  0.00    +0.000 OA
ATOM     17  H   UNL     1      57.591 247.250 321.377  0.00  0.00    +0.000 HD
ENDBRANCH  10  16
ENDBRANCH   1   2
BRANCH   1  18
ATOM     18  O   UNL     1      50.135 243.978 325.703  0.00  0.00    +0.000 OA
BRANCH  18  19
ATOM     19  C   UNL     1      49.637 242.711 325.531  0.00  0.00    +0.000 C 
ATOM     20  C   UNL     1      48.982 241.978 326.523  0.00  0.00    +0.000 C 
ATOM     21  C   UNL     1      48.504 240.698 326.250  0.00  0.00    +0.000 C 
ATOM     22  C   UNL     1      48.683 240.148 324.984  0.00  0.00    +0.000 C 
ATOM     23  C   UNL     1      49.336 240.874 323.990  0.00  0.00    +0.000 C 
ATOM     24  C   UNL     1      49.812 242.154 324.264  0.00  0.00    +0.000 C 
ATOM     25  C   UNL     1      48.194 238.840 324.702  0.00  0.00    +0.000 C 
ATOM     26  C   UNL     1      47.720 237.540 324.419  0.00  0.00    +0.000 C 
ATOM     27  S   UNL     1      46.224 236.893 324.977  0.00  0.00    +0.000 S 
ATOM     28  C   UNL     1      46.503 235.366 324.165  0.00  0.00    +0.000 C 
ATOM     29  O   UNL     1      45.728 234.426 324.184  0.00  0.00    +0.000 OA
ATOM     30  N   UNL     1      47.696 235.399 323.519  0.00  0.00    +0.000 N 
ATOM     31  C   UNL     1      48.432 236.545 323.590  0.00  0.00    +0.000 C 
ATOM     32  H   UNL     1      48.020 234.604 322.991  0.00  0.00    +0.000 HD
ATOM     33  O   UNL     1      49.510 236.717 323.047  0.00  0.00    +0.000 OA
ENDBRANCH  18  19
ENDBRANCH   1  18
TORSDOF 4
ENDMDL
MODEL 4
REMARK VINA RESULT:      -6.4      8.855     12.996
REMARK  Name = Troglitazone.pdbqt.pdb
REMARK  4 active torsions:
REMARK  status: ('A' for Active; 'I' for Inactive)
REMARK    1  A    between atoms: C_1  and  O_2
REMARK    2  A    between atoms: C_1  and  C_18
REMARK    3  A    between atoms: O_2  and  C_3
REMARK    4  A    between atoms: C_26  and  O_32
REMARK                            x       y       z     vdW  Elec       q    Type
REMARK                         _______ _______ _______ _____ _____    ______ ____
ROOT
ATOM      1  C   UNL     1      76.437 224.352 347.314  0.00  0.00    +0.000 C 
ENDROOT
BRANCH   1   2
ATOM      2  C   UNL     1      75.563 223.995 348.445  0.00  0.00    +0.000 C 
ATOM      3  O   UNL     1      74.903 222.725 348.098  0.00  0.00    +0.000 OA
ATOM      4  C   UNL     1      73.603 222.395 348.501  0.00  0.00    +0.000 A 
ATOM      5  C   UNL     1      72.624 223.353 348.898  0.00  0.00    +0.000 A 
ATOM      6  C   UNL     1      73.247 221.030 348.446  0.00  0.00    +0.000 A 
ATOM      7  C   UNL     1      73.085 224.695 348.900  0.00  0.00    +0.000 C 
ATOM      8  C   UNL     1      71.328 222.966 349.261  0.00  0.00    +0.000 A 
ATOM      9  C   UNL     1      74.528 224.996 348.669  0.00  0.00    +0.000 C 
ATOM     10  C   UNL     1      70.991 221.604 349.220  0.00  0.00    +0.000 A 
ATOM     11  C   UNL     1      70.308 224.004 349.678  0.00  0.00    +0.000 C 
ATOM     12  C   UNL     1      71.940 220.642 348.815  0.00  0.00    +0.000 A 
ATOM     13  C   UNL     1      71.456 219.193 348.793  0.00  0.00    +0.000 C 
ATOM     14  C   UNL     1      74.285 220.020 347.972  0.00  0.00    +0.000 C 
ATOM     15  C   UNL     1      76.378 223.738 349.736  0.00  0.00    +0.000 C 
BRANCH  10  16
ATOM     16  O   UNL     1      69.715 221.196 349.572  0.00  0.00    +0.000 OA
ATOM     17  H   UNL     1      69.299 220.779 348.786  0.00  0.00    +0.000 HD
ENDBRANCH  10  16
ENDBRANCH   1   2
BRANCH   1  18
ATOM     18  O   UNL     1      77.228 224.664 346.287  0.00  0.00    +0.000 OA
BRANCH  18  19
ATOM     19  C   UNL     1      76.613 224.632 345.060  0.00  0.00    +0.000 C 
ATOM     20  C   UNL     1      76.553 225.712 344.177  0.00  0.00    +0.000 C 
ATOM     21  C   UNL     1      75.910 225.580 342.948  0.00  0.00    +0.000 C 
ATOM     22  C   UNL     1      75.325 224.366 342.600  0.00  0.00    +0.000 C 
ATOM     23  C   UNL     1      75.381 223.284 343.477  0.00  0.00    +0.000 C 
ATOM     24  C   UNL     1      76.025 223.418 344.705  0.00  0.00    +0.000 C 
ATOM     25  C   UNL     1      74.669 224.228 341.344  0.00  0.00    +0.000 C 
ATOM     26  C   UNL     1      74.009 224.086 340.103  0.00  0.00    +0.000 C 
ATOM     27  S   UNL     1      74.555 224.759 338.614  0.00  0.00    +0.000 S 
ATOM     28  C   UNL     1      73.198 224.085 337.734  0.00  0.00    +0.000 C 
ATOM     29  O   UNL     1      73.021 224.222 336.535  0.00  0.00    +0.000 OA
ATOM     30  N   UNL     1      72.396 223.395 338.582  0.00  0.00    +0.000 N 
ATOM     31  C   UNL     1      72.756 223.330 339.895  0.00  0.00    +0.000 C 
ATOM     32  H   UNL     1      71.565 222.933 338.246  0.00  0.00    +0.000 HD
ATOM     33  O   UNL     1      72.138 222.734 340.761  0.00  0.00    +0.000 OA
ENDBRANCH  18  19
ENDBRANCH   1  18
TORSDOF 4
ENDMDL
MODEL 5
REMARK VINA RESULT:      -6.4     28.475     31.246
REMARK  Name = Troglitazone.pdbqt.pdb
REMARK  4 active torsions:
REMARK  status: ('A' for Active; 'I' for Inactive)
REMARK    1  A    between atoms: C_1  and  O_2
REMARK    2  A    between atoms: C_1  and  C_18
REMARK    3  A    between atoms: O_2  and  C_3
REMARK    4  A    between atoms: C_26  and  O_32
REMARK                            x       y       z     vdW  Elec       q    Type
REMARK                         _______ _______ _______ _____ _____    ______ ____
ROOT
ATOM      1  C   UNL     1      53.094 246.209 326.472  0.00  0.00    +0.000 C 
ENDROOT
BRANCH   1   2
ATOM      2  C   UNL     1      53.363 247.058 325.300  0.00  0.00    +0.000 C 
ATOM      3  O   UNL     1      54.167 246.258 324.360  0.00  0.00    +0.000 OA
ATOM      4  C   UNL     1      55.148 246.803 323.522  0.00  0.00    +0.000 A 
ATOM      5  C   UNL     1      55.789 248.056 323.756  0.00  0.00    +0.000 A 
ATOM      6  C   UNL     1      55.551 246.019 322.421  0.00  0.00    +0.000 A 
ATOM      7  C   UNL     1      55.317 248.750 324.900  0.00  0.00    +0.000 C 
ATOM      8  C   UNL     1      56.787 248.537 322.900  0.00  0.00    +0.000 A 
ATOM      9  C   UNL     1      54.132 248.246 325.652  0.00  0.00    +0.000 C 
ATOM     10  C   UNL     1      57.167 247.757 321.797  0.00  0.00    +0.000 A 
ATOM     11  C   UNL     1      57.451 249.871 323.172  0.00  0.00    +0.000 C 
ATOM     12  C   UNL     1      56.557 246.507 321.558  0.00  0.00    +0.000 A 
ATOM     13  C   UNL     1      57.063 245.740 320.336  0.00  0.00    +0.000 C 
ATOM     14  C   UNL     1      54.897 244.660 322.208  0.00  0.00    +0.000 C 
ATOM     15  C   UNL     1      52.057 247.439 324.559  0.00  0.00    +0.000 C 
BRANCH  10  16
ATOM     16  O   UNL     1      58.154 248.209 320.937  0.00  0.00    +0.000 OA
ATOM     17  H   UNL     1      58.051 247.742 320.079  0.00  0.00    +0.000 HD
ENDBRANCH  10  16
ENDBRANCH   1   2
BRANCH   1  18
ATOM     18  O   UNL     1      52.850 245.449 327.541  0.00  0.00    +0.000 OA
BRANCH  18  19
ATOM     19  C   UNL     1      51.930 244.451 327.335  0.00  0.00    +0.000 C 
ATOM     20  C   UNL     1      50.732 244.323 328.041  0.00  0.00    +0.000 C 
ATOM     21  C   UNL     1      49.857 243.277 327.755  0.00  0.00    +0.000 C 
ATOM     22  C   UNL     1      50.180 242.357 326.762  0.00  0.00    +0.000 C 
ATOM     23  C   UNL     1      51.374 242.478 326.055  0.00  0.00    +0.000 C 
ATOM     24  C   UNL     1      52.247 243.526 326.341  0.00  0.00    +0.000 C 
ATOM     25  C   UNL     1      49.286 241.288 326.467  0.00  0.00    +0.000 C 
ATOM     26  C   UNL     1      48.408 240.220 326.176  0.00  0.00    +0.000 C 
ATOM     27  S   UNL     1      46.690 240.342 326.128  0.00  0.00    +0.000 S 
ATOM     28  C   UNL     1      46.515 238.650 325.707  0.00  0.00    +0.000 C 
ATOM     29  O   UNL     1      45.445 238.097 325.515  0.00  0.00    +0.000 OA
ATOM     30  N   UNL     1      47.737 238.066 325.626  0.00  0.00    +0.000 N 
ATOM     31  C   UNL     1      48.834 238.841 325.857  0.00  0.00    +0.000 C 
ATOM     32  H   UNL     1      47.828 237.091 325.388  0.00  0.00    +0.000 HD
ATOM     33  O   UNL     1      49.988 238.451 325.803  0.00  0.00    +0.000 OA
ENDBRANCH  18  19
ENDBRANCH   1  18
TORSDOF 4
ENDMDL
MODEL 6
REMARK VINA RESULT:      -6.2     27.369     29.910
REMARK  Name = Troglitazone.pdbqt.pdb
REMARK  4 active torsions:
REMARK  status: ('A' for Active; 'I' for Inactive)
REMARK    1  A    between atoms: C_1  and  O_2
REMARK    2  A    between atoms: C_1  and  C_18
REMARK    3  A    between atoms: O_2  and  C_3
REMARK    4  A    between atoms: C_26  and  O_32
REMARK                            x       y       z     vdW  Elec       q    Type
REMARK                         _______ _______ _______ _____ _____    ______ ____
ROOT
ATOM      1  C   UNL     1      47.399 236.055 324.242  0.00  0.00    +0.000 C 
ENDROOT
BRANCH   1   2
ATOM      2  C   UNL     1      48.012 235.077 323.326  0.00  0.00    +0.000 C 
ATOM      3  O   UNL     1      47.687 235.506 321.955  0.00  0.00    +0.000 OA
ATOM      4  C   UNL     1      47.472 234.614 320.896  0.00  0.00    +0.000 A 
ATOM      5  C   UNL     1      47.115 233.244 321.069  0.00  0.00    +0.000 A 
ATOM      6  C   UNL     1      47.562 235.143 319.591  0.00  0.00    +0.000 A 
ATOM      7  C   UNL     1      47.036 232.826 322.423  0.00  0.00    +0.000 C 
ATOM      8  C   UNL     1      46.880 232.406 319.972  0.00  0.00    +0.000 A 
ATOM      9  C   UNL     1      47.472 233.738 323.520  0.00  0.00    +0.000 C 
ATOM     10  C   UNL     1      46.992 232.938 318.678  0.00  0.00    +0.000 A 
ATOM     11  C   UNL     1      46.503 230.955 320.184  0.00  0.00    +0.000 C 
ATOM     12  C   UNL     1      47.328 234.295 318.486  0.00  0.00    +0.000 A 
ATOM     13  C   UNL     1      47.404 234.766 317.034  0.00  0.00    +0.000 C 
ATOM     14  C   UNL     1      47.894 236.620 319.418  0.00  0.00    +0.000 C 
ATOM     15  C   UNL     1      49.556 235.078 323.441  0.00  0.00    +0.000 C 
BRANCH  10  16
ATOM     16  O   UNL     1      46.763 232.131 317.576  0.00  0.00    +0.000 OA
ATOM     17  H   UNL     1      46.135 232.596 316.980  0.00  0.00    +0.000 HD
ENDBRANCH  10  16
ENDBRANCH   1   2
BRANCH   1  18
ATOM     18  O   UNL     1      46.846 236.948 325.064  0.00  0.00    +0.000 OA
BRANCH  18  19
ATOM     19  C   UNL     1      47.673 237.982 325.427  0.00  0.00    +0.000 C 
ATOM     20  C   UNL     1      49.067 237.910 325.446  0.00  0.00    +0.000 C 
ATOM     21  C   UNL     1      49.823 239.017 325.824  0.00  0.00    +0.000 C 
ATOM     22  C   UNL     1      49.184 240.200 326.185  0.00  0.00    +0.000 C 
ATOM     23  C   UNL     1      47.793 240.279 326.169  0.00  0.00    +0.000 C 
ATOM     24  C   UNL     1      47.039 239.170 325.789  0.00  0.00    +0.000 C 
ATOM     25  C   UNL     1      49.954 241.334 326.570  0.00  0.00    +0.000 C 
ATOM     26  C   UNL     1      50.712 242.460 326.962  0.00  0.00    +0.000 C 
ATOM     27  S   UNL     1      52.188 242.958 326.226  0.00  0.00    +0.000 S 
ATOM     28  C   UNL     1      52.339 244.333 327.302  0.00  0.00    +0.000 C 
ATOM     29  O   UNL     1      53.254 245.138 327.265  0.00  0.00    +0.000 OA
ATOM     30  N   UNL     1      51.291 244.360 328.164  0.00  0.00    +0.000 N 
ATOM     31  C   UNL     1      50.345 243.385 328.054  0.00  0.00    +0.000 C 
ATOM     32  H   UNL     1      51.211 245.089 328.856  0.00  0.00    +0.000 HD
ATOM     33  O   UNL     1      49.348 243.298 328.751  0.00  0.00    +0.000 OA
ENDBRANCH  18  19
ENDBRANCH   1  18
TORSDOF 4
ENDMDL
MODEL 7
REMARK VINA RESULT:      -6.2      2.769      4.193
REMARK  Name = Troglitazone.pdbqt.pdb
REMARK  4 active torsions:
REMARK  status: ('A' for Active; 'I' for Inactive)
REMARK    1  A    between atoms: C_1  and  O_2
REMARK    2  A    between atoms: C_1  and  C_18
REMARK    3  A    between atoms: O_2  and  C_3
REMARK    4  A    between atoms: C_26  and  O_32
REMARK                            x       y       z     vdW  Elec       q    Type
REMARK                         _______ _______ _______ _____ _____    ______ ____
ROOT
ATOM      1  C   UNL     1      69.444 221.220 337.907  0.00  0.00    +0.000 C 
ENDROOT
BRANCH   1   2
ATOM      2  C   UNL     1      70.139 222.485 338.201  0.00  0.00    +0.000 C 
ATOM      3  O   UNL     1      71.399 222.475 337.438  0.00  0.00    +0.000 OA
ATOM      4  C   UNL     1      72.582 223.071 337.891  0.00  0.00    +0.000 A 
ATOM      5  C   UNL     1      72.852 223.366 339.260  0.00  0.00    +0.000 A 
ATOM      6  C   UNL     1      73.574 223.332 336.923  0.00  0.00    +0.000 A 
ATOM      7  C   UNL     1      71.791 223.047 340.148  0.00  0.00    +0.000 C 
ATOM      8  C   UNL     1      74.068 223.933 339.660  0.00  0.00    +0.000 A 
ATOM      9  C   UNL     1      70.469 222.609 339.615  0.00  0.00    +0.000 C 
ATOM     10  C   UNL     1      75.040 224.206 338.686  0.00  0.00    +0.000 A 
ATOM     11  C   UNL     1      74.328 224.236 341.121  0.00  0.00    +0.000 C 
ATOM     12  C   UNL     1      74.799 223.907 337.328  0.00  0.00    +0.000 A 
ATOM     13  C   UNL     1      75.937 224.232 336.360  0.00  0.00    +0.000 C 
ATOM     14  C   UNL     1      73.297 222.967 335.470  0.00  0.00    +0.000 C 
ATOM     15  C   UNL     1      69.327 223.709 337.708  0.00  0.00    +0.000 C 
BRANCH  10  16
ATOM     16  O   UNL     1      76.253 224.765 339.055  0.00  0.00    +0.000 OA
ATOM     17  H   UNL     1      76.069 225.570 339.588  0.00  0.00    +0.000 HD
ENDBRANCH  10  16
ENDBRANCH   1   2
BRANCH   1  18
ATOM     18  O   UNL     1      68.814 220.073 337.651  0.00  0.00    +0.000 OA
BRANCH  18  19
ATOM     19  C   UNL     1      68.034 220.087 336.521  0.00  0.00    +0.000 C 
ATOM     20  C   UNL     1      66.637 220.089 336.525  0.00  0.00    +0.000 C 
ATOM     21  C   UNL     1      65.932 220.111 335.324  0.00  0.00    +0.000 C 
ATOM     22  C   UNL     1      66.624 220.130 334.116  0.00  0.00    +0.000 C 
ATOM     23  C   UNL     1      68.017 220.128 334.105  0.00  0.00    +0.000 C 
ATOM     24  C   UNL     1      68.720 220.107 335.308  0.00  0.00    +0.000 C 
ATOM     25  C   UNL     1      65.905 220.154 332.887  0.00  0.00    +0.000 C 
ATOM     26  C   UNL     1      65.198 220.169 331.663  0.00  0.00    +0.000 C 
ATOM     27  S   UNL     1      63.760 221.071 331.367  0.00  0.00    +0.000 S 
ATOM     28  C   UNL     1      63.662 220.500 329.714  0.00  0.00    +0.000 C 
ATOM     29  O   UNL     1      62.789 220.822 328.926  0.00  0.00    +0.000 OA
ATOM     30  N   UNL     1      64.696 219.660 329.454  0.00  0.00    +0.000 N 
ATOM     31  C   UNL     1      65.594 219.422 330.452  0.00  0.00    +0.000 C 
ATOM     32  H   UNL     1      64.802 219.238 328.545  0.00  0.00    +0.000 HD
ATOM     33  O   UNL     1      66.574 218.704 330.351  0.00  0.00    +0.000 OA
ENDBRANCH  18  19
ENDBRANCH   1  18
TORSDOF 4
ENDMDL
MODEL 8
REMARK VINA RESULT:      -6.1      4.326      9.876
REMARK  Name = Troglitazone.pdbqt.pdb
REMARK  4 active torsions:
REMARK  status: ('A' for Active; 'I' for Inactive)
REMARK    1  A    between atoms: C_1  and  O_2
REMARK    2  A    between atoms: C_1  and  C_18
REMARK    3  A    between atoms: O_2  and  C_3
REMARK    4  A    between atoms: C_26  and  O_32
REMARK                            x       y       z     vdW  Elec       q    Type
REMARK                         _______ _______ _______ _____ _____    ______ ____
ROOT
ATOM      1  C   UNL     1      65.562 218.434 334.636  0.00  0.00    +0.000 C 
ENDROOT
BRANCH   1   2
ATOM      2  C   UNL     1      65.412 218.538 333.174  0.00  0.00    +0.000 C 
ATOM      3  O   UNL     1      66.666 219.107 332.649  0.00  0.00    +0.000 OA
ATOM      4  C   UNL     1      66.724 219.951 331.534  0.00  0.00    +0.000 A 
ATOM      5  C   UNL     1      65.615 220.700 331.042  0.00  0.00    +0.000 A 
ATOM      6  C   UNL     1      67.983 220.098 330.913  0.00  0.00    +0.000 A 
ATOM      7  C   UNL     1      64.405 220.488 331.753  0.00  0.00    +0.000 C 
ATOM      8  C   UNL     1      65.740 221.555 329.941  0.00  0.00    +0.000 A 
ATOM      9  C   UNL     1      64.321 219.430 332.801  0.00  0.00    +0.000 C 
ATOM     10  C   UNL     1      66.993 221.679 329.319  0.00  0.00    +0.000 A 
ATOM     11  C   UNL     1      64.546 222.338 329.439  0.00  0.00    +0.000 C 
ATOM     12  C   UNL     1      68.107 220.959 329.800  0.00  0.00    +0.000 A 
ATOM     13  C   UNL     1      69.422 221.186 329.055  0.00  0.00    +0.000 C 
ATOM     14  C   UNL     1      69.174 219.333 331.477  0.00  0.00    +0.000 C 
ATOM     15  C   UNL     1      65.243 217.146 332.518  0.00  0.00    +0.000 C 
BRANCH  10  16
ATOM     16  O   UNL     1      67.144 222.519 328.229  0.00  0.00    +0.000 OA
ATOM     17  H   UNL     1      67.919 223.100 328.394  0.00  0.00    +0.000 HD
ENDBRANCH  10  16
ENDBRANCH   1   2
BRANCH   1  18
ATOM     18  O   UNL     1      65.689 218.348 335.961  0.00  0.00    +0.000 OA
BRANCH  18  19
ATOM     19  C   UNL     1      66.669 219.148 336.495  0.00  0.00    +0.000 C 
ATOM     20  C   UNL     1      66.524 219.902 337.662  0.00  0.00    +0.000 C 
ATOM     21  C   UNL     1      67.580 220.680 338.130  0.00  0.00    +0.000 C 
ATOM     22  C   UNL     1      68.784 220.706 337.431  0.00  0.00    +0.000 C 
ATOM     23  C   UNL     1      68.934 219.957 336.266  0.00  0.00    +0.000 C 
ATOM     24  C   UNL     1      67.877 219.178 335.800  0.00  0.00    +0.000 C 
ATOM     25  C   UNL     1      69.865 221.500 337.909  0.00  0.00    +0.000 C 
ATOM     26  C   UNL     1      70.940 222.291 338.373  0.00  0.00    +0.000 C 
ATOM     27  S   UNL     1      71.382 222.480 340.027  0.00  0.00    +0.000 S 
ATOM     28  C   UNL     1      72.716 223.541 339.619  0.00  0.00    +0.000 C 
ATOM     29  O   UNL     1      73.474 224.037 340.436  0.00  0.00    +0.000 OA
ATOM     30  N   UNL     1      72.773 223.714 338.275  0.00  0.00    +0.000 N 
ATOM     31  C   UNL     1      71.851 223.067 337.506  0.00  0.00    +0.000 C 
ATOM     32  H   UNL     1      73.485 224.293 337.858  0.00  0.00    +0.000 HD
ATOM     33  O   UNL     1      71.795 223.121 336.289  0.00  0.00    +0.000 OA
ENDBRANCH  18  19
ENDBRANCH   1  18
TORSDOF 4
ENDMDL
MODEL 9
REMARK VINA RESULT:      -6.1     24.628     27.067
REMARK  Name = Troglitazone.pdbqt.pdb
REMARK  4 active torsions:
REMARK  status: ('A' for Active; 'I' for Inactive)
REMARK    1  A    between atoms: C_1  and  O_2
REMARK    2  A    between atoms: C_1  and  C_18
REMARK    3  A    between atoms: O_2  and  C_3
REMARK    4  A    between atoms: C_26  and  O_32
REMARK                            x       y       z     vdW  Elec       q    Type
REMARK                         _______ _______ _______ _____ _____    ______ ____
ROOT
ATOM      1  C   UNL     1      45.183 228.365 347.153  0.00  0.00    +0.000 C 
ENDROOT
BRANCH   1   2
ATOM      2  C   UNL     1      44.870 227.264 346.226  0.00  0.00    +0.000 C 
ATOM      3  O   UNL     1      45.791 227.385 345.083  0.00  0.00    +0.000 OA
ATOM      4  C   UNL     1      45.446 227.034 343.772  0.00  0.00    +0.000 A 
ATOM      5  C   UNL     1      44.104 226.938 343.299  0.00  0.00    +0.000 A 
ATOM      6  C   UNL     1      46.510 226.825 342.869  0.00  0.00    +0.000 A 
ATOM      7  C   UNL     1      43.117 227.184 344.288  0.00  0.00    +0.000 C 
ATOM      8  C   UNL     1      43.819 226.614 341.967  0.00  0.00    +0.000 A 
ATOM      9  C   UNL     1      43.507 227.350 345.718  0.00  0.00    +0.000 C 
ATOM     10  C   UNL     1      44.885 226.390 341.082  0.00  0.00    +0.000 A 
ATOM     11  C   UNL     1      42.385 226.518 341.492  0.00  0.00    +0.000 C 
ATOM     12  C   UNL     1      46.220 226.495 341.526  0.00  0.00    +0.000 A 
ATOM     13  C   UNL     1      47.297 226.247 340.470  0.00  0.00    +0.000 C 
ATOM     14  C   UNL     1      47.940 226.980 343.370  0.00  0.00    +0.000 C 
ATOM     15  C   UNL     1      45.139 225.882 346.872  0.00  0.00    +0.000 C 
BRANCH  10  16
ATOM     16  O   UNL     1      44.630 226.069 339.759  0.00  0.00    +0.000 OA
ATOM     17  H   UNL     1      44.843 226.854 339.207  0.00  0.00    +0.000 HD
ENDBRANCH  10  16
ENDBRANCH   1   2
BRANCH   1  18
ATOM     18  O   UNL     1      45.455 229.365 347.993  0.00  0.00    +0.000 OA
BRANCH  18  19
ATOM     19  C   UNL     1      45.382 230.617 347.436  0.00  0.00    +0.000 C 
ATOM     20  C   UNL     1      44.803 230.899 346.197  0.00  0.00    +0.000 C 
ATOM     21  C   UNL     1      44.771 232.207 345.718  0.00  0.00    +0.000 C 
ATOM     22  C   UNL     1      45.319 233.236 346.479  0.00  0.00    +0.000 C 
ATOM     23  C   UNL     1      45.899 232.961 347.716  0.00  0.00    +0.000 C 
ATOM     24  C   UNL     1      45.929 231.653 348.194  0.00  0.00    +0.000 C 
ATOM     25  C   UNL     1      45.286 234.574 345.992  0.00  0.00    +0.000 C 
ATOM     26  C   UNL     1      45.264 235.902 345.512  0.00  0.00    +0.000 C 
ATOM     27  S   UNL     1      43.946 236.624 344.671  0.00  0.00    +0.000 S 
ATOM     28  C   UNL     1      44.791 238.152 344.518  0.00  0.00    +0.000 C 
ATOM     29  O   UNL     1      44.329 239.142 343.978  0.00  0.00    +0.000 OA
ATOM     30  N   UNL     1      46.018 238.058 345.092  0.00  0.00    +0.000 N 
ATOM     31  C   UNL     1      46.367 236.874 345.669  0.00  0.00    +0.000 C 
ATOM     32  H   UNL     1      46.644 238.848 345.102  0.00  0.00    +0.000 HD
ATOM     33  O   UNL     1      47.427 236.656 346.230  0.00  0.00    +0.000 OA
ENDBRANCH  18  19
ENDBRANCH   1  18
TORSDOF 4
ENDMDL
