MODEL 1
REMARK VINA RESULT:      -6.6      0.000      0.000
REMARK  Name = 
REMARK  19 active torsions:
REMARK  status: ('A' for Active; 'I' for Inactive)
REMARK    1  A    between atoms: O_1  and  C_20
REMARK    2  A    between atoms: O_1  and  C_36
REMARK    3  A    between atoms: O_2  and  C_18
REMARK    4  A    between atoms: O_3  and  C_28
REMARK    5  A    between atoms: O_3  and  C_42
REMARK    6  A    between atoms: O_5  and  C_34
REMARK    7  A    between atoms: O_5  and  C_50
REMARK    8  A    between atoms: O_7  and  C_40
REMARK    9  A    between atoms: O_7  and  C_56
REMARK   10  A    between atoms: O_9  and  C_46
REMARK   11  A    between atoms: N_11  and  C_30
REMARK   12  A    between atoms: C_17  and  C_23
REMARK   13  A    between atoms: C_18  and  C_28
REMARK   14  A    between atoms: C_23  and  C_32
REMARK   15  A    between atoms: C_33  and  C_35
REMARK   16  A    between atoms: C_35  and  C_40
REMARK   17  A    between atoms: C_36  and  C_41
REMARK   18  A    between atoms: C_46  and  C_53
REMARK   19  A    between atoms: C_53  and  C_57
REMARK                            x       y       z     vdW  Elec       q    Type
REMARK                         _______ _______ _______ _____ _____    ______ ____
ROOT
ATOM      1  N   UNL     1      72.491 220.488 340.953  0.00  0.00    +0.000 NA
ATOM      2  N   UNL     1      74.875 224.129 338.992  0.00  0.00    +0.000 N 
ATOM      3  C   UNL     1      73.623 222.280 339.979  0.00  0.00    +0.000 C 
ATOM      4  C   UNL     1      72.215 221.831 340.409  0.00  0.00    +0.000 C 
ATOM      5  C   UNL     1      73.535 223.469 339.003  0.00  0.00    +0.000 C 
ATOM      6  C   UNL     1      71.123 221.939 339.247  0.00  0.00    +0.000 C 
ATOM      7  C   UNL     1      72.844 223.186 337.659  0.00  0.00    +0.000 C 
ATOM      8  C   UNL     1      74.344 220.984 339.559  0.00  0.00    +0.000 C 
ATOM      9  C   UNL     1      71.763 222.063 337.794  0.00  0.00    +0.000 C 
ATOM     10  C   UNL     1      74.513 222.958 341.002  0.00  0.00    +0.000 A 
ATOM     11  C   UNL     1      73.481 219.846 340.098  0.00  0.00    +0.000 C 
ATOM     12  C   UNL     1      75.247 223.967 340.363  0.00  0.00    +0.000 A 
ATOM     13  C   UNL     1      70.189 220.727 339.239  0.00  0.00    +0.000 C 
ATOM     14  C   UNL     1      71.310 219.678 341.209  0.00  0.00    +0.000 C 
ATOM     15  C   UNL     1      70.277 219.730 340.131  0.00  0.00    +0.000 C 
ATOM     16  C   UNL     1      74.689 222.660 342.349  0.00  0.00    +0.000 A 
ATOM     17  C   UNL     1      74.946 225.504 338.502  0.00  0.00    +0.000 C 
ATOM     18  C   UNL     1      76.203 224.668 341.071  0.00  0.00    +0.000 A 
ATOM     19  C   UNL     1      75.653 223.360 343.101  0.00  0.00    +0.000 A 
ATOM     20  C   UNL     1      76.412 224.362 342.426  0.00  0.00    +0.000 A 
ENDROOT
BRANCH  19  23
ATOM     21  N   UNL     1      76.321 222.784 348.914  0.00  0.00    +0.000 NA
ATOM     22  N   UNL     1      73.936 221.472 344.400  0.00  0.00    +0.000 N 
ATOM     23  C   UNL     1      75.913 223.045 344.628  0.00  0.00    +0.000 C 
ATOM     24  C   UNL     1      75.453 224.260 345.558  0.00  0.00    +0.000 C 
ATOM     25  C   UNL     1      75.098 221.787 345.084  0.00  0.00    +0.000 A 
ATOM     26  C   UNL     1      75.318 223.972 347.062  0.00  0.00    +0.000 C 
ATOM     27  C   UNL     1      74.728 225.116 347.886  0.00  0.00    +0.000 C 
ATOM     28  C   UNL     1      76.624 223.587 347.743  0.00  0.00    +0.000 C 
ATOM     29  C   UNL     1      75.188 220.866 346.143  0.00  0.00    +0.000 A 
ATOM     30  C   UNL     1      74.590 224.730 349.389  0.00  0.00    +0.000 C 
ATOM     31  C   UNL     1      75.516 223.548 349.892  0.00  0.00    +0.000 C 
ATOM     32  C   UNL     1      76.184 220.743 347.285  0.00  0.00    +0.000 C 
ATOM     33  C   UNL     1      75.737 221.454 348.598  0.00  0.00    +0.000 C 
ATOM     34  C   UNL     1      74.061 219.971 346.018  0.00  0.00    +0.000 A 
ATOM     35  C   UNL     1      73.309 220.377 344.926  0.00  0.00    +0.000 A 
ATOM     36  C   UNL     1      73.607 218.855 346.757  0.00  0.00    +0.000 A 
ATOM     37  C   UNL     1      72.135 219.732 344.519  0.00  0.00    +0.000 A 
ATOM     38  C   UNL     1      72.436 218.193 346.368  0.00  0.00    +0.000 A 
ATOM     39  C   UNL     1      71.712 218.628 345.263  0.00  0.00    +0.000 A 
ATOM     40  H   UNL     1      73.593 221.974 343.591  0.00  0.00    +0.000 HD
BRANCH  23  42
ATOM     41  O   UNL     1      78.267 223.525 345.338  0.00  0.00    +0.000 OA
ATOM     42  C   UNL     1      77.457 222.825 344.742  0.00  0.00    +0.000 C 
BRANCH  42  43
ATOM     43  O   UNL     1      77.815 221.673 344.081  0.00  0.00    +0.000 OA
ATOM     44  C   UNL     1      79.052 221.771 343.375  0.00  0.00    +0.000 C 
ENDBRANCH  42  43
ENDBRANCH  23  42
BRANCH  30  45
ATOM     45  O   UNL     1      74.975 225.918 350.125  0.00  0.00    +0.000 OA
ATOM     46  H   UNL     1      75.930 225.853 350.303  0.00  0.00    +0.000 HD
ENDBRANCH  30  45
BRANCH  30  47
ATOM     47  C   UNL     1      73.111 224.512 349.786  0.00  0.00    +0.000 C 
ATOM     48  C   UNL     1      72.465 223.220 349.316  0.00  0.00    +0.000 C 
ENDBRANCH  30  47
ENDBRANCH  19  23
BRANCH   7  49
ATOM     49  O   UNL     1      72.114 224.412 337.330  0.00  0.00    +0.000 OA
ATOM     50  H   UNL     1      72.602 225.141 337.764  0.00  0.00    +0.000 HD
ENDBRANCH   7  49
BRANCH   7  52
ATOM     51  O   UNL     1      74.837 222.171 336.580  0.00  0.00    +0.000 OA
ATOM     52  C   UNL     1      73.857 222.900 336.522  0.00  0.00    +0.000 C 
BRANCH  52  53
ATOM     53  O   UNL     1      73.450 223.534 335.372  0.00  0.00    +0.000 OA
ATOM     54  C   UNL     1      74.497 224.226 334.690  0.00  0.00    +0.000 C 
ENDBRANCH  52  53
ENDBRANCH   7  52
BRANCH  20  55
ATOM     55  O   UNL     1      77.321 225.069 343.172  0.00  0.00    +0.000 OA
ATOM     56  C   UNL     1      77.144 226.482 343.164  0.00  0.00    +0.000 C 
ENDBRANCH  20  55
BRANCH   6  57
ATOM     57  C   UNL     1      70.206 223.193 339.497  0.00  0.00    +0.000 C 
ATOM     58  C   UNL     1      69.127 223.469 338.448  0.00  0.00    +0.000 C 
ENDBRANCH   6  57
BRANCH   9  59
ATOM     59  O   UNL     1      72.277 220.764 337.414  0.00  0.00    +0.000 OA
BRANCH  59  61
ATOM     60  O   UNL     1      72.371 219.299 335.656  0.00  0.00    +0.000 OA
ATOM     61  C   UNL     1      71.863 220.256 336.222  0.00  0.00    +0.000 C 
ATOM     62  C   UNL     1      70.675 221.017 335.721  0.00  0.00    +0.000 C 
ENDBRANCH  59  61
ENDBRANCH   9  59
TORSDOF 12
ENDMDL
MODEL 2
REMARK VINA RESULT:      -6.4     34.348     37.239
REMARK  Name = 
REMARK  19 active torsions:
REMARK  status: ('A' for Active; 'I' for Inactive)
REMARK    1  A    between atoms: O_1  and  C_20
REMARK    2  A    between atoms: O_1  and  C_36
REMARK    3  A    between atoms: O_2  and  C_18
REMARK    4  A    between atoms: O_3  and  C_28
REMARK    5  A    between atoms: O_3  and  C_42
REMARK    6  A    between atoms: O_5  and  C_34
REMARK    7  A    between atoms: O_5  and  C_50
REMARK    8  A    between atoms: O_7  and  C_40
REMARK    9  A    between atoms: O_7  and  C_56
REMARK   10  A    between atoms: O_9  and  C_46
REMARK   11  A    between atoms: N_11  and  C_30
REMARK   12  A    between atoms: C_17  and  C_23
REMARK   13  A    between atoms: C_18  and  C_28
REMARK   14  A    between atoms: C_23  and  C_32
REMARK   15  A    between atoms: C_33  and  C_35
REMARK   16  A    between atoms: C_35  and  C_40
REMARK   17  A    between atoms: C_36  and  C_41
REMARK   18  A    between atoms: C_46  and  C_53
REMARK   19  A    between atoms: C_53  and  C_57
REMARK                            x       y       z     vdW  Elec       q    Type
REMARK                         _______ _______ _______ _____ _____    ______ ____
ROOT
ATOM      1  N   UNL     1      51.503 243.470 322.305  0.00  0.00    +0.000 NA
ATOM      2  N   UNL     1      50.248 243.015 326.888  0.00  0.00    +0.000 N 
ATOM      3  C   UNL     1      50.878 243.285 324.544  0.00  0.00    +0.000 C 
ATOM      4  C   UNL     1      50.615 244.127 323.283  0.00  0.00    +0.000 C 
ATOM      5  C   UNL     1      50.390 244.030 325.802  0.00  0.00    +0.000 C 
ATOM      6  C   UNL     1      50.809 245.697 323.507  0.00  0.00    +0.000 C 
ATOM      7  C   UNL     1      51.109 245.352 326.121  0.00  0.00    +0.000 C 
ATOM      8  C   UNL     1      52.350 242.841 324.429  0.00  0.00    +0.000 C 
ATOM      9  C   UNL     1      51.637 246.046 324.822  0.00  0.00    +0.000 C 
ATOM     10  C   UNL     1      50.062 242.025 324.760  0.00  0.00    +0.000 A 
ATOM     11  C   UNL     1      52.747 243.121 322.982  0.00  0.00    +0.000 C 
ATOM     12  C   UNL     1      49.784 241.897 326.128  0.00  0.00    +0.000 A 
ATOM     13  C   UNL     1      51.525 246.350 322.322  0.00  0.00    +0.000 C 
ATOM     14  C   UNL     1      51.688 244.201 321.061  0.00  0.00    +0.000 C 
ATOM     15  C   UNL     1      51.900 245.670 321.230  0.00  0.00    +0.000 C 
ATOM     16  C   UNL     1      49.664 241.067 323.834  0.00  0.00    +0.000 A 
ATOM     17  C   UNL     1      49.407 243.363 328.031  0.00  0.00    +0.000 C 
ATOM     18  C   UNL     1      49.130 240.770 326.588  0.00  0.00    +0.000 A 
ATOM     19  C   UNL     1      48.990 239.909 324.270  0.00  0.00    +0.000 A 
ATOM     20  C   UNL     1      48.744 239.780 325.669  0.00  0.00    +0.000 A 
ENDROOT
BRANCH  19  23
ATOM     21  N   UNL     1      47.504 235.250 321.006  0.00  0.00    +0.000 NA
ATOM     22  N   UNL     1      46.189 239.379 324.007  0.00  0.00    +0.000 N 
ATOM     23  C   UNL     1      48.538 238.776 323.265  0.00  0.00    +0.000 C 
ATOM     24  C   UNL     1      48.865 237.323 323.843  0.00  0.00    +0.000 C 
ATOM     25  C   UNL     1      46.992 238.834 323.020  0.00  0.00    +0.000 A 
ATOM     26  C   UNL     1      48.180 236.131 323.154  0.00  0.00    +0.000 C 
ATOM     27  C   UNL     1      48.399 234.781 323.837  0.00  0.00    +0.000 C 
ATOM     28  C   UNL     1      48.578 235.940 321.697  0.00  0.00    +0.000 C 
ATOM     29  C   UNL     1      46.117 238.362 322.024  0.00  0.00    +0.000 A 
ATOM     30  C   UNL     1      47.643 233.635 323.099  0.00  0.00    +0.000 C 
ATOM     31  C   UNL     1      47.271 233.909 321.585  0.00  0.00    +0.000 C 
ATOM     32  C   UNL     1      46.381 237.596 320.737  0.00  0.00    +0.000 C 
ATOM     33  C   UNL     1      46.257 236.049 320.881  0.00  0.00    +0.000 C 
ATOM     34  C   UNL     1      44.778 238.701 322.446  0.00  0.00    +0.000 A 
ATOM     35  C   UNL     1      44.863 239.331 323.678  0.00  0.00    +0.000 A 
ATOM     36  C   UNL     1      43.494 238.507 321.888  0.00  0.00    +0.000 A 
ATOM     37  C   UNL     1      43.744 239.790 324.385  0.00  0.00    +0.000 A 
ATOM     38  C   UNL     1      42.362 238.958 322.576  0.00  0.00    +0.000 A 
ATOM     39  C   UNL     1      42.488 239.591 323.808  0.00  0.00    +0.000 A 
ATOM     40  H   UNL     1      46.534 239.788 324.866  0.00  0.00    +0.000 HD
BRANCH  23  42
ATOM     41  O   UNL     1      50.430 238.545 321.640  0.00  0.00    +0.000 OA
ATOM     42  C   UNL     1      49.356 239.040 321.958  0.00  0.00    +0.000 C 
BRANCH  42  43
ATOM     43  O   UNL     1      48.675 239.920 321.150  0.00  0.00    +0.000 OA
ATOM     44  C   UNL     1      49.489 240.540 320.154  0.00  0.00    +0.000 C 
ENDBRANCH  42  43
ENDBRANCH  23  42
BRANCH  30  45
ATOM     45  O   UNL     1      48.551 232.505 323.121  0.00  0.00    +0.000 OA
ATOM     46  H   UNL     1      48.759 232.282 322.196  0.00  0.00    +0.000 HD
ENDBRANCH  30  45
BRANCH  30  47
ATOM     47  C   UNL     1      46.423 233.145 323.913  0.00  0.00    +0.000 C 
ATOM     48  C   UNL     1      45.230 234.083 323.979  0.00  0.00    +0.000 C 
ENDBRANCH  30  47
ENDBRANCH  19  23
BRANCH   7  49
ATOM     49  O   UNL     1      50.075 246.238 326.660  0.00  0.00    +0.000 OA
ATOM     50  H   UNL     1      49.636 246.643 325.884  0.00  0.00    +0.000 HD
ENDBRANCH   7  49
BRANCH   7  52
ATOM     51  O   UNL     1      53.182 244.436 327.134  0.00  0.00    +0.000 OA
ATOM     52  C   UNL     1      52.214 245.181 327.193  0.00  0.00    +0.000 C 
BRANCH  52  53
ATOM     53  O   UNL     1      51.999 246.066 328.221  0.00  0.00    +0.000 OA
ATOM     54  C   UNL     1      53.050 247.018 328.396  0.00  0.00    +0.000 C 
ENDBRANCH  52  53
ENDBRANCH   7  52
BRANCH  20  55
ATOM     55  O   UNL     1      48.052 238.671 326.085  0.00  0.00    +0.000 OA
ATOM     56  C   UNL     1      47.240 238.860 327.240  0.00  0.00    +0.000 C 
ENDBRANCH  20  55
BRANCH   6  57
ATOM     57  C   UNL     1      49.402 246.395 323.604  0.00  0.00    +0.000 C 
ATOM     58  C   UNL     1      48.195 245.561 323.170  0.00  0.00    +0.000 C 
ENDBRANCH   6  57
BRANCH   9  59
ATOM     59  O   UNL     1      53.030 245.745 324.572  0.00  0.00    +0.000 OA
BRANCH  59  61
ATOM     60  O   UNL     1      53.814 247.811 325.178  0.00  0.00    +0.000 OA
ATOM     61  C   UNL     1      53.890 246.797 324.499  0.00  0.00    +0.000 C 
ATOM     62  C   UNL     1      54.963 246.517 323.492  0.00  0.00    +0.000 C 
ENDBRANCH  59  61
ENDBRANCH   9  59
TORSDOF 12
ENDMDL
MODEL 3
REMARK VINA RESULT:      -6.3     16.430     19.980
REMARK  Name = 
REMARK  19 active torsions:
REMARK  status: ('A' for Active; 'I' for Inactive)
REMARK    1  A    between atoms: O_1  and  C_20
REMARK    2  A    between atoms: O_1  and  C_36
REMARK    3  A    between atoms: O_2  and  C_18
REMARK    4  A    between atoms: O_3  and  C_28
REMARK    5  A    between atoms: O_3  and  C_42
REMARK    6  A    between atoms: O_5  and  C_34
REMARK    7  A    between atoms: O_5  and  C_50
REMARK    8  A    between atoms: O_7  and  C_40
REMARK    9  A    between atoms: O_7  and  C_56
REMARK   10  A    between atoms: O_9  and  C_46
REMARK   11  A    between atoms: N_11  and  C_30
REMARK   12  A    between atoms: C_17  and  C_23
REMARK   13  A    between atoms: C_18  and  C_28
REMARK   14  A    between atoms: C_23  and  C_32
REMARK   15  A    between atoms: C_33  and  C_35
REMARK   16  A    between atoms: C_35  and  C_40
REMARK   17  A    between atoms: C_36  and  C_41
REMARK   18  A    between atoms: C_46  and  C_53
REMARK   19  A    between atoms: C_53  and  C_57
REMARK                            x       y       z     vdW  Elec       q    Type
REMARK                         _______ _______ _______ _____ _____    ______ ____
ROOT
ATOM      1  N   UNL     1      72.299 238.007 336.301  0.00  0.00    +0.000 NA
ATOM      2  N   UNL     1      70.018 240.059 332.645  0.00  0.00    +0.000 N 
ATOM      3  C   UNL     1      71.194 238.979 334.493  0.00  0.00    +0.000 C 
ATOM      4  C   UNL     1      71.672 237.616 335.024  0.00  0.00    +0.000 C 
ATOM      5  C   UNL     1      70.884 238.892 332.985  0.00  0.00    +0.000 C 
ATOM      6  C   UNL     1      72.573 236.802 333.985  0.00  0.00    +0.000 C 
ATOM      7  C   UNL     1      72.079 238.572 332.071  0.00  0.00    +0.000 C 
ATOM      8  C   UNL     1      72.228 239.996 335.013  0.00  0.00    +0.000 C 
ATOM      9  C   UNL     1      73.153 237.709 332.812  0.00  0.00    +0.000 C 
ATOM     10  C   UNL     1      69.832 239.489 334.921  0.00  0.00    +0.000 A 
ATOM     11  C   UNL     1      73.017 239.258 336.091  0.00  0.00    +0.000 C 
ATOM     12  C   UNL     1      69.235 240.148 333.837  0.00  0.00    +0.000 A 
ATOM     13  C   UNL     1      73.759 236.127 334.679  0.00  0.00    +0.000 C 
ATOM     14  C   UNL     1      73.093 236.965 336.935  0.00  0.00    +0.000 C 
ATOM     15  C   UNL     1      73.971 236.198 336.000  0.00  0.00    +0.000 C 
ATOM     16  C   UNL     1      69.220 239.419 336.168  0.00  0.00    +0.000 A 
ATOM     17  C   UNL     1      69.238 239.985 331.411  0.00  0.00    +0.000 C 
ATOM     18  C   UNL     1      68.022 240.785 334.011  0.00  0.00    +0.000 A 
ATOM     19  C   UNL     1      67.980 240.054 336.377  0.00  0.00    +0.000 A 
ATOM     20  C   UNL     1      67.403 240.747 335.271  0.00  0.00    +0.000 A 
ENDROOT
BRANCH  19  23
ATOM     21  N   UNL     1      65.879 239.810 341.863  0.00  0.00    +0.000 NA
ATOM     22  N   UNL     1      67.335 242.558 337.606  0.00  0.00    +0.000 N 
ATOM     23  C   UNL     1      67.252 240.028 337.780  0.00  0.00    +0.000 C 
ATOM     24  C   UNL     1      68.254 239.595 338.946  0.00  0.00    +0.000 C 
ATOM     25  C   UNL     1      66.706 241.450 338.150  0.00  0.00    +0.000 A 
ATOM     26  C   UNL     1      67.796 239.859 340.390  0.00  0.00    +0.000 C 
ATOM     27  C   UNL     1      68.848 239.573 341.460  0.00  0.00    +0.000 C 
ATOM     28  C   UNL     1      66.551 239.084 340.799  0.00  0.00    +0.000 C 
ATOM     29  C   UNL     1      65.727 241.949 339.027  0.00  0.00    +0.000 A 
ATOM     30  C   UNL     1      68.318 239.900 342.889  0.00  0.00    +0.000 C 
ATOM     31  C   UNL     1      66.744 239.929 343.057  0.00  0.00    +0.000 C 
ATOM     32  C   UNL     1      64.772 241.240 339.974  0.00  0.00    +0.000 C 
ATOM     33  C   UNL     1      65.303 241.111 341.434  0.00  0.00    +0.000 C 
ATOM     34  C   UNL     1      65.774 243.390 338.933  0.00  0.00    +0.000 A 
ATOM     35  C   UNL     1      66.781 243.729 338.042  0.00  0.00    +0.000 A 
ATOM     36  C   UNL     1      65.053 244.438 339.548  0.00  0.00    +0.000 A 
ATOM     37  C   UNL     1      67.108 245.052 337.719  0.00  0.00    +0.000 A 
ATOM     38  C   UNL     1      65.360 245.768 339.240  0.00  0.00    +0.000 A 
ATOM     39  C   UNL     1      66.375 246.069 338.337  0.00  0.00    +0.000 A 
ATOM     40  H   UNL     1      68.100 242.516 336.946  0.00  0.00    +0.000 HD
BRANCH  23  42
ATOM     41  O   UNL     1      64.928 239.189 337.367  0.00  0.00    +0.000 OA
ATOM     42  C   UNL     1      66.106 238.975 337.626  0.00  0.00    +0.000 C 
BRANCH  42  43
ATOM     43  O   UNL     1      66.610 237.707 337.795  0.00  0.00    +0.000 OA
ATOM     44  C   UNL     1      66.553 236.899 336.620  0.00  0.00    +0.000 C 
ENDBRANCH  42  43
ENDBRANCH  23  42
BRANCH  30  45
ATOM     45  O   UNL     1      68.820 238.836 343.735  0.00  0.00    +0.000 OA
ATOM     46  H   UNL     1      68.455 237.999 343.396  0.00  0.00    +0.000 HD
ENDBRANCH  30  45
BRANCH  30  47
ATOM     47  C   UNL     1      68.982 241.173 343.463  0.00  0.00    +0.000 C 
ATOM     48  C   UNL     1      68.441 242.504 342.968  0.00  0.00    +0.000 C 
ENDBRANCH  30  47
ENDBRANCH  19  23
BRANCH   7  49
ATOM     49  O   UNL     1      71.541 237.720 331.008  0.00  0.00    +0.000 OA
ATOM     50  H   UNL     1      71.105 236.969 331.460  0.00  0.00    +0.000 HD
ENDBRANCH   7  49
BRANCH   7  52
ATOM     51  O   UNL     1      73.056 240.854 331.999  0.00  0.00    +0.000 OA
ATOM     52  C   UNL     1      72.684 239.841 331.421  0.00  0.00    +0.000 C 
BRANCH  52  53
ATOM     53  O   UNL     1      72.826 239.643 330.069  0.00  0.00    +0.000 OA
ATOM     54  C   UNL     1      72.292 240.700 329.269  0.00  0.00    +0.000 C 
ENDBRANCH  52  53
ENDBRANCH   7  52
BRANCH  20  55
ATOM     55  O   UNL     1      66.176 241.329 335.467  0.00  0.00    +0.000 OA
ATOM     56  C   UNL     1      65.433 241.593 334.280  0.00  0.00    +0.000 C 
ENDBRANCH  20  55
BRANCH   6  57
ATOM     57  C   UNL     1      71.725 235.641 333.346  0.00  0.00    +0.000 C 
ATOM     58  C   UNL     1      70.565 235.101 334.185  0.00  0.00    +0.000 C 
ENDBRANCH   6  57
BRANCH   9  59
ATOM     59  O   UNL     1      74.224 238.519 333.354  0.00  0.00    +0.000 OA
BRANCH  59  61
ATOM     60  O   UNL     1      76.502 238.486 333.587  0.00  0.00    +0.000 OA
ATOM     61  C   UNL     1      75.490 238.227 332.952  0.00  0.00    +0.000 C 
ATOM     62  C   UNL     1      75.462 237.511 331.637  0.00  0.00    +0.000 C 
ENDBRANCH  59  61
ENDBRANCH   9  59
TORSDOF 12
ENDMDL
MODEL 4
REMARK VINA RESULT:      -6.3     16.292     21.624
REMARK  Name = 
REMARK  19 active torsions:
REMARK  status: ('A' for Active; 'I' for Inactive)
REMARK    1  A    between atoms: O_1  and  C_20
REMARK    2  A    between atoms: O_1  and  C_36
REMARK    3  A    between atoms: O_2  and  C_18
REMARK    4  A    between atoms: O_3  and  C_28
REMARK    5  A    between atoms: O_3  and  C_42
REMARK    6  A    between atoms: O_5  and  C_34
REMARK    7  A    between atoms: O_5  and  C_50
REMARK    8  A    between atoms: O_7  and  C_40
REMARK    9  A    between atoms: O_7  and  C_56
REMARK   10  A    between atoms: O_9  and  C_46
REMARK   11  A    between atoms: N_11  and  C_30
REMARK   12  A    between atoms: C_17  and  C_23
REMARK   13  A    between atoms: C_18  and  C_28
REMARK   14  A    between atoms: C_23  and  C_32
REMARK   15  A    between atoms: C_33  and  C_35
REMARK   16  A    between atoms: C_35  and  C_40
REMARK   17  A    between atoms: C_36  and  C_41
REMARK   18  A    between atoms: C_46  and  C_53
REMARK   19  A    between atoms: C_53  and  C_57
REMARK                            x       y       z     vdW  Elec       q    Type
REMARK                         _______ _______ _______ _____ _____    ______ ____
ROOT
ATOM      1  N   UNL     1      69.585 242.542 334.701  0.00  0.00    +0.000 NA
ATOM      2  N   UNL     1      67.814 238.544 336.614  0.00  0.00    +0.000 N 
ATOM      3  C   UNL     1      68.684 240.603 335.630  0.00  0.00    +0.000 C 
ATOM      4  C   UNL     1      68.327 241.772 334.696  0.00  0.00    +0.000 C 
ATOM      5  C   UNL     1      67.405 239.892 336.117  0.00  0.00    +0.000 C 
ATOM      6  C   UNL     1      66.993 242.547 335.115  0.00  0.00    +0.000 C 
ATOM      7  C   UNL     1      66.453 240.737 336.979  0.00  0.00    +0.000 C 
ATOM      8  C   UNL     1      69.676 241.194 336.650  0.00  0.00    +0.000 C 
ATOM      9  C   UNL     1      66.545 242.256 336.616  0.00  0.00    +0.000 C 
ATOM     10  C   UNL     1      69.351 239.377 335.038  0.00  0.00    +0.000 A 
ATOM     11  C   UNL     1      70.121 242.529 336.057  0.00  0.00    +0.000 C 
ATOM     12  C   UNL     1      68.854 238.236 335.684  0.00  0.00    +0.000 A 
ATOM     13  C   UNL     1      67.152 244.061 334.965  0.00  0.00    +0.000 C 
ATOM     14  C   UNL     1      69.491 243.869 334.112  0.00  0.00    +0.000 C 
ATOM     15  C   UNL     1      68.271 244.637 334.503  0.00  0.00    +0.000 C 
ATOM     16  C   UNL     1      70.342 239.300 334.065  0.00  0.00    +0.000 A 
ATOM     17  C   UNL     1      66.775 237.522 336.724  0.00  0.00    +0.000 C 
ATOM     18  C   UNL     1      69.383 236.996 335.382  0.00  0.00    +0.000 A 
ATOM     19  C   UNL     1      70.898 238.050 333.730  0.00  0.00    +0.000 A 
ATOM     20  C   UNL     1      70.403 236.904 334.420  0.00  0.00    +0.000 A 
ENDROOT
BRANCH  19  23
ATOM     21  N   UNL     1      74.970 236.869 329.656  0.00  0.00    +0.000 NA
ATOM     22  N   UNL     1      70.427 239.110 331.113  0.00  0.00    +0.000 N 
ATOM     23  C   UNL     1      72.045 237.906 332.651  0.00  0.00    +0.000 C 
ATOM     24  C   UNL     1      72.169 236.401 332.132  0.00  0.00    +0.000 C 
ATOM     25  C   UNL     1      71.745 238.799 331.399  0.00  0.00    +0.000 A 
ATOM     26  C   UNL     1      72.986 236.173 330.849  0.00  0.00    +0.000 C 
ATOM     27  C   UNL     1      72.946 234.745 330.307  0.00  0.00    +0.000 C 
ATOM     28  C   UNL     1      74.457 236.540 330.974  0.00  0.00    +0.000 C 
ATOM     29  C   UNL     1      72.509 239.340 330.349  0.00  0.00    +0.000 A 
ATOM     30  C   UNL     1      73.766 234.608 328.989  0.00  0.00    +0.000 C 
ATOM     31  C   UNL     1      74.875 235.710 328.741  0.00  0.00    +0.000 C 
ATOM     32  C   UNL     1      73.998 239.265 330.048  0.00  0.00    +0.000 C 
ATOM     33  C   UNL     1      74.393 238.110 329.078  0.00  0.00    +0.000 C 
ATOM     34  C   UNL     1      71.590 240.023 329.469  0.00  0.00    +0.000 A 
ATOM     35  C   UNL     1      70.309 239.860 329.976  0.00  0.00    +0.000 A 
ATOM     36  C   UNL     1      71.739 240.755 328.269  0.00  0.00    +0.000 A 
ATOM     37  C   UNL     1      69.167 240.391 329.363  0.00  0.00    +0.000 A 
ATOM     38  C   UNL     1      70.612 241.295 327.639  0.00  0.00    +0.000 A 
ATOM     39  C   UNL     1      69.344 241.115 328.181  0.00  0.00    +0.000 A 
ATOM     40  H   UNL     1      69.636 238.838 331.684  0.00  0.00    +0.000 HD
BRANCH  23  42
ATOM     41  O   UNL     1      73.868 239.452 333.402  0.00  0.00    +0.000 OA
ATOM     42  C   UNL     1      73.355 238.340 333.388  0.00  0.00    +0.000 C 
BRANCH  42  43
ATOM     43  O   UNL     1      73.875 237.273 334.083  0.00  0.00    +0.000 OA
ATOM     44  C   UNL     1      74.155 237.555 335.454  0.00  0.00    +0.000 C 
ENDBRANCH  42  43
ENDBRANCH  23  42
BRANCH  30  45
ATOM     45  O   UNL     1      74.446 233.332 329.094  0.00  0.00    +0.000 OA
ATOM     46  H   UNL     1      73.785 232.672 329.370  0.00  0.00    +0.000 HD
ENDBRANCH  30  45
BRANCH  30  47
ATOM     47  C   UNL     1      72.842 234.434 327.761  0.00  0.00    +0.000 C 
ATOM     48  C   UNL     1      72.859 233.074 327.085  0.00  0.00    +0.000 C 
ENDBRANCH  30  47
ENDBRANCH  19  23
BRANCH   7  49
ATOM     49  O   UNL     1      65.104 240.312 336.601  0.00  0.00    +0.000 OA
ATOM     50  H   UNL     1      65.065 240.375 335.625  0.00  0.00    +0.000 HD
ENDBRANCH   7  49
BRANCH   7  52
ATOM     51  O   UNL     1      67.693 240.244 339.074  0.00  0.00    +0.000 OA
ATOM     52  C   UNL     1      66.641 240.478 338.495  0.00  0.00    +0.000 C 
BRANCH  52  53
ATOM     53  O   UNL     1      65.438 240.629 339.141  0.00  0.00    +0.000 OA
ATOM     54  C   UNL     1      65.556 240.803 340.554  0.00  0.00    +0.000 C 
ENDBRANCH  52  53
ENDBRANCH   7  52
BRANCH  20  55
ATOM     55  O   UNL     1      70.919 235.684 334.062  0.00  0.00    +0.000 OA
ATOM     56  C   UNL     1      70.359 234.565 334.743  0.00  0.00    +0.000 C 
ENDBRANCH  20  55
BRANCH   6  57
ATOM     57  C   UNL     1      65.818 242.135 334.155  0.00  0.00    +0.000 C 
ATOM     58  C   UNL     1      66.211 241.405 332.869  0.00  0.00    +0.000 C 
ENDBRANCH   6  57
BRANCH   9  59
ATOM     59  O   UNL     1      67.435 242.975 337.501  0.00  0.00    +0.000 OA
BRANCH  59  61
ATOM     60  O   UNL     1      65.736 243.953 338.687  0.00  0.00    +0.000 OA
ATOM     61  C   UNL     1      66.888 243.950 338.276  0.00  0.00    +0.000 C 
ATOM     62  C   UNL     1      67.910 245.000 338.582  0.00  0.00    +0.000 C 
ENDBRANCH  59  61
ENDBRANCH   9  59
TORSDOF 12
ENDMDL
MODEL 5
REMARK VINA RESULT:      -6.2     19.779     22.977
REMARK  Name = 
REMARK  19 active torsions:
REMARK  status: ('A' for Active; 'I' for Inactive)
REMARK    1  A    between atoms: O_1  and  C_20
REMARK    2  A    between atoms: O_1  and  C_36
REMARK    3  A    between atoms: O_2  and  C_18
REMARK    4  A    between atoms: O_3  and  C_28
REMARK    5  A    between atoms: O_3  and  C_42
REMARK    6  A    between atoms: O_5  and  C_34
REMARK    7  A    between atoms: O_5  and  C_50
REMARK    8  A    between atoms: O_7  and  C_40
REMARK    9  A    between atoms: O_7  and  C_56
REMARK   10  A    between atoms: O_9  and  C_46
REMARK   11  A    between atoms: N_11  and  C_30
REMARK   12  A    between atoms: C_17  and  C_23
REMARK   13  A    between atoms: C_18  and  C_28
REMARK   14  A    between atoms: C_23  and  C_32
REMARK   15  A    between atoms: C_33  and  C_35
REMARK   16  A    between atoms: C_35  and  C_40
REMARK   17  A    between atoms: C_36  and  C_41
REMARK   18  A    between atoms: C_46  and  C_53
REMARK   19  A    between atoms: C_53  and  C_57
REMARK                            x       y       z     vdW  Elec       q    Type
REMARK                         _______ _______ _______ _____ _____    ______ ____
ROOT
ATOM      1  N   UNL     1      65.613 244.056 333.588  0.00  0.00    +0.000 NA
ATOM      2  N   UNL     1      69.164 240.867 333.653  0.00  0.00    +0.000 N 
ATOM      3  C   UNL     1      67.370 242.523 333.601  0.00  0.00    +0.000 C 
ATOM      4  C   UNL     1      67.084 244.030 333.479  0.00  0.00    +0.000 C 
ATOM      5  C   UNL     1      68.792 242.202 333.097  0.00  0.00    +0.000 C 
ATOM      6  C   UNL     1      67.734 244.706 332.185  0.00  0.00    +0.000 C 
ATOM      7  C   UNL     1      69.055 242.479 331.607  0.00  0.00    +0.000 C 
ATOM      8  C   UNL     1      66.149 241.832 332.965  0.00  0.00    +0.000 C 
ATOM      9  C   UNL     1      68.164 243.649 331.074  0.00  0.00    +0.000 C 
ATOM     10  C   UNL     1      67.536 241.924 334.984  0.00  0.00    +0.000 A 
ATOM     11  C   UNL     1      65.082 242.917 332.847  0.00  0.00    +0.000 C 
ATOM     12  C   UNL     1      68.535 240.943 334.934  0.00  0.00    +0.000 A 
ATOM     13  C   UNL     1      66.774 245.702 331.529  0.00  0.00    +0.000 C 
ATOM     14  C   UNL     1      64.997 245.328 333.244  0.00  0.00    +0.000 C 
ATOM     15  C   UNL     1      65.559 245.979 332.021  0.00  0.00    +0.000 C 
ATOM     16  C   UNL     1      66.823 242.191 336.148  0.00  0.00    +0.000 A 
ATOM     17  C   UNL     1      70.585 240.525 333.693  0.00  0.00    +0.000 C 
ATOM     18  C   UNL     1      68.803 240.184 336.057  0.00  0.00    +0.000 A 
ATOM     19  C   UNL     1      67.076 241.439 337.312  0.00  0.00    +0.000 A 
ATOM     20  C   UNL     1      68.074 240.423 337.233  0.00  0.00    +0.000 A 
ENDROOT
BRANCH  19  23
ATOM     21  N   UNL     1      64.680 242.177 342.630  0.00  0.00    +0.000 NA
ATOM     22  N   UNL     1      66.624 244.142 338.141  0.00  0.00    +0.000 N 
ATOM     23  C   UNL     1      66.278 241.682 338.655  0.00  0.00    +0.000 C 
ATOM     24  C   UNL     1      67.169 241.329 339.932  0.00  0.00    +0.000 C 
ATOM     25  C   UNL     1      65.860 243.186 338.789  0.00  0.00    +0.000 A 
ATOM     26  C   UNL     1      66.665 241.837 341.293  0.00  0.00    +0.000 C 
ATOM     27  C   UNL     1      67.627 241.611 342.459  0.00  0.00    +0.000 C 
ATOM     28  C   UNL     1      65.329 241.248 341.723  0.00  0.00    +0.000 C 
ATOM     29  C   UNL     1      64.892 243.894 339.524  0.00  0.00    +0.000 A 
ATOM     30  C   UNL     1      67.059 242.187 343.791  0.00  0.00    +0.000 C 
ATOM     31  C   UNL     1      65.489 242.385 343.851  0.00  0.00    +0.000 C 
ATOM     32  C   UNL     1      63.822 243.420 340.495  0.00  0.00    +0.000 C 
ATOM     33  C   UNL     1      64.262 243.451 341.990  0.00  0.00    +0.000 C 
ATOM     34  C   UNL     1      65.089 245.296 339.237  0.00  0.00    +0.000 A 
ATOM     35  C   UNL     1      66.170 245.410 338.376  0.00  0.00    +0.000 A 
ATOM     36  C   UNL     1      64.446 246.484 339.654  0.00  0.00    +0.000 A 
ATOM     37  C   UNL     1      66.644 246.637 337.896  0.00  0.00    +0.000 A 
ATOM     38  C   UNL     1      64.902 247.722 339.187  0.00  0.00    +0.000 A 
ATOM     39  C   UNL     1      65.987 247.795 338.319  0.00  0.00    +0.000 A 
ATOM     40  H   UNL     1      67.415 243.936 337.544  0.00  0.00    +0.000 HD
BRANCH  23  42
ATOM     41  O   UNL     1      63.929 240.988 338.127  0.00  0.00    +0.000 OA
ATOM     42  C   UNL     1      65.040 240.728 338.572  0.00  0.00    +0.000 C 
BRANCH  42  43
ATOM     43  O   UNL     1      65.375 239.485 339.055  0.00  0.00    +0.000 OA
ATOM     44  C   UNL     1      65.071 238.415 338.161  0.00  0.00    +0.000 C 
ENDBRANCH  42  43
ENDBRANCH  23  42
BRANCH  30  45
ATOM     45  O   UNL     1      67.406 241.212 344.807  0.00  0.00    +0.000 OA
ATOM     46  H   UNL     1      67.281 241.638 345.673  0.00  0.00    +0.000 HD
ENDBRANCH  30  45
BRANCH  30  47
ATOM     47  C   UNL     1      67.818 243.462 344.228  0.00  0.00    +0.000 C 
ATOM     48  C   UNL     1      69.034 243.844 343.402  0.00  0.00    +0.000 C 
ENDBRANCH  30  47
ENDBRANCH  19  23
BRANCH   7  49
ATOM     49  O   UNL     1      70.436 242.960 331.538  0.00  0.00    +0.000 OA
ATOM     50  H   UNL     1      70.885 242.604 332.333  0.00  0.00    +0.000 HD
ENDBRANCH   7  49
BRANCH   7  52
ATOM     51  O   UNL     1      68.054 240.358 330.791  0.00  0.00    +0.000 OA
ATOM     52  C   UNL     1      68.938 241.201 330.739  0.00  0.00    +0.000 C 
BRANCH  52  53
ATOM     53  O   UNL     1      69.953 241.179 329.813  0.00  0.00    +0.000 OA
ATOM     54  C   UNL     1      70.570 239.899 329.659  0.00  0.00    +0.000 C 
ENDBRANCH  52  53
ENDBRANCH   7  52
BRANCH  20  55
ATOM     55  O   UNL     1      68.345 239.720 338.380  0.00  0.00    +0.000 OA
ATOM     56  C   UNL     1      69.505 238.896 338.326  0.00  0.00    +0.000 C 
ENDBRANCH  20  55
BRANCH   6  57
ATOM     57  C   UNL     1      69.004 245.536 332.602  0.00  0.00    +0.000 C 
ATOM     58  C   UNL     1      69.177 245.813 334.096  0.00  0.00    +0.000 C 
ENDBRANCH   6  57
BRANCH   9  59
ATOM     59  O   UNL     1      66.965 243.166 330.421  0.00  0.00    +0.000 OA
BRANCH  59  61
ATOM     60  O   UNL     1      67.670 242.985 328.248  0.00  0.00    +0.000 OA
ATOM     61  C   UNL     1      66.861 243.373 329.081  0.00  0.00    +0.000 C 
ATOM     62  C   UNL     1      65.597 244.112 328.769  0.00  0.00    +0.000 C 
ENDBRANCH  59  61
ENDBRANCH   9  59
TORSDOF 12
ENDMDL
MODEL 6
REMARK VINA RESULT:      -6.2      5.302     12.084
REMARK  Name = 
REMARK  19 active torsions:
REMARK  status: ('A' for Active; 'I' for Inactive)
REMARK    1  A    between atoms: O_1  and  C_20
REMARK    2  A    between atoms: O_1  and  C_36
REMARK    3  A    between atoms: O_2  and  C_18
REMARK    4  A    between atoms: O_3  and  C_28
REMARK    5  A    between atoms: O_3  and  C_42
REMARK    6  A    between atoms: O_5  and  C_34
REMARK    7  A    between atoms: O_5  and  C_50
REMARK    8  A    between atoms: O_7  and  C_40
REMARK    9  A    between atoms: O_7  and  C_56
REMARK   10  A    between atoms: O_9  and  C_46
REMARK   11  A    between atoms: N_11  and  C_30
REMARK   12  A    between atoms: C_17  and  C_23
REMARK   13  A    between atoms: C_18  and  C_28
REMARK   14  A    between atoms: C_23  and  C_32
REMARK   15  A    between atoms: C_33  and  C_35
REMARK   16  A    between atoms: C_35  and  C_40
REMARK   17  A    between atoms: C_36  and  C_41
REMARK   18  A    between atoms: C_46  and  C_53
REMARK   19  A    between atoms: C_53  and  C_57
REMARK                            x       y       z     vdW  Elec       q    Type
REMARK                         _______ _______ _______ _____ _____    ______ ____
ROOT
ATOM      1  N   UNL     1      72.860 222.007 337.897  0.00  0.00    +0.000 NA
ATOM      2  N   UNL     1      69.291 219.395 336.103  0.00  0.00    +0.000 N 
ATOM      3  C   UNL     1      71.092 220.752 337.041  0.00  0.00    +0.000 C 
ATOM      4  C   UNL     1      71.404 222.112 337.690  0.00  0.00    +0.000 C 
ATOM      5  C   UNL     1      69.581 220.453 337.116  0.00  0.00    +0.000 C 
ATOM      6  C   UNL     1      70.504 222.435 338.970  0.00  0.00    +0.000 C 
ATOM      7  C   UNL     1      68.997 220.297 338.530  0.00  0.00    +0.000 C 
ATOM      8  C   UNL     1      72.107 219.771 337.660  0.00  0.00    +0.000 C 
ATOM      9  C   UNL     1      69.789 221.147 339.576  0.00  0.00    +0.000 C 
ATOM     10  C   UNL     1      71.222 220.617 335.536  0.00  0.00    +0.000 A 
ATOM     11  C   UNL     1      73.162 220.648 338.330  0.00  0.00    +0.000 C 
ATOM     12  C   UNL     1      70.198 219.782 335.068  0.00  0.00    +0.000 A 
ATOM     13  C   UNL     1      71.329 223.076 340.089  0.00  0.00    +0.000 C 
ATOM     14  C   UNL     1      73.433 223.042 338.744  0.00  0.00    +0.000 C 
ATOM     15  C   UNL     1      72.634 223.354 339.969  0.00  0.00    +0.000 C 
ATOM     16  C   UNL     1      72.191 221.141 334.688  0.00  0.00    +0.000 A 
ATOM     17  C   UNL     1      67.905 219.239 335.667  0.00  0.00    +0.000 C 
ATOM     18  C   UNL     1      70.163 219.429 333.733  0.00  0.00    +0.000 A 
ATOM     19  C   UNL     1      72.181 220.805 333.320  0.00  0.00    +0.000 A 
ATOM     20  C   UNL     1      71.151 219.929 332.867  0.00  0.00    +0.000 A 
ENDROOT
BRANCH  19  23
ATOM     21  N   UNL     1      75.729 223.092 329.227  0.00  0.00    +0.000 NA
ATOM     22  N   UNL     1      73.667 223.132 334.078  0.00  0.00    +0.000 N 
ATOM     23  C   UNL     1      73.273 221.351 332.316  0.00  0.00    +0.000 C 
ATOM     24  C   UNL     1      72.599 222.064 331.056  0.00  0.00    +0.000 C 
ATOM     25  C   UNL     1      74.186 222.417 333.012  0.00  0.00    +0.000 A 
ATOM     26  C   UNL     1      73.512 222.939 330.181  0.00  0.00    +0.000 C 
ATOM     27  C   UNL     1      72.793 223.723 329.084  0.00  0.00    +0.000 C 
ATOM     28  C   UNL     1      74.634 222.175 329.493  0.00  0.00    +0.000 C 
ATOM     29  C   UNL     1      75.464 222.952 332.770  0.00  0.00    +0.000 A 
ATOM     30  C   UNL     1      73.782 224.610 328.270  0.00  0.00    +0.000 C 
ATOM     31  C   UNL     1      75.305 224.178 328.317  0.00  0.00    +0.000 C 
ATOM     32  C   UNL     1      76.490 222.651 331.689  0.00  0.00    +0.000 C 
ATOM     33  C   UNL     1      76.405 223.593 330.451  0.00  0.00    +0.000 C 
ATOM     34  C   UNL     1      75.690 223.970 333.770  0.00  0.00    +0.000 A 
ATOM     35  C   UNL     1      74.555 224.051 334.563  0.00  0.00    +0.000 A 
ATOM     36  C   UNL     1      76.763 224.844 334.056  0.00  0.00    +0.000 A 
ATOM     37  C   UNL     1      74.429 224.946 335.632  0.00  0.00    +0.000 A 
ATOM     38  C   UNL     1      76.659 225.746 335.121  0.00  0.00    +0.000 A 
ATOM     39  C   UNL     1      75.506 225.795 335.897  0.00  0.00    +0.000 A 
ATOM     40  H   UNL     1      72.748 222.984 334.475  0.00  0.00    +0.000 HD
BRANCH  23  42
ATOM     41  O   UNL     1      74.073 219.560 330.757  0.00  0.00    +0.000 OA
ATOM     42  C   UNL     1      74.077 220.087 331.863  0.00  0.00    +0.000 C 
BRANCH  42  43
ATOM     43  O   UNL     1      74.854 219.630 332.901  0.00  0.00    +0.000 OA
ATOM     44  C   UNL     1      74.827 218.212 333.064  0.00  0.00    +0.000 C 
ENDBRANCH  42  43
ENDBRANCH  23  42
BRANCH  30  45
ATOM     45  O   UNL     1      73.348 224.499 326.892  0.00  0.00    +0.000 OA
ATOM     46  H   UNL     1      72.403 224.265 326.903  0.00  0.00    +0.000 HD
ENDBRANCH  30  45
BRANCH  30  47
ATOM     47  C   UNL     1      73.599 226.111 328.596  0.00  0.00    +0.000 C 
ATOM     48  C   UNL     1      74.803 227.007 328.367  0.00  0.00    +0.000 C 
ENDBRANCH  30  47
ENDBRANCH  19  23
BRANCH   7  49
ATOM     49  O   UNL     1      67.657 220.884 338.465  0.00  0.00    +0.000 OA
ATOM     50  H   UNL     1      67.030 220.137 338.562  0.00  0.00    +0.000 HD
ENDBRANCH   7  49
BRANCH   7  52
ATOM     51  O   UNL     1      69.702 217.934 338.827  0.00  0.00    +0.000 OA
ATOM     52  C   UNL     1      68.860 218.813 338.953  0.00  0.00    +0.000 C 
BRANCH  52  53
ATOM     53  O   UNL     1      67.655 218.623 339.585  0.00  0.00    +0.000 OA
ATOM     54  C   UNL     1      66.921 217.494 339.107  0.00  0.00    +0.000 C 
ENDBRANCH  52  53
ENDBRANCH   7  52
BRANCH  20  55
ATOM     55  O   UNL     1      71.120 219.637 331.527  0.00  0.00    +0.000 OA
ATOM     56  C   UNL     1      69.821 219.611 330.941  0.00  0.00    +0.000 C 
ENDBRANCH  20  55
BRANCH   6  57
ATOM     57  C   UNL     1      69.397 223.486 338.588  0.00  0.00    +0.000 C 
ATOM     58  C   UNL     1      69.554 224.179 337.233  0.00  0.00    +0.000 C 
ENDBRANCH   6  57
BRANCH   9  59
ATOM     59  O   UNL     1      70.787 220.363 340.273  0.00  0.00    +0.000 OA
BRANCH  59  61
ATOM     60  O   UNL     1      69.554 219.736 342.099  0.00  0.00    +0.000 OA
ATOM     61  C   UNL     1      70.592 220.148 341.602  0.00  0.00    +0.000 C 
ATOM     62  C   UNL     1      71.844 220.454 342.363  0.00  0.00    +0.000 C 
ENDBRANCH  59  61
ENDBRANCH   9  59
TORSDOF 12
ENDMDL
MODEL 7
REMARK VINA RESULT:      -6.2     19.096     24.020
REMARK  Name = 
REMARK  19 active torsions:
REMARK  status: ('A' for Active; 'I' for Inactive)
REMARK    1  A    between atoms: O_1  and  C_20
REMARK    2  A    between atoms: O_1  and  C_36
REMARK    3  A    between atoms: O_2  and  C_18
REMARK    4  A    between atoms: O_3  and  C_28
REMARK    5  A    between atoms: O_3  and  C_42
REMARK    6  A    between atoms: O_5  and  C_34
REMARK    7  A    between atoms: O_5  and  C_50
REMARK    8  A    between atoms: O_7  and  C_40
REMARK    9  A    between atoms: O_7  and  C_56
REMARK   10  A    between atoms: O_9  and  C_46
REMARK   11  A    between atoms: N_11  and  C_30
REMARK   12  A    between atoms: C_17  and  C_23
REMARK   13  A    between atoms: C_18  and  C_28
REMARK   14  A    between atoms: C_23  and  C_32
REMARK   15  A    between atoms: C_33  and  C_35
REMARK   16  A    between atoms: C_35  and  C_40
REMARK   17  A    between atoms: C_36  and  C_41
REMARK   18  A    between atoms: C_46  and  C_53
REMARK   19  A    between atoms: C_53  and  C_57
REMARK                            x       y       z     vdW  Elec       q    Type
REMARK                         _______ _______ _______ _____ _____    ______ ____
ROOT
ATOM      1  N   UNL     1      59.763 227.168 320.439  0.00  0.00    +0.000 NA
ATOM      2  N   UNL     1      64.215 228.838 320.025  0.00  0.00    +0.000 N 
ATOM      3  C   UNL     1      61.923 228.019 320.227  0.00  0.00    +0.000 C 
ATOM      4  C   UNL     1      60.467 228.464 320.445  0.00  0.00    +0.000 C 
ATOM      5  C   UNL     1      62.791 229.211 319.776  0.00  0.00    +0.000 C 
ATOM      6  C   UNL     1      59.971 229.571 319.404  0.00  0.00    +0.000 C 
ATOM      7  C   UNL     1      62.421 229.836 318.420  0.00  0.00    +0.000 C 
ATOM      8  C   UNL     1      61.828 226.755 319.350  0.00  0.00    +0.000 C 
ATOM      9  C   UNL     1      60.895 229.676 318.112  0.00  0.00    +0.000 C 
ATOM     10  C   UNL     1      62.758 227.644 321.436  0.00  0.00    +0.000 A 
ATOM     11  C   UNL     1      60.363 226.329 319.410  0.00  0.00    +0.000 C 
ATOM     12  C   UNL     1      64.071 228.089 321.234  0.00  0.00    +0.000 A 
ATOM     13  C   UNL     1      58.542 229.296 318.929  0.00  0.00    +0.000 C 
ATOM     14  C   UNL     1      58.313 227.261 320.360  0.00  0.00    +0.000 C 
ATOM     15  C   UNL     1      57.808 228.266 319.376  0.00  0.00    +0.000 C 
ATOM     16  C   UNL     1      62.389 226.928 322.570  0.00  0.00    +0.000 A 
ATOM     17  C   UNL     1      65.194 229.921 320.095  0.00  0.00    +0.000 C 
ATOM     18  C   UNL     1      65.047 227.779 322.162  0.00  0.00    +0.000 A 
ATOM     19  C   UNL     1      63.359 226.601 323.538  0.00  0.00    +0.000 A 
ATOM     20  C   UNL     1      64.696 227.034 323.300  0.00  0.00    +0.000 A 
ENDROOT
BRANCH  19  23
ATOM     21  N   UNL     1      61.406 223.431 328.089  0.00  0.00    +0.000 NA
ATOM     22  N   UNL     1      64.291 223.899 323.702  0.00  0.00    +0.000 N 
ATOM     23  C   UNL     1      63.001 225.767 324.833  0.00  0.00    +0.000 C 
ATOM     24  C   UNL     1      61.460 225.346 324.845  0.00  0.00    +0.000 C 
ATOM     25  C   UNL     1      63.837 224.444 324.891  0.00  0.00    +0.000 A 
ATOM     26  C   UNL     1      61.046 224.253 325.844  0.00  0.00    +0.000 C 
ATOM     27  C   UNL     1      59.601 223.775 325.711  0.00  0.00    +0.000 C 
ATOM     28  C   UNL     1      61.233 224.641 327.304  0.00  0.00    +0.000 C 
ATOM     29  C   UNL     1      64.206 223.536 325.901  0.00  0.00    +0.000 A 
ATOM     30  C   UNL     1      59.273 222.645 326.732  0.00  0.00    +0.000 C 
ATOM     31  C   UNL     1      60.209 222.566 328.007  0.00  0.00    +0.000 C 
ATOM     32  C   UNL     1      63.925 223.528 327.395  0.00  0.00    +0.000 C 
ATOM     33  C   UNL     1      62.668 222.701 327.801  0.00  0.00    +0.000 C 
ATOM     34  C   UNL     1      64.938 222.469 325.260  0.00  0.00    +0.000 A 
ATOM     35  C   UNL     1      64.971 222.729 323.898  0.00  0.00    +0.000 A 
ATOM     36  C   UNL     1      65.563 221.289 325.725  0.00  0.00    +0.000 A 
ATOM     37  C   UNL     1      65.598 221.888 322.970  0.00  0.00    +0.000 A 
ATOM     38  C   UNL     1      66.197 220.434 324.816  0.00  0.00    +0.000 A 
ATOM     39  C   UNL     1      66.213 220.732 323.457  0.00  0.00    +0.000 A 
ATOM     40  H   UNL     1      64.159 224.319 322.791  0.00  0.00    +0.000 HD
BRANCH  23  42
ATOM     41  O   UNL     1      64.233 226.627 326.837  0.00  0.00    +0.000 OA
ATOM     42  C   UNL     1      63.315 226.721 326.032  0.00  0.00    +0.000 C 
BRANCH  42  43
ATOM     43  O   UNL     1      62.407 227.754 326.059  0.00  0.00    +0.000 OA
ATOM     44  C   UNL     1      62.957 228.998 326.491  0.00  0.00    +0.000 C 
ENDBRANCH  42  43
ENDBRANCH  23  42
BRANCH  30  45
ATOM     45  O   UNL     1      57.932 222.932 327.203  0.00  0.00    +0.000 OA
ATOM     46  H   UNL     1      57.965 223.786 327.669  0.00  0.00    +0.000 HD
ENDBRANCH  30  45
BRANCH  30  47
ATOM     47  C   UNL     1      59.134 221.272 326.034  0.00  0.00    +0.000 C 
ATOM     48  C   UNL     1      60.426 220.551 325.690  0.00  0.00    +0.000 C 
ENDBRANCH  30  47
ENDBRANCH  19  23
BRANCH   7  49
ATOM     49  O   UNL     1      62.652 231.273 318.577  0.00  0.00    +0.000 OA
ATOM     50  H   UNL     1      63.130 231.559 317.771  0.00  0.00    +0.000 HD
ENDBRANCH   7  49
BRANCH   7  52
ATOM     51  O   UNL     1      63.595 228.154 317.021  0.00  0.00    +0.000 OA
ATOM     52  C   UNL     1      63.316 229.319 317.266  0.00  0.00    +0.000 C 
BRANCH  52  53
ATOM     53  O   UNL     1      63.706 230.375 316.478  0.00  0.00    +0.000 OA
ATOM     54  C   UNL     1      63.631 230.111 315.076  0.00  0.00    +0.000 C 
ENDBRANCH  52  53
ENDBRANCH   7  52
BRANCH  20  55
ATOM     55  O   UNL     1      65.630 226.748 324.264  0.00  0.00    +0.000 OA
ATOM     56  C   UNL     1      66.964 226.591 323.790  0.00  0.00    +0.000 C 
ENDBRANCH  20  55
BRANCH   6  57
ATOM     57  C   UNL     1      59.933 230.979 320.106  0.00  0.00    +0.000 C 
ATOM     58  C   UNL     1      60.180 230.995 321.616  0.00  0.00    +0.000 C 
ENDBRANCH   6  57
BRANCH   9  59
ATOM     59  O   UNL     1      60.627 228.530 317.269  0.00  0.00    +0.000 OA
BRANCH  59  61
ATOM     60  O   UNL     1      60.142 229.834 315.449  0.00  0.00    +0.000 OA
ATOM     61  C   UNL     1      60.078 228.770 316.049  0.00  0.00    +0.000 C 
ATOM     62  C   UNL     1      59.413 227.533 315.530  0.00  0.00    +0.000 C 
ENDBRANCH  59  61
ENDBRANCH   9  59
TORSDOF 12
ENDMDL
MODEL 8
REMARK VINA RESULT:      -6.0     17.865     24.184
REMARK  Name = 
REMARK  19 active torsions:
REMARK  status: ('A' for Active; 'I' for Inactive)
REMARK    1  A    between atoms: O_1  and  C_20
REMARK    2  A    between atoms: O_1  and  C_36
REMARK    3  A    between atoms: O_2  and  C_18
REMARK    4  A    between atoms: O_3  and  C_28
REMARK    5  A    between atoms: O_3  and  C_42
REMARK    6  A    between atoms: O_5  and  C_34
REMARK    7  A    between atoms: O_5  and  C_50
REMARK    8  A    between atoms: O_7  and  C_40
REMARK    9  A    between atoms: O_7  and  C_56
REMARK   10  A    between atoms: O_9  and  C_46
REMARK   11  A    between atoms: N_11  and  C_30
REMARK   12  A    between atoms: C_17  and  C_23
REMARK   13  A    between atoms: C_18  and  C_28
REMARK   14  A    between atoms: C_23  and  C_32
REMARK   15  A    between atoms: C_33  and  C_35
REMARK   16  A    between atoms: C_35  and  C_40
REMARK   17  A    between atoms: C_36  and  C_41
REMARK   18  A    between atoms: C_46  and  C_53
REMARK   19  A    between atoms: C_53  and  C_57
REMARK                            x       y       z     vdW  Elec       q    Type
REMARK                         _______ _______ _______ _____ _____    ______ ____
ROOT
ATOM      1  N   UNL     1      62.531 229.128 321.603  0.00  0.00    +0.000 NA
ATOM      2  N   UNL     1      59.108 226.140 320.142  0.00  0.00    +0.000 N 
ATOM      3  C   UNL     1      60.871 227.673 320.853  0.00  0.00    +0.000 C 
ATOM      4  C   UNL     1      62.228 228.272 320.441  0.00  0.00    +0.000 C 
ATOM      5  C   UNL     1      60.150 227.077 319.627  0.00  0.00    +0.000 C 
ATOM      6  C   UNL     1      62.213 228.968 319.003  0.00  0.00    +0.000 C 
ATOM      7  C   UNL     1      59.760 228.077 318.526  0.00  0.00    +0.000 C 
ATOM      8  C   UNL     1      60.189 228.769 321.694  0.00  0.00    +0.000 C 
ATOM      9  C   UNL     1      60.745 229.291 318.477  0.00  0.00    +0.000 C 
ATOM     10  C   UNL     1      60.858 226.411 321.693  0.00  0.00    +0.000 A 
ATOM     11  C   UNL     1      61.294 229.767 322.033  0.00  0.00    +0.000 C 
ATOM     12  C   UNL     1      59.791 225.603 321.277  0.00  0.00    +0.000 A 
ATOM     13  C   UNL     1      63.003 230.279 319.005  0.00  0.00    +0.000 C 
ATOM     14  C   UNL     1      63.640 230.050 321.409  0.00  0.00    +0.000 C 
ATOM     15  C   UNL     1      63.647 230.743 320.085  0.00  0.00    +0.000 C 
ATOM     16  C   UNL     1      61.681 226.056 322.757  0.00  0.00    +0.000 A 
ATOM     17  C   UNL     1      58.586 225.136 319.217  0.00  0.00    +0.000 C 
ATOM     18  C   UNL     1      59.514 224.434 321.960  0.00  0.00    +0.000 A 
ATOM     19  C   UNL     1      61.428 224.868 323.471  0.00  0.00    +0.000 A 
ATOM     20  C   UNL     1      60.319 224.074 323.054  0.00  0.00    +0.000 A 
ENDROOT
BRANCH  19  23
ATOM     21  N   UNL     1      64.156 222.978 328.325  0.00  0.00    +0.000 NA
ATOM     22  N   UNL     1      63.099 222.562 323.177  0.00  0.00    +0.000 N 
ATOM     23  C   UNL     1      62.314 224.429 324.704  0.00  0.00    +0.000 C 
ATOM     24  C   UNL     1      61.424 223.766 325.853  0.00  0.00    +0.000 C 
ATOM     25  C   UNL     1      63.376 223.361 324.274  0.00  0.00    +0.000 A 
ATOM     26  C   UNL     1      62.170 222.983 326.946  0.00  0.00    +0.000 C 
ATOM     27  C   UNL     1      61.269 222.238 327.931  0.00  0.00    +0.000 C 
ATOM     28  C   UNL     1      63.111 223.832 327.788  0.00  0.00    +0.000 C 
ATOM     29  C   UNL     1      64.595 222.893 324.798  0.00  0.00    +0.000 A 
ATOM     30  C   UNL     1      62.101 221.442 328.981  0.00  0.00    +0.000 C 
ATOM     31  C   UNL     1      63.591 221.932 329.205  0.00  0.00    +0.000 C 
ATOM     32  C   UNL     1      65.378 223.301 326.036  0.00  0.00    +0.000 C 
ATOM     33  C   UNL     1      65.076 222.431 327.294  0.00  0.00    +0.000 C 
ATOM     34  C   UNL     1      65.043 221.827 323.932  0.00  0.00    +0.000 A 
ATOM     35  C   UNL     1      64.091 221.652 322.939  0.00  0.00    +0.000 A 
ATOM     36  C   UNL     1      66.176 220.982 323.921  0.00  0.00    +0.000 A 
ATOM     37  C   UNL     1      64.204 220.690 321.928  0.00  0.00    +0.000 A 
ATOM     38  C   UNL     1      66.310 220.013 322.919  0.00  0.00    +0.000 A 
ATOM     39  C   UNL     1      65.336 219.871 321.937  0.00  0.00    +0.000 A 
ATOM     40  H   UNL     1      62.273 222.648 322.599  0.00  0.00    +0.000 HD
BRANCH  23  42
ATOM     41  O   UNL     1      64.139 226.104 325.075  0.00  0.00    +0.000 OA
ATOM     42  C   UNL     1      62.976 225.749 325.221  0.00  0.00    +0.000 C 
BRANCH  42  43
ATOM     43  O   UNL     1      62.040 226.520 325.868  0.00  0.00    +0.000 OA
ATOM     44  C   UNL     1      62.407 227.893 325.995  0.00  0.00    +0.000 C 
ENDBRANCH  42  43
ENDBRANCH  23  42
BRANCH  30  45
ATOM     45  O   UNL     1      61.399 221.618 330.237  0.00  0.00    +0.000 OA
ATOM     46  H   UNL     1      61.855 221.074 330.903  0.00  0.00    +0.000 HD
ENDBRANCH  30  45
BRANCH  30  47
ATOM     47  C   UNL     1      62.028 219.919 328.726  0.00  0.00    +0.000 C 
ATOM     48  C   UNL     1      62.760 219.399 327.501  0.00  0.00    +0.000 C 
ENDBRANCH  30  47
ENDBRANCH  19  23
BRANCH   7  49
ATOM     49  O   UNL     1      59.943 227.358 317.263  0.00  0.00    +0.000 OA
ATOM     50  H   UNL     1      59.531 227.917 316.573  0.00  0.00    +0.000 HD
ENDBRANCH   7  49
BRANCH   7  52
ATOM     51  O   UNL     1      57.643 228.724 319.650  0.00  0.00    +0.000 OA
ATOM     52  C   UNL     1      58.278 228.519 318.626  0.00  0.00    +0.000 C 
BRANCH  52  53
ATOM     53  O   UNL     1      57.776 228.736 317.365  0.00  0.00    +0.000 OA
ATOM     54  C   UNL     1      56.444 228.253 317.181  0.00  0.00    +0.000 C 
ENDBRANCH  52  53
ENDBRANCH   7  52
BRANCH  20  55
ATOM     55  O   UNL     1      60.101 222.898 323.726  0.00  0.00    +0.000 OA
ATOM     56  C   UNL     1      59.527 221.852 322.948  0.00  0.00    +0.000 C 
ENDBRANCH  20  55
BRANCH   6  57
ATOM     57  C   UNL     1      62.923 228.034 317.955  0.00  0.00    +0.000 C 
ATOM     58  C   UNL     1      63.734 226.866 318.521  0.00  0.00    +0.000 C 
ENDBRANCH   6  57
BRANCH   9  59
ATOM     59  O   UNL     1      60.242 230.431 319.214  0.00  0.00    +0.000 OA
BRANCH  59  61
ATOM     60  O   UNL     1      58.700 232.098 318.910  0.00  0.00    +0.000 OA
ATOM     61  C   UNL     1      59.624 231.410 318.500  0.00  0.00    +0.000 C 
ATOM     62  C   UNL     1      60.261 231.546 317.152  0.00  0.00    +0.000 C 
ENDBRANCH  59  61
ENDBRANCH   9  59
TORSDOF 12
ENDMDL
MODEL 9
REMARK VINA RESULT:      -5.9     19.298     27.000
REMARK  Name = 
REMARK  19 active torsions:
REMARK  status: ('A' for Active; 'I' for Inactive)
REMARK    1  A    between atoms: O_1  and  C_20
REMARK    2  A    between atoms: O_1  and  C_36
REMARK    3  A    between atoms: O_2  and  C_18
REMARK    4  A    between atoms: O_3  and  C_28
REMARK    5  A    between atoms: O_3  and  C_42
REMARK    6  A    between atoms: O_5  and  C_34
REMARK    7  A    between atoms: O_5  and  C_50
REMARK    8  A    between atoms: O_7  and  C_40
REMARK    9  A    between atoms: O_7  and  C_56
REMARK   10  A    between atoms: O_9  and  C_46
REMARK   11  A    between atoms: N_11  and  C_30
REMARK   12  A    between atoms: C_17  and  C_23
REMARK   13  A    between atoms: C_18  and  C_28
REMARK   14  A    between atoms: C_23  and  C_32
REMARK   15  A    between atoms: C_33  and  C_35
REMARK   16  A    between atoms: C_35  and  C_40
REMARK   17  A    between atoms: C_36  and  C_41
REMARK   18  A    between atoms: C_46  and  C_53
REMARK   19  A    between atoms: C_53  and  C_57
REMARK                            x       y       z     vdW  Elec       q    Type
REMARK                         _______ _______ _______ _____ _____    ______ ____
ROOT
ATOM      1  N   UNL     1      61.141 225.168 324.018  0.00  0.00    +0.000 NA
ATOM      2  N   UNL     1      59.436 220.846 325.109  0.00  0.00    +0.000 N 
ATOM      3  C   UNL     1      60.311 223.066 324.589  0.00  0.00    +0.000 C 
ATOM      4  C   UNL     1      60.474 224.491 325.146  0.00  0.00    +0.000 C 
ATOM      5  C   UNL     1      60.024 222.070 325.730  0.00  0.00    +0.000 C 
ATOM      6  C   UNL     1      61.203 224.547 326.567  0.00  0.00    +0.000 C 
ATOM      7  C   UNL     1      61.143 221.902 326.772  0.00  0.00    +0.000 C 
ATOM      8  C   UNL     1      61.526 222.855 323.666  0.00  0.00    +0.000 C 
ATOM      9  C   UNL     1      61.990 223.208 326.921  0.00  0.00    +0.000 C 
ATOM     10  C   UNL     1      59.080 222.744 323.764  0.00  0.00    +0.000 A 
ATOM     11  C   UNL     1      62.115 224.247 323.445  0.00  0.00    +0.000 C 
ATOM     12  C   UNL     1      58.663 221.440 324.064  0.00  0.00    +0.000 A 
ATOM     13  C   UNL     1      62.201 225.704 326.642  0.00  0.00    +0.000 C 
ATOM     14  C   UNL     1      61.678 226.484 324.327  0.00  0.00    +0.000 C 
ATOM     15  C   UNL     1      62.393 226.571 325.637  0.00  0.00    +0.000 C 
ATOM     16  C   UNL     1      58.439 223.520 322.803  0.00  0.00    +0.000 A 
ATOM     17  C   UNL     1      58.686 219.941 325.979  0.00  0.00    +0.000 C 
ATOM     18  C   UNL     1      57.611 220.882 323.364  0.00  0.00    +0.000 A 
ATOM     19  C   UNL     1      57.359 222.982 322.075  0.00  0.00    +0.000 A 
ATOM     20  C   UNL     1      56.969 221.643 322.372  0.00  0.00    +0.000 A 
ENDROOT
BRANCH  19  23
ATOM     21  N   UNL     1      54.996 226.568 318.059  0.00  0.00    +0.000 NA
ATOM     22  N   UNL     1      57.997 222.428 319.340  0.00  0.00    +0.000 N 
ATOM     23  C   UNL     1      56.612 223.809 320.954  0.00  0.00    +0.000 C 
ATOM     24  C   UNL     1      57.150 225.311 320.884  0.00  0.00    +0.000 C 
ATOM     25  C   UNL     1      56.847 223.171 319.542  0.00  0.00    +0.000 A 
ATOM     26  C   UNL     1      56.777 226.125 319.634  0.00  0.00    +0.000 C 
ATOM     27  C   UNL     1      57.442 227.498 319.539  0.00  0.00    +0.000 C 
ATOM     28  C   UNL     1      55.283 226.364 319.468  0.00  0.00    +0.000 C 
ATOM     29  C   UNL     1      56.197 223.230 318.296  0.00  0.00    +0.000 A 
ATOM     30  C   UNL     1      57.042 228.240 318.229  0.00  0.00    +0.000 C 
ATOM     31  C   UNL     1      55.699 227.762 317.539  0.00  0.00    +0.000 C 
ATOM     32  C   UNL     1      54.940 223.962 317.853  0.00  0.00    +0.000 C 
ATOM     33  C   UNL     1      55.209 225.361 317.220  0.00  0.00    +0.000 C 
ATOM     34  C   UNL     1      56.986 222.447 317.373  0.00  0.00    +0.000 A 
ATOM     35  C   UNL     1      58.092 221.965 318.057  0.00  0.00    +0.000 A 
ATOM     36  C   UNL     1      56.859 222.123 316.004  0.00  0.00    +0.000 A 
ATOM     37  C   UNL     1      59.077 221.170 317.459  0.00  0.00    +0.000 A 
ATOM     38  C   UNL     1      57.831 221.328 315.385  0.00  0.00    +0.000 A 
ATOM     39  C   UNL     1      58.925 220.858 316.105  0.00  0.00    +0.000 A 
ATOM     40  H   UNL     1      58.683 222.225 320.056  0.00  0.00    +0.000 HD
BRANCH  23  42
ATOM     41  O   UNL     1      54.181 223.226 320.794  0.00  0.00    +0.000 OA
ATOM     42  C   UNL     1      55.104 223.788 321.370  0.00  0.00    +0.000 C 
BRANCH  42  43
ATOM     43  O   UNL     1      54.932 224.490 322.541  0.00  0.00    +0.000 OA
ATOM     44  C   UNL     1      53.607 224.986 322.729  0.00  0.00    +0.000 C 
ENDBRANCH  42  43
ENDBRANCH  23  42
BRANCH  30  45
ATOM     45  O   UNL     1      56.854 229.624 318.617  0.00  0.00    +0.000 OA
ATOM     46  H   UNL     1      57.374 229.772 319.427  0.00  0.00    +0.000 HD
ENDBRANCH  30  45
BRANCH  30  47
ATOM     47  C   UNL     1      58.218 228.294 317.225  0.00  0.00    +0.000 C 
ATOM     48  C   UNL     1      59.597 228.551 317.808  0.00  0.00    +0.000 C 
ENDBRANCH  30  47
ENDBRANCH  19  23
BRANCH   7  49
ATOM     49  O   UNL     1      60.459 221.716 328.053  0.00  0.00    +0.000 OA
ATOM     50  H   UNL     1      60.461 220.752 328.223  0.00  0.00    +0.000 HD
ENDBRANCH   7  49
BRANCH   7  52
ATOM     51  O   UNL     1      62.465 220.292 325.421  0.00  0.00    +0.000 OA
ATOM     52  C   UNL     1      62.020 220.654 326.501  0.00  0.00    +0.000 C 
BRANCH  52  53
ATOM     53  O   UNL     1      62.309 220.027 327.689  0.00  0.00    +0.000 OA
ATOM     54  C   UNL     1      63.685 219.674 327.839  0.00  0.00    +0.000 C 
ENDBRANCH  52  53
ENDBRANCH   7  52
BRANCH  20  55
ATOM     55  O   UNL     1      55.892 221.137 321.690  0.00  0.00    +0.000 OA
ATOM     56  C   UNL     1      56.088 219.849 321.114  0.00  0.00    +0.000 C 
ENDBRANCH  20  55
BRANCH   6  57
ATOM     57  C   UNL     1      60.140 224.813 327.696  0.00  0.00    +0.000 C 
ATOM     58  C   UNL     1      58.690 224.986 327.242  0.00  0.00    +0.000 C 
ENDBRANCH   6  57
BRANCH   9  59
ATOM     59  O   UNL     1      63.196 223.169 326.121  0.00  0.00    +0.000 OA
BRANCH  59  61
ATOM     60  O   UNL     1      64.515 223.346 327.986  0.00  0.00    +0.000 OA
ATOM     61  C   UNL     1      64.383 223.150 326.786  0.00  0.00    +0.000 C 
ATOM     62  C   UNL     1      65.498 222.819 325.843  0.00  0.00    +0.000 C 
ENDBRANCH  59  61
ENDBRANCH   9  59
TORSDOF 12
ENDMDL
