MODEL 1
REMARK VINA RESULT:      -5.4      0.000      0.000
REMARK  Name = Vorinostat.pdbqt.pdb
REMARK  6 active torsions:
REMARK  status: ('A' for Active; 'I' for Inactive)
REMARK    1  A    between atoms: C_1  and  C_2
REMARK    2  A    between atoms: C_3  and  C_4
REMARK    3  A    between atoms: C_5  and  C_8
REMARK    4  A    between atoms: N_7  and  O_10
REMARK    5  A    between atoms: C_12  and  C_15
REMARK    6  A    between atoms: N_14  and  C_17
REMARK                            x       y       z     vdW  Elec       q    Type
REMARK                         _______ _______ _______ _____ _____    ______ ____
ROOT
ATOM      1  C   UNL     1      49.162 238.123 325.250  0.00  0.00    +0.000 C 
ATOM      2  C   UNL     1      49.518 239.493 325.835  0.00  0.00    +0.000 C 
ENDROOT
BRANCH   2   5
ATOM      3  O   UNL     1      49.079 241.298 327.178  0.00  0.00    +0.000 OA
ATOM      4  N   UNL     1      51.051 241.292 325.936  0.00  0.00    +0.000 N 
ATOM      5  C   UNL     1      49.854 240.784 326.387  0.00  0.00    +0.000 C 
ATOM      6  H   UNL     1      51.574 240.730 325.275  0.00  0.00    +0.000 HD
BRANCH   4   7
ATOM      7  C   UNL     1      51.612 242.524 326.312  0.00  0.00    +0.000 A 
ATOM      8  C   UNL     1      51.420 243.613 325.461  0.00  0.00    +0.000 A 
ATOM      9  C   UNL     1      52.341 242.695 327.488  0.00  0.00    +0.000 A 
ATOM     10  C   UNL     1      51.953 244.860 325.781  0.00  0.00    +0.000 A 
ATOM     11  C   UNL     1      52.875 243.942 327.811  0.00  0.00    +0.000 A 
ATOM     12  C   UNL     1      52.680 245.024 326.957  0.00  0.00    +0.000 A 
ENDBRANCH   4   7
ENDBRANCH   2   5
BRANCH   1  13
ATOM     13  C   UNL     1      48.808 236.753 324.664  0.00  0.00    +0.000 C 
ATOM     14  C   UNL     1      48.454 235.383 324.076  0.00  0.00    +0.000 C 
BRANCH  14  15
ATOM     15  C   UNL     1      48.100 234.015 323.488  0.00  0.00    +0.000 C 
ATOM     16  C   UNL     1      47.746 232.645 322.899  0.00  0.00    +0.000 C 
BRANCH  16  19
ATOM     17  O   UNL     1      48.086 230.882 321.438  0.00  0.00    +0.000 OA
ATOM     18  N   UNL     1      46.334 230.732 322.897  0.00  0.00    +0.000 N 
ATOM     19  C   UNL     1      47.416 231.360 322.345  0.00  0.00    +0.000 C 
ATOM     20  H   UNL     1      45.793 231.092 323.673  0.00  0.00    +0.000 HD
BRANCH  18  21
ATOM     21  O   UNL     1      45.998 229.453 322.403  0.00  0.00    +0.000 OA
ATOM     22  H   UNL     1      46.198 229.532 321.444  0.00  0.00    +0.000 HD
ENDBRANCH  18  21
ENDBRANCH  16  19
ENDBRANCH  14  15
ENDBRANCH   1  13
TORSDOF 6
ENDMDL
MODEL 2
REMARK VINA RESULT:      -4.4     17.321     19.572
REMARK  Name = Vorinostat.pdbqt.pdb
REMARK  6 active torsions:
REMARK  status: ('A' for Active; 'I' for Inactive)
REMARK    1  A    between atoms: C_1  and  C_2
REMARK    2  A    between atoms: C_3  and  C_4
REMARK    3  A    between atoms: C_5  and  C_8
REMARK    4  A    between atoms: N_7  and  O_10
REMARK    5  A    between atoms: C_12  and  C_15
REMARK    6  A    between atoms: N_14  and  C_17
REMARK                            x       y       z     vdW  Elec       q    Type
REMARK                         _______ _______ _______ _____ _____    ______ ____
ROOT
ATOM      1  C   UNL     1      62.856 227.630 323.435  0.00  0.00    +0.000 C 
ATOM      2  C   UNL     1      62.309 226.477 324.281  0.00  0.00    +0.000 C 
ENDROOT
BRANCH   2   5
ATOM      3  O   UNL     1      62.579 224.568 325.521  0.00  0.00    +0.000 OA
ATOM      4  N   UNL     1      60.426 225.417 325.244  0.00  0.00    +0.000 N 
ATOM      5  C   UNL     1      61.791 225.389 325.078  0.00  0.00    +0.000 C 
ATOM      6  H   UNL     1      59.920 226.176 324.805  0.00  0.00    +0.000 HD
BRANCH   4   7
ATOM      7  C   UNL     1      59.670 224.481 325.972  0.00  0.00    +0.000 A 
ATOM      8  C   UNL     1      58.830 223.627 325.257  0.00  0.00    +0.000 A 
ATOM      9  C   UNL     1      59.730 224.378 327.361  0.00  0.00    +0.000 A 
ATOM     10  C   UNL     1      58.057 222.679 325.924  0.00  0.00    +0.000 A 
ATOM     11  C   UNL     1      58.958 223.430 328.030  0.00  0.00    +0.000 A 
ATOM     12  C   UNL     1      58.122 222.580 327.311  0.00  0.00    +0.000 A 
ENDBRANCH   4   7
ENDBRANCH   2   5
BRANCH   1  13
ATOM     13  C   UNL     1      63.404 228.782 322.587  0.00  0.00    +0.000 C 
ATOM     14  C   UNL     1      63.952 229.935 321.740  0.00  0.00    +0.000 C 
BRANCH  14  15
ATOM     15  C   UNL     1      64.499 231.088 320.894  0.00  0.00    +0.000 C 
ATOM     16  C   UNL     1      65.047 232.241 320.046  0.00  0.00    +0.000 C 
BRANCH  16  19
ATOM     17  O   UNL     1      65.393 233.334 318.036  0.00  0.00    +0.000 OA
ATOM     18  N   UNL     1      66.224 234.303 319.930  0.00  0.00    +0.000 N 
ATOM     19  C   UNL     1      65.561 233.321 319.249  0.00  0.00    +0.000 C 
ATOM     20  H   UNL     1      66.338 234.330 320.936  0.00  0.00    +0.000 HD
BRANCH  18  21
ATOM     21  O   UNL     1      66.715 235.399 319.187  0.00  0.00    +0.000 OA
ATOM     22  H   UNL     1      67.040 236.006 319.887  0.00  0.00    +0.000 HD
ENDBRANCH  18  21
ENDBRANCH  16  19
ENDBRANCH  14  15
ENDBRANCH   1  13
TORSDOF 6
ENDMDL
MODEL 3
REMARK VINA RESULT:      -4.1     22.021     24.568
REMARK  Name = Vorinostat.pdbqt.pdb
REMARK  6 active torsions:
REMARK  status: ('A' for Active; 'I' for Inactive)
REMARK    1  A    between atoms: C_1  and  C_2
REMARK    2  A    between atoms: C_3  and  C_4
REMARK    3  A    between atoms: C_5  and  C_8
REMARK    4  A    between atoms: N_7  and  O_10
REMARK    5  A    between atoms: C_12  and  C_15
REMARK    6  A    between atoms: N_14  and  C_17
REMARK                            x       y       z     vdW  Elec       q    Type
REMARK                         _______ _______ _______ _____ _____    ______ ____
ROOT
ATOM      1  C   UNL     1      64.428 221.136 330.699  0.00  0.00    +0.000 C 
ATOM      2  C   UNL     1      63.429 221.471 329.588  0.00  0.00    +0.000 C 
ENDROOT
BRANCH   2   5
ATOM      3  O   UNL     1      62.460 221.078 327.547  0.00  0.00    +0.000 OA
ATOM      4  N   UNL     1      61.705 222.890 328.804  0.00  0.00    +0.000 N 
ATOM      5  C   UNL     1      62.485 221.788 328.540  0.00  0.00    +0.000 C 
ATOM      6  H   UNL     1      61.858 223.368 329.684  0.00  0.00    +0.000 HD
BRANCH   4   7
ATOM      7  C   UNL     1      60.713 223.413 327.957  0.00  0.00    +0.000 A 
ATOM      8  C   UNL     1      59.380 223.149 328.275  0.00  0.00    +0.000 A 
ATOM      9  C   UNL     1      61.009 224.173 326.826  0.00  0.00    +0.000 A 
ATOM     10  C   UNL     1      58.354 223.641 327.472  0.00  0.00    +0.000 A 
ATOM     11  C   UNL     1      59.984 224.667 326.021  0.00  0.00    +0.000 A 
ATOM     12  C   UNL     1      58.656 224.400 326.345  0.00  0.00    +0.000 A 
ENDBRANCH   4   7
ENDBRANCH   2   5
BRANCH   1  13
ATOM     13  C   UNL     1      65.428 220.803 331.810  0.00  0.00    +0.000 C 
ATOM     14  C   UNL     1      66.427 220.470 332.922  0.00  0.00    +0.000 C 
BRANCH  14  15
ATOM     15  C   UNL     1      67.427 220.138 334.033  0.00  0.00    +0.000 C 
ATOM     16  C   UNL     1      68.428 219.808 335.145  0.00  0.00    +0.000 C 
BRANCH  16  19
ATOM     17  O   UNL     1      69.945 218.420 336.208  0.00  0.00    +0.000 OA
ATOM     18  N   UNL     1      69.559 220.476 337.127  0.00  0.00    +0.000 N 
ATOM     19  C   UNL     1      69.366 219.499 336.190  0.00  0.00    +0.000 C 
ATOM     20  H   UNL     1      69.120 221.388 337.107  0.00  0.00    +0.000 HD
BRANCH  18  21
ATOM     21  O   UNL     1      70.498 220.224 338.151  0.00  0.00    +0.000 OA
ATOM     22  H   UNL     1      71.108 219.578 337.731  0.00  0.00    +0.000 HD
ENDBRANCH  18  21
ENDBRANCH  16  19
ENDBRANCH  14  15
ENDBRANCH   1  13
TORSDOF 6
ENDMDL
MODEL 4
REMARK VINA RESULT:      -4.0     29.322     30.511
REMARK  Name = Vorinostat.pdbqt.pdb
REMARK  6 active torsions:
REMARK  status: ('A' for Active; 'I' for Inactive)
REMARK    1  A    between atoms: C_1  and  C_2
REMARK    2  A    between atoms: C_3  and  C_4
REMARK    3  A    between atoms: C_5  and  C_8
REMARK    4  A    between atoms: N_7  and  O_10
REMARK    5  A    between atoms: C_12  and  C_15
REMARK    6  A    between atoms: N_14  and  C_17
REMARK                            x       y       z     vdW  Elec       q    Type
REMARK                         _______ _______ _______ _____ _____    ______ ____
ROOT
ATOM      1  C   UNL     1      59.445 229.467 352.246  0.00  0.00    +0.000 C 
ATOM      2  C   UNL     1      60.868 229.575 351.691  0.00  0.00    +0.000 C 
ENDROOT
BRANCH   2   5
ATOM      3  O   UNL     1      63.091 229.015 351.693  0.00  0.00    +0.000 OA
ATOM      4  N   UNL     1      62.330 230.534 350.097  0.00  0.00    +0.000 N 
ATOM      5  C   UNL     1      62.210 229.675 351.166  0.00  0.00    +0.000 C 
ATOM      6  H   UNL     1      61.491 231.006 349.783  0.00  0.00    +0.000 HD
BRANCH   4   7
ATOM      7  C   UNL     1      63.519 230.814 349.402  0.00  0.00    +0.000 A 
ATOM      8  C   UNL     1      63.692 230.231 348.146  0.00  0.00    +0.000 A 
ATOM      9  C   UNL     1      64.518 231.641 349.915  0.00  0.00    +0.000 A 
ATOM     10  C   UNL     1      64.850 230.472 347.410  0.00  0.00    +0.000 A 
ATOM     11  C   UNL     1      65.677 231.884 349.181  0.00  0.00    +0.000 A 
ATOM     12  C   UNL     1      65.843 231.299 347.928  0.00  0.00    +0.000 A 
ENDBRANCH   4   7
ENDBRANCH   2   5
BRANCH   1  13
ATOM     13  C   UNL     1      58.021 229.359 352.800  0.00  0.00    +0.000 C 
ATOM     14  C   UNL     1      56.597 229.250 353.354  0.00  0.00    +0.000 C 
BRANCH  14  15
ATOM     15  C   UNL     1      55.173 229.141 353.907  0.00  0.00    +0.000 C 
ATOM     16  C   UNL     1      53.748 229.032 354.459  0.00  0.00    +0.000 C 
BRANCH  16  19
ATOM     17  O   UNL     1      52.001 227.865 355.430  0.00  0.00    +0.000 OA
ATOM     18  N   UNL     1      51.661 230.069 354.931  0.00  0.00    +0.000 N 
ATOM     19  C   UNL     1      52.411 228.927 354.977  0.00  0.00    +0.000 C 
ATOM     20  H   UNL     1      51.996 230.964 354.598  0.00  0.00    +0.000 HD
BRANCH  18  21
ATOM     21  O   UNL     1      50.353 230.015 355.460  0.00  0.00    +0.000 OA
ATOM     22  H   UNL     1      50.282 229.084 355.764  0.00  0.00    +0.000 HD
ENDBRANCH  18  21
ENDBRANCH  16  19
ENDBRANCH  14  15
ENDBRANCH   1  13
TORSDOF 6
ENDMDL
MODEL 5
REMARK VINA RESULT:      -4.0     31.664     32.285
REMARK  Name = Vorinostat.pdbqt.pdb
REMARK  6 active torsions:
REMARK  status: ('A' for Active; 'I' for Inactive)
REMARK    1  A    between atoms: C_1  and  C_2
REMARK    2  A    between atoms: C_3  and  C_4
REMARK    3  A    between atoms: C_5  and  C_8
REMARK    4  A    between atoms: N_7  and  O_10
REMARK    5  A    between atoms: C_12  and  C_15
REMARK    6  A    between atoms: N_14  and  C_17
REMARK                            x       y       z     vdW  Elec       q    Type
REMARK                         _______ _______ _______ _____ _____    ______ ____
ROOT
ATOM      1  C   UNL     1      73.752 223.605 340.577  0.00  0.00    +0.000 C 
ATOM      2  C   UNL     1      75.010 224.209 341.209  0.00  0.00    +0.000 C 
ENDROOT
BRANCH   2   5
ATOM      3  O   UNL     1      77.286 224.425 341.380  0.00  0.00    +0.000 OA
ATOM      4  N   UNL     1      75.940 225.683 342.809  0.00  0.00    +0.000 N 
ATOM      5  C   UNL     1      76.196 224.779 341.804  0.00  0.00    +0.000 C 
ATOM      6  H   UNL     1      74.970 225.862 343.037  0.00  0.00    +0.000 HD
BRANCH   4   7
ATOM      7  C   UNL     1      76.910 226.380 343.550  0.00  0.00    +0.000 A 
ATOM      8  C   UNL     1      77.272 225.864 344.795  0.00  0.00    +0.000 A 
ATOM      9  C   UNL     1      77.515 227.549 343.092  0.00  0.00    +0.000 A 
ATOM     10  C   UNL     1      78.228 226.512 345.575  0.00  0.00    +0.000 A 
ATOM     11  C   UNL     1      78.472 228.199 343.870  0.00  0.00    +0.000 A 
ATOM     12  C   UNL     1      78.828 227.679 345.111  0.00  0.00    +0.000 A 
ENDBRANCH   4   7
ENDBRANCH   2   5
BRANCH   1  13
ATOM     13  C   UNL     1      72.493 223.004 339.946  0.00  0.00    +0.000 C 
ATOM     14  C   UNL     1      71.234 222.401 339.314  0.00  0.00    +0.000 C 
BRANCH  14  15
ATOM     15  C   UNL     1      69.976 221.799 338.682  0.00  0.00    +0.000 C 
ATOM     16  C   UNL     1      68.718 221.198 338.048  0.00  0.00    +0.000 C 
BRANCH  16  19
ATOM     17  O   UNL     1      66.506 220.516 338.102  0.00  0.00    +0.000 OA
ATOM     18  N   UNL     1      67.652 220.257 336.142  0.00  0.00    +0.000 N 
ATOM     19  C   UNL     1      67.537 220.634 337.451  0.00  0.00    +0.000 C 
ATOM     20  H   UNL     1      68.482 220.383 335.577  0.00  0.00    +0.000 HD
BRANCH  18  21
ATOM     21  O   UNL     1      66.504 219.729 335.510  0.00  0.00    +0.000 OA
ATOM     22  H   UNL     1      66.268 218.972 336.089  0.00  0.00    +0.000 HD
ENDBRANCH  18  21
ENDBRANCH  16  19
ENDBRANCH  14  15
ENDBRANCH   1  13
TORSDOF 6
ENDMDL
MODEL 6
REMARK VINA RESULT:      -4.0     33.305     34.441
REMARK  Name = Vorinostat.pdbqt.pdb
REMARK  6 active torsions:
REMARK  status: ('A' for Active; 'I' for Inactive)
REMARK    1  A    between atoms: C_1  and  C_2
REMARK    2  A    between atoms: C_3  and  C_4
REMARK    3  A    between atoms: C_5  and  C_8
REMARK    4  A    between atoms: N_7  and  O_10
REMARK    5  A    between atoms: C_12  and  C_15
REMARK    6  A    between atoms: N_14  and  C_17
REMARK                            x       y       z     vdW  Elec       q    Type
REMARK                         _______ _______ _______ _____ _____    ______ ____
ROOT
ATOM      1  C   UNL     1      70.941 220.566 343.985  0.00  0.00    +0.000 C 
ATOM      2  C   UNL     1      70.868 220.418 342.463  0.00  0.00    +0.000 C 
ENDROOT
BRANCH   2   5
ATOM      3  O   UNL     1      71.212 219.246 340.522  0.00  0.00    +0.000 OA
ATOM      4  N   UNL     1      70.250 221.364 340.384  0.00  0.00    +0.000 N 
ATOM      5  C   UNL     1      70.797 220.278 341.027  0.00  0.00    +0.000 C 
ATOM      6  H   UNL     1      69.955 222.144 340.959  0.00  0.00    +0.000 HD
BRANCH   4   7
ATOM      7  C   UNL     1      70.066 221.487 338.996  0.00  0.00    +0.000 A 
ATOM      8  C   UNL     1      70.988 222.255 338.283  0.00  0.00    +0.000 A 
ATOM      9  C   UNL     1      69.012 220.879 338.316  0.00  0.00    +0.000 A 
ATOM     10  C   UNL     1      70.857 222.413 336.905  0.00  0.00    +0.000 A 
ATOM     11  C   UNL     1      68.879 221.035 336.937  0.00  0.00    +0.000 A 
ATOM     12  C   UNL     1      69.802 221.802 336.232  0.00  0.00    +0.000 A 
ENDBRANCH   4   7
ENDBRANCH   2   5
BRANCH   1  13
ATOM     13  C   UNL     1      71.013 220.716 345.507  0.00  0.00    +0.000 C 
ATOM     14  C   UNL     1      71.084 220.866 347.030  0.00  0.00    +0.000 C 
BRANCH  14  15
ATOM     15  C   UNL     1      71.155 221.017 348.552  0.00  0.00    +0.000 C 
ATOM     16  C   UNL     1      71.228 221.169 350.075  0.00  0.00    +0.000 C 
BRANCH  16  19
ATOM     17  O   UNL     1      70.967 220.391 352.239  0.00  0.00    +0.000 OA
ATOM     18  N   UNL     1      71.751 222.519 351.962  0.00  0.00    +0.000 N 
ATOM     19  C   UNL     1      71.297 221.313 351.504  0.00  0.00    +0.000 C 
ATOM     20  H   UNL     1      72.066 223.277 351.370  0.00  0.00    +0.000 HD
BRANCH  18  21
ATOM     21  O   UNL     1      71.865 222.688 353.359  0.00  0.00    +0.000 OA
ATOM     22  H   UNL     1      72.824 222.540 353.517  0.00  0.00    +0.000 HD
ENDBRANCH  18  21
ENDBRANCH  16  19
ENDBRANCH  14  15
ENDBRANCH   1  13
TORSDOF 6
ENDMDL
MODEL 7
REMARK VINA RESULT:      -3.9      3.468      3.858
REMARK  Name = Vorinostat.pdbqt.pdb
REMARK  6 active torsions:
REMARK  status: ('A' for Active; 'I' for Inactive)
REMARK    1  A    between atoms: C_1  and  C_2
REMARK    2  A    between atoms: C_3  and  C_4
REMARK    3  A    between atoms: C_5  and  C_8
REMARK    4  A    between atoms: N_7  and  O_10
REMARK    5  A    between atoms: C_12  and  C_15
REMARK    6  A    between atoms: N_14  and  C_17
REMARK                            x       y       z     vdW  Elec       q    Type
REMARK                         _______ _______ _______ _____ _____    ______ ____
ROOT
ATOM      1  C   UNL     1      49.671 238.298 321.474  0.00  0.00    +0.000 C 
ATOM      2  C   UNL     1      50.237 239.720 321.529  0.00  0.00    +0.000 C 
ENDROOT
BRANCH   2   5
ATOM      3  O   UNL     1      50.054 241.987 321.237  0.00  0.00    +0.000 OA
ATOM      4  N   UNL     1      52.069 241.129 322.034  0.00  0.00    +0.000 N 
ATOM      5  C   UNL     1      50.771 241.061 321.583  0.00  0.00    +0.000 C 
ATOM      6  H   UNL     1      52.522 240.258 322.281  0.00  0.00    +0.000 HD
BRANCH   4   7
ATOM      7  C   UNL     1      52.824 242.306 322.182  0.00  0.00    +0.000 A 
ATOM      8  C   UNL     1      52.946 242.845 323.464  0.00  0.00    +0.000 A 
ATOM      9  C   UNL     1      53.446 242.944 321.110  0.00  0.00    +0.000 A 
ATOM     10  C   UNL     1      53.681 244.010 323.671  0.00  0.00    +0.000 A 
ATOM     11  C   UNL     1      54.183 244.109 321.315  0.00  0.00    +0.000 A 
ATOM     12  C   UNL     1      54.300 244.641 322.597  0.00  0.00    +0.000 A 
ENDBRANCH   4   7
ENDBRANCH   2   5
BRANCH   1  13
ATOM     13  C   UNL     1      49.108 236.876 321.417  0.00  0.00    +0.000 C 
ATOM     14  C   UNL     1      48.544 235.452 321.360  0.00  0.00    +0.000 C 
BRANCH  14  15
ATOM     15  C   UNL     1      47.979 234.030 321.303  0.00  0.00    +0.000 C 
ATOM     16  C   UNL     1      47.415 232.607 321.245  0.00  0.00    +0.000 C 
BRANCH  16  19
ATOM     17  O   UNL     1      46.858 230.654 320.134  0.00  0.00    +0.000 OA
ATOM     18  N   UNL     1      46.442 230.756 322.378  0.00  0.00    +0.000 N 
ATOM     19  C   UNL     1      46.888 231.270 321.192  0.00  0.00    +0.000 C 
ATOM     20  H   UNL     1      46.495 231.235 323.269  0.00  0.00    +0.000 HD
BRANCH  18  21
ATOM     21  O   UNL     1      45.947 229.434 322.374  0.00  0.00    +0.000 OA
ATOM     22  H   UNL     1      46.648 228.940 322.853  0.00  0.00    +0.000 HD
ENDBRANCH  18  21
ENDBRANCH  16  19
ENDBRANCH  14  15
ENDBRANCH   1  13
TORSDOF 6
ENDMDL
MODEL 8
REMARK VINA RESULT:      -3.9     21.735     24.429
REMARK  Name = Vorinostat.pdbqt.pdb
REMARK  6 active torsions:
REMARK  status: ('A' for Active; 'I' for Inactive)
REMARK    1  A    between atoms: C_1  and  C_2
REMARK    2  A    between atoms: C_3  and  C_4
REMARK    3  A    between atoms: C_5  and  C_8
REMARK    4  A    between atoms: N_7  and  O_10
REMARK    5  A    between atoms: C_12  and  C_15
REMARK    6  A    between atoms: N_14  and  C_17
REMARK                            x       y       z     vdW  Elec       q    Type
REMARK                         _______ _______ _______ _____ _____    ______ ____
ROOT
ATOM      1  C   UNL     1      69.836 237.772 335.198  0.00  0.00    +0.000 C 
ATOM      2  C   UNL     1      70.843 236.948 334.391  0.00  0.00    +0.000 C 
ENDROOT
BRANCH   2   5
ATOM      3  O   UNL     1      72.175 235.107 334.089  0.00  0.00    +0.000 OA
ATOM      4  N   UNL     1      72.165 236.751 332.437  0.00  0.00    +0.000 N 
ATOM      5  C   UNL     1      71.794 236.172 333.629  0.00  0.00    +0.000 C 
ATOM      6  H   UNL     1      71.749 237.646 332.207  0.00  0.00    +0.000 HD
BRANCH   4   7
ATOM      7  C   UNL     1      73.071 236.209 331.510  0.00  0.00    +0.000 A 
ATOM      8  C   UNL     1      74.327 236.808 331.402  0.00  0.00    +0.000 A 
ATOM      9  C   UNL     1      72.766 235.111 330.708  0.00  0.00    +0.000 A 
ATOM     10  C   UNL     1      75.268 236.315 330.501  0.00  0.00    +0.000 A 
ATOM     11  C   UNL     1      73.705 234.615 329.805  0.00  0.00    +0.000 A 
ATOM     12  C   UNL     1      74.956 235.218 329.702  0.00  0.00    +0.000 A 
ENDBRANCH   4   7
ENDBRANCH   2   5
BRANCH   1  13
ATOM     13  C   UNL     1      68.830 238.596 336.007  0.00  0.00    +0.000 C 
ATOM     14  C   UNL     1      67.824 239.419 336.818  0.00  0.00    +0.000 C 
BRANCH  14  15
ATOM     15  C   UNL     1      66.818 240.241 337.627  0.00  0.00    +0.000 C 
ATOM     16  C   UNL     1      65.811 241.063 338.438  0.00  0.00    +0.000 C 
BRANCH  16  19
ATOM     17  O   UNL     1      65.161 242.945 339.620  0.00  0.00    +0.000 OA
ATOM     18  N   UNL     1      63.646 241.248 339.405  0.00  0.00    +0.000 N 
ATOM     19  C   UNL     1      64.864 241.833 339.199  0.00  0.00    +0.000 C 
ATOM     20  H   UNL     1      63.369 240.348 339.031  0.00  0.00    +0.000 HD
BRANCH  18  21
ATOM     21  O   UNL     1      62.677 241.986 340.120  0.00  0.00    +0.000 OA
ATOM     22  H   UNL     1      61.832 241.639 339.759  0.00  0.00    +0.000 HD
ENDBRANCH  18  21
ENDBRANCH  16  19
ENDBRANCH  14  15
ENDBRANCH   1  13
TORSDOF 6
ENDMDL
MODEL 9
REMARK VINA RESULT:      -3.9      6.828     12.623
REMARK  Name = Vorinostat.pdbqt.pdb
REMARK  6 active torsions:
REMARK  status: ('A' for Active; 'I' for Inactive)
REMARK    1  A    between atoms: C_1  and  C_2
REMARK    2  A    between atoms: C_3  and  C_4
REMARK    3  A    between atoms: C_5  and  C_8
REMARK    4  A    between atoms: N_7  and  O_10
REMARK    5  A    between atoms: C_12  and  C_15
REMARK    6  A    between atoms: N_14  and  C_17
REMARK                            x       y       z     vdW  Elec       q    Type
REMARK                         _______ _______ _______ _____ _____    ______ ____
ROOT
ATOM      1  C   UNL     1      53.420 240.385 320.610  0.00  0.00    +0.000 C 
ATOM      2  C   UNL     1      53.566 239.308 319.531  0.00  0.00    +0.000 C 
ENDROOT
BRANCH   2   5
ATOM      3  O   UNL     1      54.419 238.530 317.550  0.00  0.00    +0.000 OA
ATOM      4  N   UNL     1      52.984 237.148 318.761  0.00  0.00    +0.000 N 
ATOM      5  C   UNL     1      53.703 238.294 318.511  0.00  0.00    +0.000 C 
ATOM      6  H   UNL     1      52.437 237.119 319.613  0.00  0.00    +0.000 HD
BRANCH   4   7
ATOM      7  C   UNL     1      52.940 236.012 317.934  0.00  0.00    +0.000 A 
ATOM      8  C   UNL     1      52.025 236.009 316.880  0.00  0.00    +0.000 A 
ATOM      9  C   UNL     1      53.767 234.906 318.125  0.00  0.00    +0.000 A 
ATOM     10  C   UNL     1      51.937 234.911 316.027  0.00  0.00    +0.000 A 
ATOM     11  C   UNL     1      53.680 233.806 317.273  0.00  0.00    +0.000 A 
ATOM     12  C   UNL     1      52.765 233.810 316.224  0.00  0.00    +0.000 A 
ENDBRANCH   4   7
ENDBRANCH   2   5
BRANCH   1  13
ATOM     13  C   UNL     1      53.275 241.462 321.689  0.00  0.00    +0.000 C 
ATOM     14  C   UNL     1      53.132 242.540 322.768  0.00  0.00    +0.000 C 
BRANCH  14  15
ATOM     15  C   UNL     1      52.988 243.617 323.847  0.00  0.00    +0.000 C 
ATOM     16  C   UNL     1      52.844 244.695 324.926  0.00  0.00    +0.000 C 
BRANCH  16  19
ATOM     17  O   UNL     1      52.274 246.816 325.655  0.00  0.00    +0.000 OA
ATOM     18  N   UNL     1      53.077 245.340 327.203  0.00  0.00    +0.000 N 
ATOM     19  C   UNL     1      52.706 245.706 325.939  0.00  0.00    +0.000 C 
ATOM     20  H   UNL     1      53.398 244.415 327.464  0.00  0.00    +0.000 HD
BRANCH  18  21
ATOM     21  O   UNL     1      52.925 246.294 328.232  0.00  0.00    +0.000 OA
ATOM     22  H   UNL     1      51.957 246.277 328.401  0.00  0.00    +0.000 HD
ENDBRANCH  18  21
ENDBRANCH  16  19
ENDBRANCH  14  15
ENDBRANCH   1  13
TORSDOF 6
ENDMDL
