MODEL 1
REMARK VINA RESULT:      -6.9      0.000      0.000
REMARK  Name = 10074640_Masitinib.pdbqt.pdb
REMARK  6 active torsions:
REMARK  status: ('A' for Active; 'I' for Inactive)
REMARK    1  A    between atoms: C_1  and  N_22
REMARK    2  A    between atoms: C_2  and  N_9
REMARK    3  A    between atoms: C_12  and  C_16
REMARK    4  A    between atoms: C_23  and  C_30
REMARK    5  A    between atoms: C_25  and  C_31
REMARK    6  A    between atoms: C_31  and  N_32
REMARK                            x       y       z     vdW  Elec       q    Type
REMARK                         _______ _______ _______ _____ _____    ______ ____
ROOT
ATOM      1  C   UNL     1      42.186  -3.131  13.183  0.00  0.00    +0.000 A 
ATOM      2  C   UNL     1      41.347  -1.260  14.523  0.00  0.00    +0.000 A 
ATOM      3  C   UNL     1      42.159  -2.392  14.367  0.00  0.00    +0.000 A 
ATOM      4  C   UNL     1      40.545  -0.888  13.426  0.00  0.00    +0.000 A 
ATOM      5  C   UNL     1      41.398  -2.723  12.109  0.00  0.00    +0.000 A 
ATOM      6  C   UNL     1      40.572  -1.609  12.232  0.00  0.00    +0.000 A 
ATOM      7  C   UNL     1      39.629   0.316  13.512  0.00  0.00    +0.000 C 
ENDROOT
BRANCH   2   9
ATOM      8  S   UNL     1      41.851   0.286  18.217  0.00  0.00    +0.000 S 
ATOM      9  N   UNL     1      41.356  -0.489  15.710  0.00  0.00    +0.000 N 
ATOM     10  N   UNL     1      43.044  -1.605  16.959  0.00  0.00    +0.000 NA
ATOM     11  C   UNL     1      42.097  -0.705  16.819  0.00  0.00    +0.000 A 
ATOM     12  C   UNL     1      43.594  -1.559  18.226  0.00  0.00    +0.000 A 
ATOM     13  C   UNL     1      43.055  -0.588  19.033  0.00  0.00    +0.000 A 
ATOM     14  H   UNL     1      40.736   0.318  15.677  0.00  0.00    +0.000 HD
BRANCH  12  16
ATOM     15  N   UNL     1      46.223  -4.205  18.032  0.00  0.00    +0.000 NA
ATOM     16  C   UNL     1      44.654  -2.455  18.632  0.00  0.00    +0.000 A 
ATOM     17  C   UNL     1      45.171  -2.445  19.924  0.00  0.00    +0.000 A 
ATOM     18  C   UNL     1      45.208  -3.355  17.733  0.00  0.00    +0.000 A 
ATOM     19  C   UNL     1      46.202  -3.309  20.276  0.00  0.00    +0.000 A 
ATOM     20  C   UNL     1      46.687  -4.161  19.299  0.00  0.00    +0.000 A 
ENDBRANCH  12  16
ENDBRANCH   2   9
BRANCH   1  22
ATOM     21  O   UNL     1      42.170  -5.588  14.734  0.00  0.00    +0.000 OA
ATOM     22  N   UNL     1      42.998  -4.270  13.012  0.00  0.00    +0.000 N 
ATOM     23  C   UNL     1      42.967  -5.394  13.824  0.00  0.00    +0.000 C 
ATOM     24  H   UNL     1      43.622  -4.257  12.214  0.00  0.00    +0.000 HD
BRANCH  23  30
ATOM     25  C   UNL     1      45.924  -8.351  12.963  0.00  0.00    +0.000 A 
ATOM     26  C   UNL     1      44.581  -8.717  12.973  0.00  0.00    +0.000 A 
ATOM     27  C   UNL     1      46.297  -7.038  13.234  0.00  0.00    +0.000 A 
ATOM     28  C   UNL     1      43.605  -7.763  13.256  0.00  0.00    +0.000 A 
ATOM     29  C   UNL     1      45.321  -6.086  13.518  0.00  0.00    +0.000 A 
ATOM     30  C   UNL     1      43.971  -6.446  13.531  0.00  0.00    +0.000 A 
BRANCH  25  31
ATOM     31  C   UNL     1      46.924  -9.326  12.672  0.00  0.00    +0.000 C 
BRANCH  31  32
ATOM     32  N   UNL     1      47.944 -10.323  12.372  0.00  0.00    +0.000 N 
ATOM     33  N   UNL     1      48.493 -10.954   8.922  0.00  0.00    +0.000 N 
ATOM     34  C   UNL     1      47.331 -11.296  11.425  0.00  0.00    +0.000 C 
ATOM     35  C   UNL     1      48.870  -9.709  11.379  0.00  0.00    +0.000 C 
ATOM     36  C   UNL     1      47.578 -11.579   9.916  0.00  0.00    +0.000 C 
ATOM     37  C   UNL     1      49.116  -9.990   9.870  0.00  0.00    +0.000 C 
ATOM     38  C   UNL     1      49.507 -11.945   8.593  0.00  0.00    +0.000 C 
ENDBRANCH  31  32
ENDBRANCH  25  31
ENDBRANCH  23  30
ENDBRANCH   1  22
TORSDOF 6
ENDMDL
MODEL 2
REMARK VINA RESULT:      -6.9     11.352     12.092
REMARK  Name = 10074640_Masitinib.pdbqt.pdb
REMARK  6 active torsions:
REMARK  status: ('A' for Active; 'I' for Inactive)
REMARK    1  A    between atoms: C_1  and  N_22
REMARK    2  A    between atoms: C_2  and  N_9
REMARK    3  A    between atoms: C_12  and  C_16
REMARK    4  A    between atoms: C_23  and  C_30
REMARK    5  A    between atoms: C_25  and  C_31
REMARK    6  A    between atoms: C_31  and  N_32
REMARK                            x       y       z     vdW  Elec       q    Type
REMARK                         _______ _______ _______ _____ _____    ______ ____
ROOT
ATOM      1  C   UNL     1      51.073   4.085  10.765  0.00  0.00    +0.000 A 
ATOM      2  C   UNL     1      52.427   5.276  12.422  0.00  0.00    +0.000 A 
ATOM      3  C   UNL     1      52.300   4.357  11.372  0.00  0.00    +0.000 A 
ATOM      4  C   UNL     1      51.253   5.926  12.852  0.00  0.00    +0.000 A 
ATOM      5  C   UNL     1      49.935   4.762  11.198  0.00  0.00    +0.000 A 
ATOM      6  C   UNL     1      50.022   5.674  12.247  0.00  0.00    +0.000 A 
ATOM      7  C   UNL     1      51.297   6.926  13.990  0.00  0.00    +0.000 C 
ENDROOT
BRANCH   2   9
ATOM      8  S   UNL     1      55.786   5.520  14.646  0.00  0.00    +0.000 S 
ATOM      9  N   UNL     1      53.680   5.580  13.005  0.00  0.00    +0.000 N 
ATOM     10  N   UNL     1      53.947   3.737  14.485  0.00  0.00    +0.000 NA
ATOM     11  C   UNL     1      54.317   4.893  13.979  0.00  0.00    +0.000 A 
ATOM     12  C   UNL     1      54.822   3.320  15.469  0.00  0.00    +0.000 A 
ATOM     13  C   UNL     1      55.875   4.177  15.680  0.00  0.00    +0.000 A 
ATOM     14  H   UNL     1      54.126   6.404  12.607  0.00  0.00    +0.000 HD
BRANCH  12  16
ATOM     15  N   UNL     1      53.128   0.581  17.359  0.00  0.00    +0.000 NA
ATOM     16  C   UNL     1      54.632   2.078  16.185  0.00  0.00    +0.000 A 
ATOM     17  C   UNL     1      55.670   1.169  16.371  0.00  0.00    +0.000 A 
ATOM     18  C   UNL     1      53.390   1.739  16.703  0.00  0.00    +0.000 A 
ATOM     19  C   UNL     1      55.447  -0.024  17.050  0.00  0.00    +0.000 A 
ATOM     20  C   UNL     1      54.167  -0.266  17.519  0.00  0.00    +0.000 A 
ENDBRANCH  12  16
ENDBRANCH   2   9
BRANCH   1  22
ATOM     21  O   UNL     1      50.355   1.274  10.924  0.00  0.00    +0.000 OA
ATOM     22  N   UNL     1      50.931   3.164   9.707  0.00  0.00    +0.000 N 
ATOM     23  C   UNL     1      50.631   1.819   9.863  0.00  0.00    +0.000 C 
ATOM     24  H   UNL     1      51.032   3.541   8.771  0.00  0.00    +0.000 HD
BRANCH  23  30
ATOM     25  C   UNL     1      50.518  -0.495   6.276  0.00  0.00    +0.000 A 
ATOM     26  C   UNL     1      51.329  -0.912   7.329  0.00  0.00    +0.000 A 
ATOM     27  C   UNL     1      49.756   0.664   6.392  0.00  0.00    +0.000 A 
ATOM     28  C   UNL     1      51.379  -0.165   8.503  0.00  0.00    +0.000 A 
ATOM     29  C   UNL     1      49.808   1.411   7.567  0.00  0.00    +0.000 A 
ATOM     30  C   UNL     1      50.621   1.000   8.626  0.00  0.00    +0.000 A 
BRANCH  25  31
ATOM     31  C   UNL     1      50.465  -1.261   5.074  0.00  0.00    +0.000 C 
BRANCH  31  32
ATOM     32  N   UNL     1      50.411  -2.041   3.844  0.00  0.00    +0.000 N 
ATOM     33  N   UNL     1      52.413  -0.825   1.176  0.00  0.00    +0.000 N 
ATOM     34  C   UNL     1      50.127  -1.084   2.738  0.00  0.00    +0.000 C 
ATOM     35  C   UNL     1      51.819  -2.318   3.446  0.00  0.00    +0.000 C 
ATOM     36  C   UNL     1      51.001  -0.558   1.564  0.00  0.00    +0.000 C 
ATOM     37  C   UNL     1      52.694  -1.792   2.272  0.00  0.00    +0.000 C 
ATOM     38  C   UNL     1      52.378  -1.586  -0.065  0.00  0.00    +0.000 C 
ENDBRANCH  31  32
ENDBRANCH  25  31
ENDBRANCH  23  30
ENDBRANCH   1  22
TORSDOF 6
ENDMDL
MODEL 3
REMARK VINA RESULT:      -6.9     10.255     10.934
REMARK  Name = 10074640_Masitinib.pdbqt.pdb
REMARK  6 active torsions:
REMARK  status: ('A' for Active; 'I' for Inactive)
REMARK    1  A    between atoms: C_1  and  N_22
REMARK    2  A    between atoms: C_2  and  N_9
REMARK    3  A    between atoms: C_12  and  C_16
REMARK    4  A    between atoms: C_23  and  C_30
REMARK    5  A    between atoms: C_25  and  C_31
REMARK    6  A    between atoms: C_31  and  N_32
REMARK                            x       y       z     vdW  Elec       q    Type
REMARK                         _______ _______ _______ _____ _____    ______ ____
ROOT
ATOM      1  C   UNL     1      50.691   3.015  10.472  0.00  0.00    +0.000 A 
ATOM      2  C   UNL     1      51.869   4.613  11.907  0.00  0.00    +0.000 A 
ATOM      3  C   UNL     1      51.862   3.497  11.060  0.00  0.00    +0.000 A 
ATOM      4  C   UNL     1      50.632   5.242  12.151  0.00  0.00    +0.000 A 
ATOM      5  C   UNL     1      49.489   3.675  10.715  0.00  0.00    +0.000 A 
ATOM      6  C   UNL     1      49.456   4.781  11.560  0.00  0.00    +0.000 A 
ATOM      7  C   UNL     1      50.547   6.449  13.064  0.00  0.00    +0.000 C 
ENDROOT
BRANCH   2   9
ATOM      8  S   UNL     1      55.126   5.487  14.125  0.00  0.00    +0.000 S 
ATOM      9  N   UNL     1      53.065   5.123  12.466  0.00  0.00    +0.000 N 
ATOM     10  N   UNL     1      53.509   3.495  14.142  0.00  0.00    +0.000 NA
ATOM     11  C   UNL     1      53.755   4.624  13.516  0.00  0.00    +0.000 A 
ATOM     12  C   UNL     1      54.403   3.292  15.176  0.00  0.00    +0.000 A 
ATOM     13  C   UNL     1      55.345   4.284  15.302  0.00  0.00    +0.000 A 
ATOM     14  H   UNL     1      53.422   5.945  11.984  0.00  0.00    +0.000 HD
BRANCH  12  16
ATOM     15  N   UNL     1      52.988   0.579  17.316  0.00  0.00    +0.000 NA
ATOM     16  C   UNL     1      54.340   2.122  16.022  0.00  0.00    +0.000 A 
ATOM     17  C   UNL     1      55.475   1.381  16.339  0.00  0.00    +0.000 A 
ATOM     18  C   UNL     1      53.130   1.683  16.540  0.00  0.00    +0.000 A 
ATOM     19  C   UNL     1      55.376   0.251  17.143  0.00  0.00    +0.000 A 
ATOM     20  C   UNL     1      54.118  -0.103  17.600  0.00  0.00    +0.000 A 
ENDBRANCH  12  16
ENDBRANCH   2   9
BRANCH   1  22
ATOM     21  O   UNL     1      51.012   2.964   7.586  0.00  0.00    +0.000 OA
ATOM     22  N   UNL     1      50.670   1.895   9.617  0.00  0.00    +0.000 N 
ATOM     23  C   UNL     1      50.783   1.951   8.236  0.00  0.00    +0.000 C 
ATOM     24  H   UNL     1      50.594   0.991  10.068  0.00  0.00    +0.000 HD
BRANCH  23  30
ATOM     25  C   UNL     1      50.371  -1.799   6.236  0.00  0.00    +0.000 A 
ATOM     26  C   UNL     1      50.795  -0.686   5.513  0.00  0.00    +0.000 A 
ATOM     27  C   UNL     1      50.082  -1.687   7.592  0.00  0.00    +0.000 A 
ATOM     28  C   UNL     1      50.930   0.545   6.152  0.00  0.00    +0.000 A 
ATOM     29  C   UNL     1      50.217  -0.456   8.229  0.00  0.00    +0.000 A 
ATOM     30  C   UNL     1      50.640   0.665   7.511  0.00  0.00    +0.000 A 
BRANCH  25  31
ATOM     31  C   UNL     1      50.233  -3.059   5.583  0.00  0.00    +0.000 C 
BRANCH  31  32
ATOM     32  N   UNL     1      50.095  -4.348   4.916  0.00  0.00    +0.000 N 
ATOM     33  N   UNL     1      52.270  -6.904   6.073  0.00  0.00    +0.000 N 
ATOM     34  C   UNL     1      51.461  -4.764   4.492  0.00  0.00    +0.000 C 
ATOM     35  C   UNL     1      49.950  -5.374   5.987  0.00  0.00    +0.000 C 
ATOM     36  C   UNL     1      52.410  -5.889   4.993  0.00  0.00    +0.000 C 
ATOM     37  C   UNL     1      50.899  -6.499   6.488  0.00  0.00    +0.000 C 
ATOM     38  C   UNL     1      52.153  -8.203   5.425  0.00  0.00    +0.000 C 
ENDBRANCH  31  32
ENDBRANCH  25  31
ENDBRANCH  23  30
ENDBRANCH   1  22
TORSDOF 6
ENDMDL
MODEL 4
REMARK VINA RESULT:      -6.9     19.378     25.012
REMARK  Name = 10074640_Masitinib.pdbqt.pdb
REMARK  6 active torsions:
REMARK  status: ('A' for Active; 'I' for Inactive)
REMARK    1  A    between atoms: C_1  and  N_22
REMARK    2  A    between atoms: C_2  and  N_9
REMARK    3  A    between atoms: C_12  and  C_16
REMARK    4  A    between atoms: C_23  and  C_30
REMARK    5  A    between atoms: C_25  and  C_31
REMARK    6  A    between atoms: C_31  and  N_32
REMARK                            x       y       z     vdW  Elec       q    Type
REMARK                         _______ _______ _______ _____ _____    ______ ____
ROOT
ATOM      1  C   UNL     1      30.513   1.101  -2.511  0.00  0.00    +0.000 A 
ATOM      2  C   UNL     1      30.315  -1.334  -2.690  0.00  0.00    +0.000 A 
ATOM      3  C   UNL     1      29.743  -0.064  -2.540  0.00  0.00    +0.000 A 
ATOM      4  C   UNL     1      31.717  -1.397  -2.812  0.00  0.00    +0.000 A 
ATOM      5  C   UNL     1      31.895   1.005  -2.658  0.00  0.00    +0.000 A 
ATOM      6  C   UNL     1      32.498  -0.242  -2.798  0.00  0.00    +0.000 A 
ATOM      7  C   UNL     1      32.418  -2.732  -2.966  0.00  0.00    +0.000 C 
ENDROOT
BRANCH   2   9
ATOM      8  S   UNL     1      28.403  -4.841  -2.113  0.00  0.00    +0.000 S 
ATOM      9  N   UNL     1      29.526  -2.507  -2.762  0.00  0.00    +0.000 N 
ATOM     10  N   UNL     1      29.648  -3.270  -0.512  0.00  0.00    +0.000 NA
ATOM     11  C   UNL     1      29.289  -3.395  -1.770  0.00  0.00    +0.000 A 
ATOM     12  C   UNL     1      29.251  -4.364   0.232  0.00  0.00    +0.000 A 
ATOM     13  C   UNL     1      28.565  -5.310  -0.490  0.00  0.00    +0.000 A 
ATOM     14  H   UNL     1      29.093  -2.653  -3.672  0.00  0.00    +0.000 HD
BRANCH  12  16
ATOM     15  N   UNL     1      28.857  -5.275   3.831  0.00  0.00    +0.000 NA
ATOM     16  C   UNL     1      29.533  -4.470   1.646  0.00  0.00    +0.000 A 
ATOM     17  C   UNL     1      30.699  -3.955   2.204  0.00  0.00    +0.000 A 
ATOM     18  C   UNL     1      28.647  -5.111   2.501  0.00  0.00    +0.000 A 
ATOM     19  C   UNL     1      30.946  -4.090   3.566  0.00  0.00    +0.000 A 
ATOM     20  C   UNL     1      29.999  -4.754   4.327  0.00  0.00    +0.000 A 
ENDBRANCH  12  16
ENDBRANCH   2   9
BRANCH   1  22
ATOM     21  O   UNL     1      29.894   3.033  -4.590  0.00  0.00    +0.000 OA
ATOM     22  N   UNL     1      29.951   2.385  -2.362  0.00  0.00    +0.000 N 
ATOM     23  C   UNL     1      29.726   3.276  -3.401  0.00  0.00    +0.000 C 
ATOM     24  H   UNL     1      29.673   2.644  -1.423  0.00  0.00    +0.000 HD
BRANCH  23  30
ATOM     25  C   UNL     1      28.285   7.115  -2.212  0.00  0.00    +0.000 A 
ATOM     26  C   UNL     1      27.838   6.563  -3.410  0.00  0.00    +0.000 A 
ATOM     27  C   UNL     1      29.194   6.425  -1.416  0.00  0.00    +0.000 A 
ATOM     28  C   UNL     1      28.302   5.312  -3.812  0.00  0.00    +0.000 A 
ATOM     29  C   UNL     1      29.658   5.176  -1.820  0.00  0.00    +0.000 A 
ATOM     30  C   UNL     1      29.215   4.615  -3.020  0.00  0.00    +0.000 A 
BRANCH  25  31
ATOM     31  C   UNL     1      27.809   8.395  -1.800  0.00  0.00    +0.000 C 
BRANCH  31  32
ATOM     32  N   UNL     1      27.324   9.703  -1.378  0.00  0.00    +0.000 N 
ATOM     33  N   UNL     1      29.763  11.840   0.068  0.00  0.00    +0.000 N 
ATOM     34  C   UNL     1      27.773   9.897   0.029  0.00  0.00    +0.000 C 
ATOM     35  C   UNL     1      28.243  10.715  -1.971  0.00  0.00    +0.000 C 
ATOM     36  C   UNL     1      28.835  10.840   0.663  0.00  0.00    +0.000 C 
ATOM     37  C   UNL     1      29.306  11.657  -1.337  0.00  0.00    +0.000 C 
ATOM     38  C   UNL     1      29.306  13.154   0.498  0.00  0.00    +0.000 C 
ENDBRANCH  31  32
ENDBRANCH  25  31
ENDBRANCH  23  30
ENDBRANCH   1  22
TORSDOF 6
ENDMDL
MODEL 5
REMARK VINA RESULT:      -6.8     11.719     14.008
REMARK  Name = 10074640_Masitinib.pdbqt.pdb
REMARK  6 active torsions:
REMARK  status: ('A' for Active; 'I' for Inactive)
REMARK    1  A    between atoms: C_1  and  N_22
REMARK    2  A    between atoms: C_2  and  N_9
REMARK    3  A    between atoms: C_12  and  C_16
REMARK    4  A    between atoms: C_23  and  C_30
REMARK    5  A    between atoms: C_25  and  C_31
REMARK    6  A    between atoms: C_31  and  N_32
REMARK                            x       y       z     vdW  Elec       q    Type
REMARK                         _______ _______ _______ _____ _____    ______ ____
ROOT
ATOM      1  C   UNL     1      50.768   0.596  11.185  0.00  0.00    +0.000 A 
ATOM      2  C   UNL     1      50.797   1.141   8.797  0.00  0.00    +0.000 A 
ATOM      3  C   UNL     1      51.455   0.931  10.016  0.00  0.00    +0.000 A 
ATOM      4  C   UNL     1      49.395   0.999   8.790  0.00  0.00    +0.000 A 
ATOM      5  C   UNL     1      49.384   0.440  11.138  0.00  0.00    +0.000 A 
ATOM      6  C   UNL     1      48.697   0.651   9.947  0.00  0.00    +0.000 A 
ATOM      7  C   UNL     1      48.604   1.219   7.517  0.00  0.00    +0.000 C 
ENDROOT
BRANCH   2   9
ATOM      8  S   UNL     1      52.486   2.786   5.521  0.00  0.00    +0.000 S 
ATOM      9  N   UNL     1      51.502   1.438   7.607  0.00  0.00    +0.000 N 
ATOM     10  N   UNL     1      51.402   3.815   7.607  0.00  0.00    +0.000 NA
ATOM     11  C   UNL     1      51.711   2.659   7.064  0.00  0.00    +0.000 A 
ATOM     12  C   UNL     1      51.747   4.865   6.778  0.00  0.00    +0.000 A 
ATOM     13  C   UNL     1      52.345   4.475   5.604  0.00  0.00    +0.000 A 
ATOM     14  H   UNL     1      51.895   0.619   7.149  0.00  0.00    +0.000 HD
BRANCH  12  16
ATOM     15  N   UNL     1      51.308   8.559   6.459  0.00  0.00    +0.000 NA
ATOM     16  C   UNL     1      51.504   6.242   7.146  0.00  0.00    +0.000 A 
ATOM     17  C   UNL     1      51.199   6.611   8.453  0.00  0.00    +0.000 A 
ATOM     18  C   UNL     1      51.552   7.251   6.195  0.00  0.00    +0.000 A 
ATOM     19  C   UNL     1      50.955   7.943   8.768  0.00  0.00    +0.000 A 
ATOM     20  C   UNL     1      51.021   8.869   7.741  0.00  0.00    +0.000 A 
ENDBRANCH  12  16
ENDBRANCH   2   9
BRANCH   1  22
ATOM     21  O   UNL     1      51.614   2.581  13.130  0.00  0.00    +0.000 OA
ATOM     22  N   UNL     1      51.416   0.381  12.417  0.00  0.00    +0.000 N 
ATOM     23  C   UNL     1      51.835   1.385  13.278  0.00  0.00    +0.000 C 
ATOM     24  H   UNL     1      51.551  -0.587  12.688  0.00  0.00    +0.000 HD
BRANCH  23  30
ATOM     25  C   UNL     1      54.020   0.052  16.695  0.00  0.00    +0.000 A 
ATOM     26  C   UNL     1      53.078   1.067  16.845  0.00  0.00    +0.000 A 
ATOM     27  C   UNL     1      54.248  -0.517  15.446  0.00  0.00    +0.000 A 
ATOM     28  C   UNL     1      52.360   1.514  15.737  0.00  0.00    +0.000 A 
ATOM     29  C   UNL     1      53.531  -0.067  14.340  0.00  0.00    +0.000 A 
ATOM     30  C   UNL     1      52.585   0.951  14.481  0.00  0.00    +0.000 A 
BRANCH  25  31
ATOM     31  C   UNL     1      54.754  -0.407  17.829  0.00  0.00    +0.000 C 
BRANCH  31  32
ATOM     32  N   UNL     1      55.506  -0.878  18.985  0.00  0.00    +0.000 N 
ATOM     33  N   UNL     1      59.016  -0.368  18.832  0.00  0.00    +0.000 N 
ATOM     34  C   UNL     1      56.616  -1.723  18.464  0.00  0.00    +0.000 C 
ATOM     35  C   UNL     1      56.371   0.252  19.427  0.00  0.00    +0.000 C 
ATOM     36  C   UNL     1      58.154  -1.504  18.405  0.00  0.00    +0.000 C 
ATOM     37  C   UNL     1      57.910   0.472  19.367  0.00  0.00    +0.000 C 
ATOM     38  C   UNL     1      59.792  -0.828  19.975  0.00  0.00    +0.000 C 
ENDBRANCH  31  32
ENDBRANCH  25  31
ENDBRANCH  23  30
ENDBRANCH   1  22
TORSDOF 6
ENDMDL
MODEL 6
REMARK VINA RESULT:      -6.6      4.207     10.415
REMARK  Name = 10074640_Masitinib.pdbqt.pdb
REMARK  6 active torsions:
REMARK  status: ('A' for Active; 'I' for Inactive)
REMARK    1  A    between atoms: C_1  and  N_22
REMARK    2  A    between atoms: C_2  and  N_9
REMARK    3  A    between atoms: C_12  and  C_16
REMARK    4  A    between atoms: C_23  and  C_30
REMARK    5  A    between atoms: C_25  and  C_31
REMARK    6  A    between atoms: C_31  and  N_32
REMARK                            x       y       z     vdW  Elec       q    Type
REMARK                         _______ _______ _______ _____ _____    ______ ____
ROOT
ATOM      1  C   UNL     1      46.433  -8.050  12.740  0.00  0.00    +0.000 A 
ATOM      2  C   UNL     1      47.333 -10.281  13.202  0.00  0.00    +0.000 A 
ATOM      3  C   UNL     1      46.717  -9.095  13.622  0.00  0.00    +0.000 A 
ATOM      4  C   UNL     1      47.663 -10.385  11.836  0.00  0.00    +0.000 A 
ATOM      5  C   UNL     1      46.751  -8.195  11.392  0.00  0.00    +0.000 A 
ATOM      6  C   UNL     1      47.373  -9.356  10.940  0.00  0.00    +0.000 A 
ATOM      7  C   UNL     1      48.342 -11.629  11.299  0.00  0.00    +0.000 C 
ENDROOT
BRANCH   2   9
ATOM      8  S   UNL     1      48.645 -12.813  16.058  0.00  0.00    +0.000 S 
ATOM      9  N   UNL     1      47.580 -11.354  14.092  0.00  0.00    +0.000 N 
ATOM     10  N   UNL     1      48.982 -10.295  15.695  0.00  0.00    +0.000 NA
ATOM     11  C   UNL     1      48.377 -11.344  15.183  0.00  0.00    +0.000 A 
ATOM     12  C   UNL     1      49.725 -10.641  16.807  0.00  0.00    +0.000 A 
ATOM     13  C   UNL     1      49.651 -11.973  17.136  0.00  0.00    +0.000 A 
ATOM     14  H   UNL     1      47.067 -12.202  13.860  0.00  0.00    +0.000 HD
BRANCH  12  16
ATOM     15  N   UNL     1      50.656  -8.201  19.477  0.00  0.00    +0.000 NA
ATOM     16  C   UNL     1      50.491  -9.664  17.549  0.00  0.00    +0.000 A 
ATOM     17  C   UNL     1      51.760  -9.261  17.144  0.00  0.00    +0.000 A 
ATOM     18  C   UNL     1      49.986  -9.100  18.713  0.00  0.00    +0.000 A 
ATOM     19  C   UNL     1      52.475  -8.332  17.891  0.00  0.00    +0.000 A 
ATOM     20  C   UNL     1      51.881  -7.838  19.040  0.00  0.00    +0.000 A 
ENDBRANCH  12  16
ENDBRANCH   2   9
BRANCH   1  22
ATOM     21  O   UNL     1      43.597  -7.544  13.114  0.00  0.00    +0.000 OA
ATOM     22  N   UNL     1      45.813  -6.853  13.149  0.00  0.00    +0.000 N 
ATOM     23  C   UNL     1      44.442  -6.669  13.261  0.00  0.00    +0.000 C 
ATOM     24  H   UNL     1      46.433  -6.092  13.401  0.00  0.00    +0.000 HD
BRANCH  23  30
ATOM     25  C   UNL     1      43.200  -2.733  14.352  0.00  0.00    +0.000 A 
ATOM     26  C   UNL     1      42.379  -3.501  13.531  0.00  0.00    +0.000 A 
ATOM     27  C   UNL     1      44.413  -3.241  14.807  0.00  0.00    +0.000 A 
ATOM     28  C   UNL     1      42.773  -4.786  13.164  0.00  0.00    +0.000 A 
ATOM     29  C   UNL     1      44.806  -4.526  14.438  0.00  0.00    +0.000 A 
ATOM     30  C   UNL     1      43.988  -5.302  13.614  0.00  0.00    +0.000 A 
BRANCH  25  31
ATOM     31  C   UNL     1      42.796  -1.418  14.730  0.00  0.00    +0.000 C 
BRANCH  31  32
ATOM     32  N   UNL     1      42.382  -0.075  15.116  0.00  0.00    +0.000 N 
ATOM     33  N   UNL     1      39.350   0.115  16.955  0.00  0.00    +0.000 N 
ATOM     34  C   UNL     1      40.963   0.078  14.689  0.00  0.00    +0.000 C 
ATOM     35  C   UNL     1      42.096  -0.115  16.578  0.00  0.00    +0.000 C 
ATOM     36  C   UNL     1      39.636   0.170  15.495  0.00  0.00    +0.000 C 
ATOM     37  C   UNL     1      40.769  -0.024  17.384  0.00  0.00    +0.000 C 
ATOM     38  C   UNL     1      38.912   1.445  17.355  0.00  0.00    +0.000 C 
ENDBRANCH  31  32
ENDBRANCH  25  31
ENDBRANCH  23  30
ENDBRANCH   1  22
TORSDOF 6
ENDMDL
MODEL 7
REMARK VINA RESULT:      -6.5      3.064      5.825
REMARK  Name = 10074640_Masitinib.pdbqt.pdb
REMARK  6 active torsions:
REMARK  status: ('A' for Active; 'I' for Inactive)
REMARK    1  A    between atoms: C_1  and  N_22
REMARK    2  A    between atoms: C_2  and  N_9
REMARK    3  A    between atoms: C_12  and  C_16
REMARK    4  A    between atoms: C_23  and  C_30
REMARK    5  A    between atoms: C_25  and  C_31
REMARK    6  A    between atoms: C_31  and  N_32
REMARK                            x       y       z     vdW  Elec       q    Type
REMARK                         _______ _______ _______ _____ _____    ______ ____
ROOT
ATOM      1  C   UNL     1      44.088  -7.534  15.905  0.00  0.00    +0.000 A 
ATOM      2  C   UNL     1      42.217  -6.406  17.012  0.00  0.00    +0.000 A 
ATOM      3  C   UNL     1      42.789  -7.024  15.892  0.00  0.00    +0.000 A 
ATOM      4  C   UNL     1      43.013  -6.315  18.171  0.00  0.00    +0.000 A 
ATOM      5  C   UNL     1      44.840  -7.449  17.074  0.00  0.00    +0.000 A 
ATOM      6  C   UNL     1      44.308  -6.832  18.204  0.00  0.00    +0.000 A 
ATOM      7  C   UNL     1      42.478  -5.652  19.424  0.00  0.00    +0.000 C 
ENDROOT
BRANCH   2   9
ATOM      8  S   UNL     1      38.745  -4.413  16.507  0.00  0.00    +0.000 S 
ATOM      9  N   UNL     1      40.885  -5.930  17.008  0.00  0.00    +0.000 N 
ATOM     10  N   UNL     1      41.002  -4.285  15.293  0.00  0.00    +0.000 NA
ATOM     11  C   UNL     1      40.378  -4.927  16.255  0.00  0.00    +0.000 A 
ATOM     12  C   UNL     1      40.193  -3.313  14.735  0.00  0.00    +0.000 A 
ATOM     13  C   UNL     1      38.935  -3.251  15.284  0.00  0.00    +0.000 A 
ATOM     14  H   UNL     1      40.268  -6.435  17.640  0.00  0.00    +0.000 HD
BRANCH  12  16
ATOM     15  N   UNL     1      40.427  -0.383  12.433  0.00  0.00    +0.000 NA
ATOM     16  C   UNL     1      40.651  -2.463  13.659  0.00  0.00    +0.000 A 
ATOM     17  C   UNL     1      41.727  -2.815  12.850  0.00  0.00    +0.000 A 
ATOM     18  C   UNL     1      40.036  -1.245  13.404  0.00  0.00    +0.000 A 
ATOM     19  C   UNL     1      42.152  -1.965  11.835  0.00  0.00    +0.000 A 
ATOM     20  C   UNL     1      41.472  -0.770  11.672  0.00  0.00    +0.000 A 
ENDBRANCH  12  16
ENDBRANCH   2   9
BRANCH   1  22
ATOM     21  O   UNL     1      45.712  -6.319  13.825  0.00  0.00    +0.000 OA
ATOM     22  N   UNL     1      44.675  -8.160  14.786  0.00  0.00    +0.000 N 
ATOM     23  C   UNL     1      45.402  -7.504  13.804  0.00  0.00    +0.000 C 
ATOM     24  H   UNL     1      44.569  -9.166  14.731  0.00  0.00    +0.000 HD
BRANCH  23  30
ATOM     25  C   UNL     1      46.660  -9.962  10.546  0.00  0.00    +0.000 A 
ATOM     26  C   UNL     1      47.275  -8.727  10.743  0.00  0.00    +0.000 A 
ATOM     27  C   UNL     1      45.645 -10.385  11.399  0.00  0.00    +0.000 A 
ATOM     28  C   UNL     1      46.872  -7.914  11.800  0.00  0.00    +0.000 A 
ATOM     29  C   UNL     1      45.243  -9.570  12.454  0.00  0.00    +0.000 A 
ATOM     30  C   UNL     1      45.854  -8.330  12.658  0.00  0.00    +0.000 A 
BRANCH  25  31
ATOM     31  C   UNL     1      47.073 -10.796   9.466  0.00  0.00    +0.000 C 
BRANCH  31  32
ATOM     32  N   UNL     1      47.493 -11.648   8.360  0.00  0.00    +0.000 N 
ATOM     33  N   UNL     1      45.236 -14.251   7.499  0.00  0.00    +0.000 N 
ATOM     34  C   UNL     1      47.367 -13.056   8.829  0.00  0.00    +0.000 C 
ATOM     35  C   UNL     1      46.353 -11.706   7.402  0.00  0.00    +0.000 C 
ATOM     36  C   UNL     1      46.384 -14.199   8.445  0.00  0.00    +0.000 C 
ATOM     37  C   UNL     1      45.370 -12.848   7.019  0.00  0.00    +0.000 C 
ATOM     38  C   UNL     1      45.630 -15.117   6.398  0.00  0.00    +0.000 C 
ENDBRANCH  31  32
ENDBRANCH  25  31
ENDBRANCH  23  30
ENDBRANCH   1  22
TORSDOF 6
ENDMDL
MODEL 8
REMARK VINA RESULT:      -6.4     23.166     24.755
REMARK  Name = 10074640_Masitinib.pdbqt.pdb
REMARK  6 active torsions:
REMARK  status: ('A' for Active; 'I' for Inactive)
REMARK    1  A    between atoms: C_1  and  N_22
REMARK    2  A    between atoms: C_2  and  N_9
REMARK    3  A    between atoms: C_12  and  C_16
REMARK    4  A    between atoms: C_23  and  C_30
REMARK    5  A    between atoms: C_25  and  C_31
REMARK    6  A    between atoms: C_31  and  N_32
REMARK                            x       y       z     vdW  Elec       q    Type
REMARK                         _______ _______ _______ _____ _____    ______ ____
ROOT
ATOM      1  C   UNL     1      40.780   0.086  -8.922  0.00  0.00    +0.000 A 
ATOM      2  C   UNL     1      40.208   2.460  -9.111  0.00  0.00    +0.000 A 
ATOM      3  C   UNL     1      39.872   1.104  -9.220  0.00  0.00    +0.000 A 
ATOM      4  C   UNL     1      41.515   2.766  -8.685  0.00  0.00    +0.000 A 
ATOM      5  C   UNL     1      42.057   0.423  -8.480  0.00  0.00    +0.000 A 
ATOM      6  C   UNL     1      42.429   1.760  -8.371  0.00  0.00    +0.000 A 
ATOM      7  C   UNL     1      41.966   4.207  -8.552  0.00  0.00    +0.000 C 
ENDROOT
BRANCH   2   9
ATOM      8  S   UNL     1      36.953   4.788  -9.636  0.00  0.00    +0.000 S 
ATOM      9  N   UNL     1      39.271   3.488  -9.373  0.00  0.00    +0.000 N 
ATOM     10  N   UNL     1      37.297   2.545  -8.438  0.00  0.00    +0.000 NA
ATOM     11  C   UNL     1      37.946   3.473  -9.106  0.00  0.00    +0.000 A 
ATOM     12  C   UNL     1      35.949   2.839  -8.356  0.00  0.00    +0.000 A 
ATOM     13  C   UNL     1      35.599   4.023  -8.958  0.00  0.00    +0.000 A 
ATOM     14  H   UNL     1      39.683   4.319  -9.791  0.00  0.00    +0.000 HD
BRANCH  12  16
ATOM     15  N   UNL     1      33.487   0.091  -7.786  0.00  0.00    +0.000 NA
ATOM     16  C   UNL     1      35.017   1.969  -7.675  0.00  0.00    +0.000 A 
ATOM     17  C   UNL     1      34.761   2.087  -6.312  0.00  0.00    +0.000 A 
ATOM     18  C   UNL     1      34.352   0.963  -8.361  0.00  0.00    +0.000 A 
ATOM     19  C   UNL     1      33.871   1.222  -5.685  0.00  0.00    +0.000 A 
ATOM     20  C   UNL     1      33.267   0.249  -6.464  0.00  0.00    +0.000 A 
ENDBRANCH  12  16
ENDBRANCH   2   9
BRANCH   1  22
ATOM     21  O   UNL     1      40.589  -1.530 -11.329  0.00  0.00    +0.000 OA
ATOM     22  N   UNL     1      40.455  -1.282  -9.025  0.00  0.00    +0.000 N 
ATOM     23  C   UNL     1      40.336  -1.980 -10.218  0.00  0.00    +0.000 C 
ATOM     24  H   UNL     1      40.333  -1.778  -8.150  0.00  0.00    +0.000 HD
BRANCH  23  30
ATOM     25  C   UNL     1      39.074  -6.054 -10.014  0.00  0.00    +0.000 A 
ATOM     26  C   UNL     1      38.749  -5.189  -8.972  0.00  0.00    +0.000 A 
ATOM     27  C   UNL     1      39.806  -5.595 -11.106  0.00  0.00    +0.000 A 
ATOM     28  C   UNL     1      39.157  -3.858  -9.024  0.00  0.00    +0.000 A 
ATOM     29  C   UNL     1      40.214  -4.265 -11.155  0.00  0.00    +0.000 A 
ATOM     30  C   UNL     1      39.892  -3.391 -10.113  0.00  0.00    +0.000 A 
BRANCH  25  31
ATOM     31  C   UNL     1      38.655  -7.416  -9.963  0.00  0.00    +0.000 C 
BRANCH  31  32
ATOM     32  N   UNL     1      38.225  -8.808  -9.910  0.00  0.00    +0.000 N 
ATOM     33  N   UNL     1      39.412 -10.666  -7.127  0.00  0.00    +0.000 N 
ATOM     34  C   UNL     1      39.450  -9.631  -9.708  0.00  0.00    +0.000 C 
ATOM     35  C   UNL     1      37.664  -9.034  -8.548  0.00  0.00    +0.000 C 
ATOM     36  C   UNL     1      39.965 -10.452  -8.492  0.00  0.00    +0.000 C 
ATOM     37  C   UNL     1      38.180  -9.855  -7.332  0.00  0.00    +0.000 C 
ATOM     38  C   UNL     1      38.997 -12.059  -7.048  0.00  0.00    +0.000 C 
ENDBRANCH  31  32
ENDBRANCH  25  31
ENDBRANCH  23  30
ENDBRANCH   1  22
TORSDOF 6
ENDMDL
MODEL 9
REMARK VINA RESULT:      -6.4      4.122     10.913
REMARK  Name = 10074640_Masitinib.pdbqt.pdb
REMARK  6 active torsions:
REMARK  status: ('A' for Active; 'I' for Inactive)
REMARK    1  A    between atoms: C_1  and  N_22
REMARK    2  A    between atoms: C_2  and  N_9
REMARK    3  A    between atoms: C_12  and  C_16
REMARK    4  A    between atoms: C_23  and  C_30
REMARK    5  A    between atoms: C_25  and  C_31
REMARK    6  A    between atoms: C_31  and  N_32
REMARK                            x       y       z     vdW  Elec       q    Type
REMARK                         _______ _______ _______ _____ _____    ______ ____
ROOT
ATOM      1  C   UNL     1      46.710  -9.081  11.102  0.00  0.00    +0.000 A 
ATOM      2  C   UNL     1      48.621  -9.973   9.857  0.00  0.00    +0.000 A 
ATOM      3  C   UNL     1      47.939  -8.909  10.462  0.00  0.00    +0.000 A 
ATOM      4  C   UNL     1      48.014 -11.243   9.916  0.00  0.00    +0.000 A 
ATOM      5  C   UNL     1      46.149 -10.355  11.163  0.00  0.00    +0.000 A 
ATOM      6  C   UNL     1      46.793 -11.433  10.564  0.00  0.00    +0.000 A 
ATOM      7  C   UNL     1      48.678 -12.446   9.277  0.00  0.00    +0.000 C 
ENDROOT
BRANCH   2   9
ATOM      8  S   UNL     1      52.447  -9.133   8.881  0.00  0.00    +0.000 S 
ATOM      9  N   UNL     1      49.887  -9.801   9.247  0.00  0.00    +0.000 N 
ATOM     10  N   UNL     1      51.223  -9.241  11.134  0.00  0.00    +0.000 NA
ATOM     11  C   UNL     1      51.036  -9.413   9.844  0.00  0.00    +0.000 A 
ATOM     12  C   UNL     1      52.516  -8.835  11.401  0.00  0.00    +0.000 A 
ATOM     13  C   UNL     1      53.309  -8.725  10.285  0.00  0.00    +0.000 A 
ATOM     14  H   UNL     1      49.895 -10.021   8.253  0.00  0.00    +0.000 HD
BRANCH  12  16
ATOM     15  N   UNL     1      53.371  -9.399  14.992  0.00  0.00    +0.000 NA
ATOM     16  C   UNL     1      52.971  -8.571  12.748  0.00  0.00    +0.000 A 
ATOM     17  C   UNL     1      53.476  -7.330  13.124  0.00  0.00    +0.000 A 
ATOM     18  C   UNL     1      52.935  -9.563  13.718  0.00  0.00    +0.000 A 
ATOM     19  C   UNL     1      53.922  -7.116  14.424  0.00  0.00    +0.000 A 
ATOM     20  C   UNL     1      53.848  -8.177  15.310  0.00  0.00    +0.000 A 
ENDBRANCH  12  16
ENDBRANCH   2   9
BRANCH   1  22
ATOM     21  O   UNL     1      46.271  -8.637  13.939  0.00  0.00    +0.000 OA
ATOM     22  N   UNL     1      46.013  -8.021  11.716  0.00  0.00    +0.000 N 
ATOM     23  C   UNL     1      45.802  -7.898  13.082  0.00  0.00    +0.000 C 
ATOM     24  H   UNL     1      45.675  -7.292  11.099  0.00  0.00    +0.000 HD
BRANCH  23  30
ATOM     25  C   UNL     1      43.425  -4.615  14.425  0.00  0.00    +0.000 A 
ATOM     26  C   UNL     1      43.006  -5.350  13.318  0.00  0.00    +0.000 A 
ATOM     27  C   UNL     1      44.607  -4.946  15.081  0.00  0.00    +0.000 A 
ATOM     28  C   UNL     1      43.773  -6.422  12.867  0.00  0.00    +0.000 A 
ATOM     29  C   UNL     1      45.374  -6.017  14.628  0.00  0.00    +0.000 A 
ATOM     30  C   UNL     1      44.960  -6.758  13.518  0.00  0.00    +0.000 A 
BRANCH  25  31
ATOM     31  C   UNL     1      42.640  -3.519  14.889  0.00  0.00    +0.000 C 
BRANCH  31  32
ATOM     32  N   UNL     1      41.837  -2.399  15.365  0.00  0.00    +0.000 N 
ATOM     33  N   UNL     1      40.205  -0.510  12.841  0.00  0.00    +0.000 N 
ATOM     34  C   UNL     1      42.259  -1.203  14.583  0.00  0.00    +0.000 C 
ATOM     35  C   UNL     1      40.495  -2.529  14.731  0.00  0.00    +0.000 C 
ATOM     36  C   UNL     1      41.540  -0.370  13.484  0.00  0.00    +0.000 C 
ATOM     37  C   UNL     1      39.777  -1.697  13.631  0.00  0.00    +0.000 C 
ATOM     38  C   UNL     1      39.396   0.615  13.289  0.00  0.00    +0.000 C 
ENDBRANCH  31  32
ENDBRANCH  25  31
ENDBRANCH  23  30
ENDBRANCH   1  22
TORSDOF 6
ENDMDL
