MODEL 1
REMARK VINA RESULT:      -6.3      0.000      0.000
REMARK  Name = 101808841_CandidaspongiolideA.pdbqt.pdb
REMARK  13 active torsions:
REMARK  status: ('A' for Active; 'I' for Inactive)
REMARK    1  A    between atoms: C_6  and  C_39
REMARK    2  A    between atoms: C_9  and  O_27
REMARK    3  A    between atoms: C_9  and  C_51
REMARK    4  A    between atoms: C_10  and  O_29
REMARK    5  A    between atoms: C_14  and  O_31
REMARK    6  A    between atoms: C_15  and  O_33
REMARK    7  A    between atoms: C_20  and  O_35
REMARK    8  A    between atoms: O_35  and  C_37
REMARK    9  A    between atoms: C_39  and  C_41
REMARK   10  A    between atoms: C_39  and  O_49
REMARK   11  A    between atoms: C_42  and  C_44
REMARK   12  A    between atoms: C_44  and  C_46
REMARK   13  A    between atoms: C_51  and  O_52
REMARK                            x       y       z     vdW  Elec       q    Type
REMARK                         _______ _______ _______ _____ _____    ______ ____
ROOT
ATOM      1  O   UNL     1      50.824   4.050   8.900  0.00  0.00    +0.000 OA
ATOM      2  O   UNL     1      50.005   7.740   7.170  0.00  0.00    +0.000 OA
ATOM      3  O   UNL     1      49.188   4.266  10.511  0.00  0.00    +0.000 OA
ATOM      4  O   UNL     1      56.302   6.648   5.541  0.00  0.00    +0.000 OA
ATOM      5  O   UNL     1      52.371   2.722   6.915  0.00  0.00    +0.000 OA
ATOM      6  C   UNL     1      51.331   6.754   8.848  0.00  0.00    +0.000 C 
ATOM      7  C   UNL     1      51.143   7.422   7.522  0.00  0.00    +0.000 C 
ATOM      8  C   UNL     1      51.075   5.356   8.920  0.00  0.00    +0.000 C 
ATOM      9  C   UNL     1      52.415   7.572   6.644  0.00  0.00    +0.000 C 
ATOM     10  C   UNL     1      52.805   6.235   6.037  0.00  0.00    +0.000 C 
ATOM     11  C   UNL     1      54.157   5.883   5.752  0.00  0.00    +0.000 C 
ATOM     12  C   UNL     1      49.791   3.622   9.664  0.00  0.00    +0.000 C 
ATOM     13  C   UNL     1      55.574   5.662   5.512  0.00  0.00    +0.000 C 
ATOM     14  C   UNL     1      49.407   2.234   9.316  0.00  0.00    +0.000 C 
ATOM     15  C   UNL     1      50.133   1.383   8.397  0.00  0.00    +0.000 C 
ATOM     16  C   UNL     1      56.084   4.278   5.242  0.00  0.00    +0.000 C 
ATOM     17  C   UNL     1      51.559   1.082   8.435  0.00  0.00    +0.000 C 
ATOM     18  C   UNL     1      53.349   0.547   6.696  0.00  0.00    +0.000 C 
ATOM     19  C   UNL     1      52.407   1.551   7.295  0.00  0.00    +0.000 C 
ATOM     20  C   UNL     1      54.442   1.020   5.843  0.00  0.00    +0.000 C 
ATOM     21  C   UNL     1      55.214   3.167   5.105  0.00  0.00    +0.000 C 
ATOM     22  C   UNL     1      54.399   2.170   4.969  0.00  0.00    +0.000 C 
ATOM     23  C   UNL     1      57.555   3.955   5.081  0.00  0.00    +0.000 C 
ATOM     24  C   UNL     1      52.247   0.953   9.795  0.00  0.00    +0.000 C 
ATOM     25  C   UNL     1      53.119  -0.948   6.882  0.00  0.00    +0.000 C 
ATOM     26  C   UNL     1      53.295   2.362   3.959  0.00  0.00    +0.000 C 
ENDROOT
BRANCH   9  27
ATOM     27  O   UNL     1      53.495   8.028   7.461  0.00  0.00    +0.000 OA
ATOM     28  H   UNL     1      54.180   7.335   7.441  0.00  0.00    +0.000 HD
ENDBRANCH   9  27
BRANCH  10  29
ATOM     29  O   UNL     1      51.801   5.341   5.725  0.00  0.00    +0.000 OA
ATOM     30  H   UNL     1      51.862   4.494   6.206  0.00  0.00    +0.000 HD
ENDBRANCH  10  29
BRANCH  14  31
ATOM     31  O   UNL     1      48.246   1.710   9.858  0.00  0.00    +0.000 OA
ATOM     32  H   UNL     1      48.276   1.742  10.837  0.00  0.00    +0.000 HD
ENDBRANCH  14  31
BRANCH  15  33
ATOM     33  O   UNL     1      49.347   0.430   7.771  0.00  0.00    +0.000 OA
ATOM     34  C   UNL     1      49.708  -0.857   8.198  0.00  0.00    +0.000 C 
ENDBRANCH  15  33
BRANCH  20  35
ATOM     35  O   UNL     1      55.510   0.131   5.548  0.00  0.00    +0.000 OA
BRANCH  35  37
ATOM     36  O   UNL     1      56.518  -1.245   7.140  0.00  0.00    +0.000 OA
ATOM     37  C   UNL     1      56.295  -0.171   6.614  0.00  0.00    +0.000 C 
ATOM     38  C   UNL     1      56.933   1.001   7.263  0.00  0.00    +0.000 C 
ENDBRANCH  35  37
ENDBRANCH  20  35
BRANCH   6  39
ATOM     39  C   UNL     1      51.656   7.533  10.025  0.00  0.00    +0.000 C 
BRANCH  39  41
ATOM     40  O   UNL     1      52.860   7.753  12.263  0.00  0.00    +0.000 OA
ATOM     41  C   UNL     1      52.726   7.107  10.972  0.00  0.00    +0.000 C 
ATOM     42  C   UNL     1      52.231   6.543  12.225  0.00  0.00    +0.000 C 
ATOM     43  C   UNL     1      54.160   6.854  10.393  0.00  0.00    +0.000 C 
BRANCH  42  44
ATOM     44  C   UNL     1      52.857   5.417  12.857  0.00  0.00    +0.000 C 
ATOM     45  C   UNL     1      53.784   5.626  14.027  0.00  0.00    +0.000 C 
BRANCH  44  46
ATOM     46  C   UNL     1      52.220   4.149  12.784  0.00  0.00    +0.000 C 
ATOM     47  C   UNL     1      51.730   3.055  12.811  0.00  0.00    +0.000 C 
ATOM     48  C   UNL     1      51.195   1.622  12.952  0.00  0.00    +0.000 C 
ENDBRANCH  44  46
ENDBRANCH  42  44
ENDBRANCH  39  41
BRANCH  39  49
ATOM     49  O   UNL     1      51.168   8.832  10.021  0.00  0.00    +0.000 OA
ATOM     50  H   UNL     1      51.820   9.476   9.684  0.00  0.00    +0.000 HD
ENDBRANCH  39  49
ENDBRANCH   6  39
BRANCH   9  51
ATOM     51  C   UNL     1      52.189   8.550   5.554  0.00  0.00    +0.000 C 
BRANCH  51  52
ATOM     52  O   UNL     1      51.998   9.448   4.588  0.00  0.00    +0.000 OA
ATOM     53  H   UNL     1      51.588   9.032   3.807  0.00  0.00    +0.000 HD
ENDBRANCH  51  52
ENDBRANCH   9  51
TORSDOF 13
ENDMDL
MODEL 2
REMARK VINA RESULT:      -6.2     13.120     16.091
REMARK  Name = 101808841_CandidaspongiolideA.pdbqt.pdb
REMARK  13 active torsions:
REMARK  status: ('A' for Active; 'I' for Inactive)
REMARK    1  A    between atoms: C_6  and  C_39
REMARK    2  A    between atoms: C_9  and  O_27
REMARK    3  A    between atoms: C_9  and  C_51
REMARK    4  A    between atoms: C_10  and  O_29
REMARK    5  A    between atoms: C_14  and  O_31
REMARK    6  A    between atoms: C_15  and  O_33
REMARK    7  A    between atoms: C_20  and  O_35
REMARK    8  A    between atoms: O_35  and  C_37
REMARK    9  A    between atoms: C_39  and  C_41
REMARK   10  A    between atoms: C_39  and  O_49
REMARK   11  A    between atoms: C_42  and  C_44
REMARK   12  A    between atoms: C_44  and  C_46
REMARK   13  A    between atoms: C_51  and  O_52
REMARK                            x       y       z     vdW  Elec       q    Type
REMARK                         _______ _______ _______ _____ _____    ______ ____
ROOT
ATOM      1  O   UNL     1      40.930  -0.439  16.000  0.00  0.00    +0.000 OA
ATOM      2  O   UNL     1      42.988   1.157  19.241  0.00  0.00    +0.000 OA
ATOM      3  O   UNL     1      39.738   1.496  15.604  0.00  0.00    +0.000 OA
ATOM      4  O   UNL     1      43.112  -5.336  20.395  0.00  0.00    +0.000 OA
ATOM      5  O   UNL     1      42.448  -2.750  15.332  0.00  0.00    +0.000 OA
ATOM      6  C   UNL     1      41.007  -0.004  18.717  0.00  0.00    +0.000 C 
ATOM      7  C   UNL     1      42.375   0.091  19.317  0.00  0.00    +0.000 C 
ATOM      8  C   UNL     1      40.923  -0.225  17.313  0.00  0.00    +0.000 C 
ATOM      9  C   UNL     1      42.953  -1.221  19.915  0.00  0.00    +0.000 C 
ATOM     10  C   UNL     1      43.388  -2.166  18.807  0.00  0.00    +0.000 C 
ATOM     11  C   UNL     1      43.345  -3.585  18.942  0.00  0.00    +0.000 C 
ATOM     12  C   UNL     1      40.395   0.535  15.227  0.00  0.00    +0.000 C 
ATOM     13  C   UNL     1      43.251  -5.009  19.221  0.00  0.00    +0.000 C 
ATOM     14  C   UNL     1      40.747   0.340  13.801  0.00  0.00    +0.000 C 
ATOM     15  C   UNL     1      41.436  -0.819  13.272  0.00  0.00    +0.000 C 
ATOM     16  C   UNL     1      43.328  -6.001  18.101  0.00  0.00    +0.000 C 
ATOM     17  C   UNL     1      41.065  -2.215  13.472  0.00  0.00    +0.000 C 
ATOM     18  C   UNL     1      42.331  -4.426  13.625  0.00  0.00    +0.000 C 
ATOM     19  C   UNL     1      42.010  -3.091  14.232  0.00  0.00    +0.000 C 
ATOM     20  C   UNL     1      42.942  -5.460  14.464  0.00  0.00    +0.000 C 
ATOM     21  C   UNL     1      43.598  -5.611  16.765  0.00  0.00    +0.000 C 
ATOM     22  C   UNL     1      43.862  -5.232  15.555  0.00  0.00    +0.000 C 
ATOM     23  C   UNL     1      43.140  -7.490  18.300  0.00  0.00    +0.000 C 
ATOM     24  C   UNL     1      39.581  -2.577  13.546  0.00  0.00    +0.000 C 
ATOM     25  C   UNL     1      42.123  -4.676  12.135  0.00  0.00    +0.000 C 
ATOM     26  C   UNL     1      45.101  -4.389  15.388  0.00  0.00    +0.000 C 
ENDROOT
BRANCH   9  27
ATOM     27  O   UNL     1      41.941  -1.869  20.687  0.00  0.00    +0.000 OA
ATOM     28  H   UNL     1      42.151  -1.710  21.625  0.00  0.00    +0.000 HD
ENDBRANCH   9  27
BRANCH  10  29
ATOM     29  O   UNL     1      43.869  -1.620  17.634  0.00  0.00    +0.000 OA
ATOM     30  H   UNL     1      44.444  -2.222  17.124  0.00  0.00    +0.000 HD
ENDBRANCH  10  29
BRANCH  14  31
ATOM     31  O   UNL     1      40.452   1.348  12.900  0.00  0.00    +0.000 OA
ATOM     32  H   UNL     1      40.653   1.062  11.984  0.00  0.00    +0.000 HD
ENDBRANCH  14  31
BRANCH  15  33
ATOM     33  O   UNL     1      42.172  -0.563  12.127  0.00  0.00    +0.000 OA
ATOM     34  C   UNL     1      41.602  -1.220  11.025  0.00  0.00    +0.000 C 
ENDBRANCH  15  33
BRANCH  20  35
ATOM     35  O   UNL     1      42.944  -6.802  13.998  0.00  0.00    +0.000 OA
BRANCH  35  37
ATOM     36  O   UNL     1      44.880  -6.828  12.696  0.00  0.00    +0.000 OA
ATOM     37  C   UNL     1      44.158  -7.246  13.580  0.00  0.00    +0.000 C 
ATOM     38  C   UNL     1      44.647  -8.458  14.282  0.00  0.00    +0.000 C 
ENDBRANCH  35  37
ENDBRANCH  20  35
BRANCH   6  39
ATOM     39  C   UNL     1      39.829   0.228  19.527  0.00  0.00    +0.000 C 
BRANCH  39  41
ATOM     40  O   UNL     1      38.159   1.807  20.633  0.00  0.00    +0.000 OA
ATOM     41  C   UNL     1      39.349   1.606  19.830  0.00  0.00    +0.000 C 
ATOM     42  C   UNL     1      39.368   1.953  21.248  0.00  0.00    +0.000 C 
ATOM     43  C   UNL     1      39.341   2.653  18.663  0.00  0.00    +0.000 C 
BRANCH  42  44
ATOM     44  C   UNL     1      39.756   3.255  21.712  0.00  0.00    +0.000 C 
ATOM     45  C   UNL     1      38.706   4.298  22.000  0.00  0.00    +0.000 C 
BRANCH  44  46
ATOM     46  C   UNL     1      40.983   3.394  22.414  0.00  0.00    +0.000 C 
ATOM     47  C   UNL     1      41.965   3.548  23.085  0.00  0.00    +0.000 C 
ATOM     48  C   UNL     1      43.139   3.823  24.036  0.00  0.00    +0.000 C 
ENDBRANCH  44  46
ENDBRANCH  42  44
ENDBRANCH  39  41
BRANCH  39  49
ATOM     49  O   UNL     1      39.011  -0.879  19.701  0.00  0.00    +0.000 OA
ATOM     50  H   UNL     1      38.865  -1.092  20.643  0.00  0.00    +0.000 HD
ENDBRANCH  39  49
ENDBRANCH   6  39
BRANCH   9  51
ATOM     51  C   UNL     1      44.116  -0.934  20.787  0.00  0.00    +0.000 C 
BRANCH  51  52
ATOM     52  O   UNL     1      45.155  -0.649  21.572  0.00  0.00    +0.000 OA
ATOM     53  H   UNL     1      45.163   0.298  21.802  0.00  0.00    +0.000 HD
ENDBRANCH  51  52
ENDBRANCH   9  51
TORSDOF 13
ENDMDL
MODEL 3
REMARK VINA RESULT:      -6.1     13.290     18.065
REMARK  Name = 101808841_CandidaspongiolideA.pdbqt.pdb
REMARK  13 active torsions:
REMARK  status: ('A' for Active; 'I' for Inactive)
REMARK    1  A    between atoms: C_6  and  C_39
REMARK    2  A    between atoms: C_9  and  O_27
REMARK    3  A    between atoms: C_9  and  C_51
REMARK    4  A    between atoms: C_10  and  O_29
REMARK    5  A    between atoms: C_14  and  O_31
REMARK    6  A    between atoms: C_15  and  O_33
REMARK    7  A    between atoms: C_20  and  O_35
REMARK    8  A    between atoms: O_35  and  C_37
REMARK    9  A    between atoms: C_39  and  C_41
REMARK   10  A    between atoms: C_39  and  O_49
REMARK   11  A    between atoms: C_42  and  C_44
REMARK   12  A    between atoms: C_44  and  C_46
REMARK   13  A    between atoms: C_51  and  O_52
REMARK                            x       y       z     vdW  Elec       q    Type
REMARK                         _______ _______ _______ _____ _____    ______ ____
ROOT
ATOM      1  O   UNL     1      42.470  -1.675  17.976  0.00  0.00    +0.000 OA
ATOM      2  O   UNL     1      41.396   1.886  16.119  0.00  0.00    +0.000 OA
ATOM      3  O   UNL     1      43.421  -2.564  16.072  0.00  0.00    +0.000 OA
ATOM      4  O   UNL     1      37.116   1.413  21.115  0.00  0.00    +0.000 OA
ATOM      5  O   UNL     1      42.265  -1.060  20.746  0.00  0.00    +0.000 OA
ATOM      6  C   UNL     1      40.575  -0.279  16.550  0.00  0.00    +0.000 C 
ATOM      7  C   UNL     1      40.582   1.205  16.746  0.00  0.00    +0.000 C 
ATOM      8  C   UNL     1      41.542  -1.038  17.266  0.00  0.00    +0.000 C 
ATOM      9  C   UNL     1      39.605   1.759  17.818  0.00  0.00    +0.000 C 
ATOM     10  C   UNL     1      40.122   1.463  19.215  0.00  0.00    +0.000 C 
ATOM     11  C   UNL     1      39.257   1.246  20.328  0.00  0.00    +0.000 C 
ATOM     12  C   UNL     1      43.423  -2.331  17.273  0.00  0.00    +0.000 C 
ATOM     13  C   UNL     1      38.260   1.049  21.368  0.00  0.00    +0.000 C 
ATOM     14  C   UNL     1      44.559  -2.717  18.142  0.00  0.00    +0.000 C 
ATOM     15  C   UNL     1      44.587  -2.560  19.582  0.00  0.00    +0.000 C 
ATOM     16  C   UNL     1      38.649   0.428  22.675  0.00  0.00    +0.000 C 
ATOM     17  C   UNL     1      43.579  -3.030  20.525  0.00  0.00    +0.000 C 
ATOM     18  C   UNL     1      42.698  -2.238  22.786  0.00  0.00    +0.000 C 
ATOM     19  C   UNL     1      42.817  -2.008  21.307  0.00  0.00    +0.000 C 
ATOM     20  C   UNL     1      41.686  -1.496  23.541  0.00  0.00    +0.000 C 
ATOM     21  C   UNL     1      39.995   0.113  22.989  0.00  0.00    +0.000 C 
ATOM     22  C   UNL     1      41.233  -0.152  23.260  0.00  0.00    +0.000 C 
ATOM     23  C   UNL     1      37.651   0.101  23.765  0.00  0.00    +0.000 C 
ATOM     24  C   UNL     1      42.861  -4.349  20.236  0.00  0.00    +0.000 C 
ATOM     25  C   UNL     1      43.679  -3.149  23.515  0.00  0.00    +0.000 C 
ATOM     26  C   UNL     1      42.199   0.994  23.092  0.00  0.00    +0.000 C 
ENDROOT
BRANCH   9  27
ATOM     27  O   UNL     1      38.335   1.124  17.665  0.00  0.00    +0.000 OA
ATOM     28  H   UNL     1      37.683   1.826  17.486  0.00  0.00    +0.000 HD
ENDBRANCH   9  27
BRANCH  10  29
ATOM     29  O   UNL     1      41.488   1.435  19.414  0.00  0.00    +0.000 OA
ATOM     30  H   UNL     1      41.771   1.809  20.270  0.00  0.00    +0.000 HD
ENDBRANCH  10  29
BRANCH  14  31
ATOM     31  O   UNL     1      45.707  -3.217  17.553  0.00  0.00    +0.000 OA
ATOM     32  H   UNL     1      46.494  -2.712  17.847  0.00  0.00    +0.000 HD
ENDBRANCH  14  31
BRANCH  15  33
ATOM     33  O   UNL     1      45.858  -2.406  20.107  0.00  0.00    +0.000 OA
ATOM     34  C   UNL     1      46.209  -3.528  20.873  0.00  0.00    +0.000 C 
ENDBRANCH  15  33
BRANCH  20  35
ATOM     35  O   UNL     1      41.350  -1.939  24.849  0.00  0.00    +0.000 OA
BRANCH  35  37
ATOM     36  O   UNL     1      39.779  -3.511  24.136  0.00  0.00    +0.000 OA
ATOM     37  C   UNL     1      40.214  -2.681  24.912  0.00  0.00    +0.000 C 
ATOM     38  C   UNL     1      39.353  -2.392  26.085  0.00  0.00    +0.000 C 
ENDBRANCH  35  37
ENDBRANCH  20  35
BRANCH   6  39
ATOM     39  C   UNL     1      39.684  -0.890  15.585  0.00  0.00    +0.000 C 
BRANCH  39  41
ATOM     40  O   UNL     1      40.878   0.151  13.586  0.00  0.00    +0.000 OA
ATOM     41  C   UNL     1      39.964  -0.838  14.121  0.00  0.00    +0.000 C 
ATOM     42  C   UNL     1      41.352  -1.116  13.763  0.00  0.00    +0.000 C 
ATOM     43  C   UNL     1      38.751  -0.974  13.137  0.00  0.00    +0.000 C 
BRANCH  42  44
ATOM     44  C   UNL     1      41.703  -1.892  12.608  0.00  0.00    +0.000 C 
ATOM     45  C   UNL     1      42.094  -1.203  11.326  0.00  0.00    +0.000 C 
BRANCH  44  46
ATOM     46  C   UNL     1      42.217  -3.204  12.795  0.00  0.00    +0.000 C 
ATOM     47  C   UNL     1      42.638  -4.296  13.054  0.00  0.00    +0.000 C 
ATOM     48  C   UNL     1      43.182  -5.653  13.525  0.00  0.00    +0.000 C 
ENDBRANCH  44  46
ENDBRANCH  42  44
ENDBRANCH  39  41
BRANCH  39  49
ATOM     49  O   UNL     1      38.776  -1.793  16.117  0.00  0.00    +0.000 OA
ATOM     50  H   UNL     1      38.339  -2.334  15.430  0.00  0.00    +0.000 HD
ENDBRANCH  39  49
ENDBRANCH   6  39
BRANCH   9  51
ATOM     51  C   UNL     1      39.433   3.223  17.666  0.00  0.00    +0.000 C 
BRANCH  51  52
ATOM     52  O   UNL     1      39.306   4.542  17.526  0.00  0.00    +0.000 OA
ATOM     53  H   UNL     1      38.428   4.767  17.165  0.00  0.00    +0.000 HD
ENDBRANCH  51  52
ENDBRANCH   9  51
TORSDOF 13
ENDMDL
MODEL 4
REMARK VINA RESULT:      -5.9     14.224     17.320
REMARK  Name = 101808841_CandidaspongiolideA.pdbqt.pdb
REMARK  13 active torsions:
REMARK  status: ('A' for Active; 'I' for Inactive)
REMARK    1  A    between atoms: C_6  and  C_39
REMARK    2  A    between atoms: C_9  and  O_27
REMARK    3  A    between atoms: C_9  and  C_51
REMARK    4  A    between atoms: C_10  and  O_29
REMARK    5  A    between atoms: C_14  and  O_31
REMARK    6  A    between atoms: C_15  and  O_33
REMARK    7  A    between atoms: C_20  and  O_35
REMARK    8  A    between atoms: O_35  and  C_37
REMARK    9  A    between atoms: C_39  and  C_41
REMARK   10  A    between atoms: C_39  and  O_49
REMARK   11  A    between atoms: C_42  and  C_44
REMARK   12  A    between atoms: C_44  and  C_46
REMARK   13  A    between atoms: C_51  and  O_52
REMARK                            x       y       z     vdW  Elec       q    Type
REMARK                         _______ _______ _______ _____ _____    ______ ____
ROOT
ATOM      1  O   UNL     1      42.602  -3.050  16.635  0.00  0.00    +0.000 OA
ATOM      2  O   UNL     1      40.813  -0.376  14.002  0.00  0.00    +0.000 OA
ATOM      3  O   UNL     1      42.702  -4.754  15.084  0.00  0.00    +0.000 OA
ATOM      4  O   UNL     1      38.963   1.844  19.930  0.00  0.00    +0.000 OA
ATOM      5  O   UNL     1      43.542  -1.375  18.734  0.00  0.00    +0.000 OA
ATOM      6  C   UNL     1      40.271  -2.036  15.582  0.00  0.00    +0.000 C 
ATOM      7  C   UNL     1      40.337  -0.616  15.113  0.00  0.00    +0.000 C 
ATOM      8  C   UNL     1      41.456  -2.600  16.130  0.00  0.00    +0.000 C 
ATOM      9  C   UNL     1      39.877   0.464  16.130  0.00  0.00    +0.000 C 
ATOM     10  C   UNL     1      40.925   0.659  17.212  0.00  0.00    +0.000 C 
ATOM     11  C   UNL     1      40.595   1.037  18.546  0.00  0.00    +0.000 C 
ATOM     12  C   UNL     1      43.193  -4.073  15.974  0.00  0.00    +0.000 C 
ATOM     13  C   UNL     1      40.114   1.427  19.862  0.00  0.00    +0.000 C 
ATOM     14  C   UNL     1      44.590  -4.267  16.427  0.00  0.00    +0.000 C 
ATOM     15  C   UNL     1      45.203  -3.566  17.536  0.00  0.00    +0.000 C 
ATOM     16  C   UNL     1      41.013   1.314  21.056  0.00  0.00    +0.000 C 
ATOM     17  C   UNL     1      44.677  -3.459  18.892  0.00  0.00    +0.000 C 
ATOM     18  C   UNL     1      44.788  -1.714  20.751  0.00  0.00    +0.000 C 
ATOM     19  C   UNL     1      44.288  -2.104  19.391  0.00  0.00    +0.000 C 
ATOM     20  C   UNL     1      44.164  -0.582  21.441  0.00  0.00    +0.000 C 
ATOM     21  C   UNL     1      42.374   0.933  20.941  0.00  0.00    +0.000 C 
ATOM     22  C   UNL     1      43.618   0.598  20.811  0.00  0.00    +0.000 C 
ATOM     23  C   UNL     1      40.553   1.606  22.468  0.00  0.00    +0.000 C 
ATOM     24  C   UNL     1      43.922  -4.651  19.483  0.00  0.00    +0.000 C 
ATOM     25  C   UNL     1      45.994  -2.413  21.369  0.00  0.00    +0.000 C 
ATOM     26  C   UNL     1      44.414   1.414  19.824  0.00  0.00    +0.000 C 
ENDROOT
BRANCH   9  27
ATOM     27  O   UNL     1      38.664   0.034  16.751  0.00  0.00    +0.000 OA
ATOM     28  H   UNL     1      38.232  -0.586  16.136  0.00  0.00    +0.000 HD
ENDBRANCH   9  27
BRANCH  10  29
ATOM     29  O   UNL     1      42.253   0.489  16.873  0.00  0.00    +0.000 OA
ATOM     30  H   UNL     1      42.581   1.138  16.223  0.00  0.00    +0.000 HD
ENDBRANCH  10  29
BRANCH  14  31
ATOM     31  O   UNL     1      45.403  -5.136  15.721  0.00  0.00    +0.000 OA
ATOM     32  H   UNL     1      46.330  -4.815  15.715  0.00  0.00    +0.000 HD
ENDBRANCH  14  31
BRANCH  15  33
ATOM     33  O   UNL     1      46.576  -3.426  17.425  0.00  0.00    +0.000 OA
ATOM     34  C   UNL     1      47.220  -4.085  18.484  0.00  0.00    +0.000 C 
ENDBRANCH  15  33
BRANCH  20  35
ATOM     35  O   UNL     1      44.400  -0.418  22.832  0.00  0.00    +0.000 OA
BRANCH  35  37
ATOM     36  O   UNL     1      42.381  -1.296  23.605  0.00  0.00    +0.000 OA
ATOM     37  C   UNL     1      43.589  -1.164  23.627  0.00  0.00    +0.000 C 
ATOM     38  C   UNL     1      44.289  -1.883  24.720  0.00  0.00    +0.000 C 
ENDBRANCH  35  37
ENDBRANCH  20  35
BRANCH   6  39
ATOM     39  C   UNL     1      39.071  -2.822  15.381  0.00  0.00    +0.000 C 
BRANCH  39  41
ATOM     40  O   UNL     1      37.390  -4.567  16.178  0.00  0.00    +0.000 OA
ATOM     41  C   UNL     1      38.565  -3.755  16.428  0.00  0.00    +0.000 C 
ATOM     42  C   UNL     1      38.610  -5.165  16.050  0.00  0.00    +0.000 C 
ATOM     43  C   UNL     1      38.503  -3.236  17.905  0.00  0.00    +0.000 C 
BRANCH  42  44
ATOM     44  C   UNL     1      38.977  -6.195  16.979  0.00  0.00    +0.000 C 
ATOM     45  C   UNL     1      37.968  -7.237  17.391  0.00  0.00    +0.000 C 
BRANCH  44  46
ATOM     46  C   UNL     1      40.342  -6.576  17.075  0.00  0.00    +0.000 C 
ATOM     47  C   UNL     1      41.462  -6.992  17.185  0.00  0.00    +0.000 C 
ATOM     48  C   UNL     1      42.838  -7.639  17.393  0.00  0.00    +0.000 C 
ENDBRANCH  44  46
ENDBRANCH  42  44
ENDBRANCH  39  41
BRANCH  39  49
ATOM     49  O   UNL     1      38.264  -2.401  14.334  0.00  0.00    +0.000 OA
ATOM     50  H   UNL     1      38.512  -1.517  14.001  0.00  0.00    +0.000 HD
ENDBRANCH  39  49
ENDBRANCH   6  39
BRANCH   9  51
ATOM     51  C   UNL     1      39.638   1.759  15.450  0.00  0.00    +0.000 C 
BRANCH  51  52
ATOM     52  O   UNL     1      39.400   2.914  14.829  0.00  0.00    +0.000 OA
ATOM     53  H   UNL     1      38.817   2.777  14.059  0.00  0.00    +0.000 HD
ENDBRANCH  51  52
ENDBRANCH   9  51
TORSDOF 13
ENDMDL
MODEL 5
REMARK VINA RESULT:      -5.9      1.922      2.854
REMARK  Name = 101808841_CandidaspongiolideA.pdbqt.pdb
REMARK  13 active torsions:
REMARK  status: ('A' for Active; 'I' for Inactive)
REMARK    1  A    between atoms: C_6  and  C_39
REMARK    2  A    between atoms: C_9  and  O_27
REMARK    3  A    between atoms: C_9  and  C_51
REMARK    4  A    between atoms: C_10  and  O_29
REMARK    5  A    between atoms: C_14  and  O_31
REMARK    6  A    between atoms: C_15  and  O_33
REMARK    7  A    between atoms: C_20  and  O_35
REMARK    8  A    between atoms: O_35  and  C_37
REMARK    9  A    between atoms: C_39  and  C_41
REMARK   10  A    between atoms: C_39  and  O_49
REMARK   11  A    between atoms: C_42  and  C_44
REMARK   12  A    between atoms: C_44  and  C_46
REMARK   13  A    between atoms: C_51  and  O_52
REMARK                            x       y       z     vdW  Elec       q    Type
REMARK                         _______ _______ _______ _____ _____    ______ ____
ROOT
ATOM      1  O   UNL     1      51.193   3.684   9.348  0.00  0.00    +0.000 OA
ATOM      2  O   UNL     1      50.599   7.593   8.064  0.00  0.00    +0.000 OA
ATOM      3  O   UNL     1      50.247   4.055  11.419  0.00  0.00    +0.000 OA
ATOM      4  O   UNL     1      55.676   5.530   4.394  0.00  0.00    +0.000 OA
ATOM      5  O   UNL     1      51.715   2.272   6.934  0.00  0.00    +0.000 OA
ATOM      6  C   UNL     1      52.177   6.249   9.181  0.00  0.00    +0.000 C 
ATOM      7  C   UNL     1      51.703   7.048   8.008  0.00  0.00    +0.000 C 
ATOM      8  C   UNL     1      51.689   4.918   9.307  0.00  0.00    +0.000 C 
ATOM      9  C   UNL     1      52.623   7.041   6.757  0.00  0.00    +0.000 C 
ATOM     10  C   UNL     1      52.523   5.711   6.028  0.00  0.00    +0.000 C 
ATOM     11  C   UNL     1      53.610   5.147   5.299  0.00  0.00    +0.000 C 
ATOM     12  C   UNL     1      50.402   3.387  10.406  0.00  0.00    +0.000 C 
ATOM     13  C   UNL     1      54.799   4.697   4.592  0.00  0.00    +0.000 C 
ATOM     14  C   UNL     1      49.660   2.124  10.182  0.00  0.00    +0.000 C 
ATOM     15  C   UNL     1      49.864   1.236   9.056  0.00  0.00    +0.000 C 
ATOM     16  C   UNL     1      54.910   3.272   4.141  0.00  0.00    +0.000 C 
ATOM     17  C   UNL     1      51.136   0.682   8.606  0.00  0.00    +0.000 C 
ATOM     18  C   UNL     1      52.119  -0.017   6.357  0.00  0.00    +0.000 C 
ATOM     19  C   UNL     1      51.642   1.085   7.257  0.00  0.00    +0.000 C 
ATOM     20  C   UNL     1      52.945   0.322   5.196  0.00  0.00    +0.000 C 
ATOM     21  C   UNL     1      53.842   2.350   4.283  0.00  0.00    +0.000 C 
ATOM     22  C   UNL     1      52.847   1.530   4.409  0.00  0.00    +0.000 C 
ATOM     23  C   UNL     1      56.153   2.705   3.489  0.00  0.00    +0.000 C 
ATOM     24  C   UNL     1      52.190   0.319   9.654  0.00  0.00    +0.000 C 
ATOM     25  C   UNL     1      51.672  -1.457   6.582  0.00  0.00    +0.000 C 
ATOM     26  C   UNL     1      51.535   2.001   3.833  0.00  0.00    +0.000 C 
ENDROOT
BRANCH   9  27
ATOM     27  O   UNL     1      53.977   7.225   7.172  0.00  0.00    +0.000 OA
ATOM     28  H   UNL     1      54.169   6.539   7.836  0.00  0.00    +0.000 HD
ENDBRANCH   9  27
BRANCH  10  29
ATOM     29  O   UNL     1      51.316   5.041   6.055  0.00  0.00    +0.000 OA
ATOM     30  H   UNL     1      51.404   4.069   6.080  0.00  0.00    +0.000 HD
ENDBRANCH  10  29
BRANCH  14  31
ATOM     31  O   UNL     1      48.660   1.773  11.071  0.00  0.00    +0.000 OA
ATOM     32  H   UNL     1      47.812   2.199  10.823  0.00  0.00    +0.000 HD
ENDBRANCH  14  31
BRANCH  15  33
ATOM     33  O   UNL     1      48.746   0.496   8.712  0.00  0.00    +0.000 OA
ATOM     34  C   UNL     1      49.011  -0.876   8.841  0.00  0.00    +0.000 C 
ENDBRANCH  15  33
BRANCH  20  35
ATOM     35  O   UNL     1      53.662  -0.716   4.542  0.00  0.00    +0.000 OA
BRANCH  35  37
ATOM     36  O   UNL     1      52.026  -1.528   3.090  0.00  0.00    +0.000 OA
ATOM     37  C   UNL     1      53.132  -1.095   3.351  0.00  0.00    +0.000 C 
ATOM     38  C   UNL     1      54.071  -1.014   2.204  0.00  0.00    +0.000 C 
ENDBRANCH  35  37
ENDBRANCH  20  35
BRANCH   6  39
ATOM     39  C   UNL     1      53.016   6.855  10.194  0.00  0.00    +0.000 C 
BRANCH  39  41
ATOM     40  O   UNL     1      52.914   5.751  12.491  0.00  0.00    +0.000 OA
ATOM     41  C   UNL     1      52.613   6.877  11.630  0.00  0.00    +0.000 C 
ATOM     42  C   UNL     1      53.731   6.841  12.569  0.00  0.00    +0.000 C 
ATOM     43  C   UNL     1      51.178   7.400  11.982  0.00  0.00    +0.000 C 
BRANCH  42  44
ATOM     44  C   UNL     1      53.740   7.615  13.778  0.00  0.00    +0.000 C 
ATOM     45  C   UNL     1      53.246   7.008  15.067  0.00  0.00    +0.000 C 
BRANCH  44  46
ATOM     46  C   UNL     1      54.677   8.675  13.905  0.00  0.00    +0.000 C 
ATOM     47  C   UNL     1      55.537   9.499  14.043  0.00  0.00    +0.000 C 
ATOM     48  C   UNL     1      56.717  10.452  14.287  0.00  0.00    +0.000 C 
ENDBRANCH  44  46
ENDBRANCH  42  44
ENDBRANCH  39  41
BRANCH  39  49
ATOM     49  O   UNL     1      54.326   7.091   9.806  0.00  0.00    +0.000 OA
ATOM     50  H   UNL     1      54.960   6.984  10.542  0.00  0.00    +0.000 HD
ENDBRANCH  39  49
ENDBRANCH   6  39
BRANCH   9  51
ATOM     51  C   UNL     1      52.251   8.131   5.824  0.00  0.00    +0.000 C 
BRANCH  51  52
ATOM     52  O   UNL     1      51.931   9.099   4.966  0.00  0.00    +0.000 OA
ATOM     53  H   UNL     1      51.452   9.817   5.420  0.00  0.00    +0.000 HD
ENDBRANCH  51  52
ENDBRANCH   9  51
TORSDOF 13
ENDMDL
MODEL 6
REMARK VINA RESULT:      -5.4     19.651     21.812
REMARK  Name = 101808841_CandidaspongiolideA.pdbqt.pdb
REMARK  13 active torsions:
REMARK  status: ('A' for Active; 'I' for Inactive)
REMARK    1  A    between atoms: C_6  and  C_39
REMARK    2  A    between atoms: C_9  and  O_27
REMARK    3  A    between atoms: C_9  and  C_51
REMARK    4  A    between atoms: C_10  and  O_29
REMARK    5  A    between atoms: C_14  and  O_31
REMARK    6  A    between atoms: C_15  and  O_33
REMARK    7  A    between atoms: C_20  and  O_35
REMARK    8  A    between atoms: O_35  and  C_37
REMARK    9  A    between atoms: C_39  and  C_41
REMARK   10  A    between atoms: C_39  and  O_49
REMARK   11  A    between atoms: C_42  and  C_44
REMARK   12  A    between atoms: C_44  and  C_46
REMARK   13  A    between atoms: C_51  and  O_52
REMARK                            x       y       z     vdW  Elec       q    Type
REMARK                         _______ _______ _______ _____ _____    ______ ____
ROOT
ATOM      1  O   UNL     1      38.516   5.443  -7.950  0.00  0.00    +0.000 OA
ATOM      2  O   UNL     1      38.093   8.998 -10.063  0.00  0.00    +0.000 OA
ATOM      3  O   UNL     1      36.945   6.017  -6.361  0.00  0.00    +0.000 OA
ATOM      4  O   UNL     1      44.192   7.016 -11.605  0.00  0.00    +0.000 OA
ATOM      5  O   UNL     1      39.862   3.742  -9.791  0.00  0.00    +0.000 OA
ATOM      6  C   UNL     1      39.328   8.049  -8.296  0.00  0.00    +0.000 C 
ATOM      7  C   UNL     1      39.193   8.589  -9.685  0.00  0.00    +0.000 C 
ATOM      8  C   UNL     1      38.915   6.706  -8.073  0.00  0.00    +0.000 C 
ATOM      9  C   UNL     1      40.457   8.497 -10.582  0.00  0.00    +0.000 C 
ATOM     10  C   UNL     1      40.681   7.067 -11.044  0.00  0.00    +0.000 C 
ATOM     11  C   UNL     1      41.977   6.532 -11.299  0.00  0.00    +0.000 C 
ATOM     12  C   UNL     1      37.455   5.222  -7.138  0.00  0.00    +0.000 C 
ATOM     13  C   UNL     1      43.355   6.124 -11.523  0.00  0.00    +0.000 C 
ATOM     14  C   UNL     1      36.908   3.859  -7.332  0.00  0.00    +0.000 C 
ATOM     15  C   UNL     1      37.514   2.836  -8.159  0.00  0.00    +0.000 C 
ATOM     16  C   UNL     1      43.698   4.670 -11.646  0.00  0.00    +0.000 C 
ATOM     17  C   UNL     1      38.897   2.377  -8.098  0.00  0.00    +0.000 C 
ATOM     18  C   UNL     1      40.581   1.457  -9.781  0.00  0.00    +0.000 C 
ATOM     19  C   UNL     1      39.772   2.621  -9.287  0.00  0.00    +0.000 C 
ATOM     20  C   UNL     1      41.705   1.706 -10.687  0.00  0.00    +0.000 C 
ATOM     21  C   UNL     1      42.704   3.659 -11.656  0.00  0.00    +0.000 C 
ATOM     22  C   UNL     1      41.777   2.754 -11.679  0.00  0.00    +0.000 C 
ATOM     23  C   UNL     1      45.118   4.163 -11.780  0.00  0.00    +0.000 C 
ATOM     24  C   UNL     1      39.591   2.315  -6.736  0.00  0.00    +0.000 C 
ATOM     25  C   UNL     1      40.184   0.027  -9.433  0.00  0.00    +0.000 C 
ATOM     26  C   UNL     1      40.684   2.964 -12.697  0.00  0.00    +0.000 C 
ENDROOT
BRANCH   9  27
ATOM     27  O   UNL     1      41.597   8.909  -9.827  0.00  0.00    +0.000 OA
ATOM     28  H   UNL     1      41.484   9.857  -9.631  0.00  0.00    +0.000 HD
ENDBRANCH   9  27
BRANCH  10  29
ATOM     29  O   UNL     1      39.574   6.267 -11.252  0.00  0.00    +0.000 OA
ATOM     30  H   UNL     1      38.742   6.648 -10.913  0.00  0.00    +0.000 HD
ENDBRANCH  10  29
BRANCH  14  31
ATOM     31  O   UNL     1      35.705   3.533  -6.730  0.00  0.00    +0.000 OA
ATOM     32  H   UNL     1      35.812   2.755  -6.143  0.00  0.00    +0.000 HD
ENDBRANCH  14  31
BRANCH  15  33
ATOM     33  O   UNL     1      36.612   1.919  -8.674  0.00  0.00    +0.000 OA
ATOM     34  C   UNL     1      36.203   2.307  -9.958  0.00  0.00    +0.000 C 
ENDBRANCH  15  33
BRANCH  20  35
ATOM     35  O   UNL     1      42.658   0.673 -10.891  0.00  0.00    +0.000 OA
BRANCH  35  37
ATOM     36  O   UNL     1      44.260   1.474  -9.396  0.00  0.00    +0.000 OA
ATOM     37  C   UNL     1      43.610   0.594  -9.926  0.00  0.00    +0.000 C 
ATOM     38  C   UNL     1      43.938  -0.787  -9.494  0.00  0.00    +0.000 C 
ENDBRANCH  35  37
ENDBRANCH  20  35
BRANCH   6  39
ATOM     39  C   UNL     1      39.763   8.906  -7.212  0.00  0.00    +0.000 C 
BRANCH  39  41
ATOM     40  O   UNL     1      38.774  10.923  -6.005  0.00  0.00    +0.000 OA
ATOM     41  C   UNL     1      38.794   9.494  -6.244  0.00  0.00    +0.000 C 
ATOM     42  C   UNL     1      37.826  10.410  -6.842  0.00  0.00    +0.000 C 
ATOM     43  C   UNL     1      38.588   8.759  -4.875  0.00  0.00    +0.000 C 
BRANCH  42  44
ATOM     44  C   UNL     1      36.451  10.443  -6.434  0.00  0.00    +0.000 C 
ATOM     45  C   UNL     1      35.822  11.744  -6.003  0.00  0.00    +0.000 C 
BRANCH  44  46
ATOM     46  C   UNL     1      35.562   9.458  -6.942  0.00  0.00    +0.000 C 
ATOM     47  C   UNL     1      34.895   8.578  -7.409  0.00  0.00    +0.000 C 
ATOM     48  C   UNL     1      34.159   7.408  -8.079  0.00  0.00    +0.000 C 
ENDBRANCH  44  46
ENDBRANCH  42  44
ENDBRANCH  39  41
BRANCH  39  49
ATOM     49  O   UNL     1      41.122   8.858  -6.937  0.00  0.00    +0.000 OA
ATOM     50  H   UNL     1      41.312   8.495  -6.050  0.00  0.00    +0.000 HD
ENDBRANCH  39  49
ENDBRANCH   6  39
BRANCH   9  51
ATOM     51  C   UNL     1      40.324   9.373 -11.770  0.00  0.00    +0.000 C 
BRANCH  51  52
ATOM     52  O   UNL     1      40.217  10.141 -12.854  0.00  0.00    +0.000 OA
ATOM     53  H   UNL     1      40.887   9.895 -13.518  0.00  0.00    +0.000 HD
ENDBRANCH  51  52
ENDBRANCH   9  51
TORSDOF 13
ENDMDL
MODEL 7
REMARK VINA RESULT:      -5.4     17.518     21.069
REMARK  Name = 101808841_CandidaspongiolideA.pdbqt.pdb
REMARK  13 active torsions:
REMARK  status: ('A' for Active; 'I' for Inactive)
REMARK    1  A    between atoms: C_6  and  C_39
REMARK    2  A    between atoms: C_9  and  O_27
REMARK    3  A    between atoms: C_9  and  C_51
REMARK    4  A    between atoms: C_10  and  O_29
REMARK    5  A    between atoms: C_14  and  O_31
REMARK    6  A    between atoms: C_15  and  O_33
REMARK    7  A    between atoms: C_20  and  O_35
REMARK    8  A    between atoms: O_35  and  C_37
REMARK    9  A    between atoms: C_39  and  C_41
REMARK   10  A    between atoms: C_39  and  O_49
REMARK   11  A    between atoms: C_42  and  C_44
REMARK   12  A    between atoms: C_44  and  C_46
REMARK   13  A    between atoms: C_51  and  O_52
REMARK                            x       y       z     vdW  Elec       q    Type
REMARK                         _______ _______ _______ _____ _____    ______ ____
ROOT
ATOM      1  O   UNL     1      41.146   9.807  -7.668  0.00  0.00    +0.000 OA
ATOM      2  O   UNL     1      44.219   9.602 -10.460  0.00  0.00    +0.000 OA
ATOM      3  O   UNL     1      41.583  12.004  -7.115  0.00  0.00    +0.000 OA
ATOM      4  O   UNL     1      43.378   3.318  -8.644  0.00  0.00    +0.000 OA
ATOM      5  O   UNL     1      39.537   7.546  -8.296  0.00  0.00    +0.000 OA
ATOM      6  C   UNL     1      43.795   9.257  -8.170  0.00  0.00    +0.000 C 
ATOM      7  C   UNL     1      44.105   8.776  -9.553  0.00  0.00    +0.000 C 
ATOM      8  C   UNL     1      42.437   9.557  -7.870  0.00  0.00    +0.000 C 
ATOM      9  C   UNL     1      44.162   7.237  -9.746  0.00  0.00    +0.000 C 
ATOM     10  C   UNL     1      42.763   6.645  -9.738  0.00  0.00    +0.000 C 
ATOM     11  C   UNL     1      42.484   5.330  -9.264  0.00  0.00    +0.000 C 
ATOM     12  C   UNL     1      40.816  11.091  -7.390  0.00  0.00    +0.000 C 
ATOM     13  C   UNL     1      42.348   3.975  -8.754  0.00  0.00    +0.000 C 
ATOM     14  C   UNL     1      39.355  11.306  -7.507  0.00  0.00    +0.000 C 
ATOM     15  C   UNL     1      38.382  10.257  -7.733  0.00  0.00    +0.000 C 
ATOM     16  C   UNL     1      40.996   3.439  -8.392  0.00  0.00    +0.000 C 
ATOM     17  C   UNL     1      38.237   9.028  -6.963  0.00  0.00    +0.000 C 
ATOM     18  C   UNL     1      37.476   6.645  -7.472  0.00  0.00    +0.000 C 
ATOM     19  C   UNL     1      38.499   7.728  -7.657  0.00  0.00    +0.000 C 
ATOM     20  C   UNL     1      37.834   5.265  -7.810  0.00  0.00    +0.000 C 
ATOM     21  C   UNL     1      39.807   4.173  -8.627  0.00  0.00    +0.000 C 
ATOM     22  C   UNL     1      38.732   4.856  -8.866  0.00  0.00    +0.000 C 
ATOM     23  C   UNL     1      40.786   2.077  -7.765  0.00  0.00    +0.000 C 
ATOM     24  C   UNL     1      38.504   9.068  -5.457  0.00  0.00    +0.000 C 
ATOM     25  C   UNL     1      36.054   6.980  -7.038  0.00  0.00    +0.000 C 
ATOM     26  C   UNL     1      38.570   5.346 -10.283  0.00  0.00    +0.000 C 
ENDROOT
BRANCH   9  27
ATOM     27  O   UNL     1      44.901   6.658  -8.670  0.00  0.00    +0.000 OA
ATOM     28  H   UNL     1      44.518   5.777  -8.501  0.00  0.00    +0.000 HD
ENDBRANCH   9  27
BRANCH  10  29
ATOM     29  O   UNL     1      41.728   7.409 -10.240  0.00  0.00    +0.000 OA
ATOM     30  H   UNL     1      41.991   8.313 -10.496  0.00  0.00    +0.000 HD
ENDBRANCH  10  29
BRANCH  14  31
ATOM     31  O   UNL     1      38.867  12.600  -7.452  0.00  0.00    +0.000 OA
ATOM     32  H   UNL     1      38.761  12.889  -6.521  0.00  0.00    +0.000 HD
ENDBRANCH  14  31
BRANCH  15  33
ATOM     33  O   UNL     1      37.236  10.682  -8.384  0.00  0.00    +0.000 OA
ATOM     34  C   UNL     1      37.352  10.465  -9.766  0.00  0.00    +0.000 C 
ENDBRANCH  15  33
BRANCH  20  35
ATOM     35  O   UNL     1      37.007   4.211  -7.337  0.00  0.00    +0.000 OA
BRANCH  35  37
ATOM     36  O   UNL     1      35.396   4.127  -9.023  0.00  0.00    +0.000 OA
ATOM     37  C   UNL     1      36.236   3.634  -8.295  0.00  0.00    +0.000 C 
ATOM     38  C   UNL     1      36.418   2.168  -8.433  0.00  0.00    +0.000 C 
ENDBRANCH  35  37
ENDBRANCH  20  35
BRANCH   6  39
ATOM     39  C   UNL     1      44.861   9.503  -7.220  0.00  0.00    +0.000 C 
BRANCH  39  41
ATOM     40  O   UNL     1      44.893  12.045  -7.418  0.00  0.00    +0.000 OA
ATOM     41  C   UNL     1      45.597  10.799  -7.191  0.00  0.00    +0.000 C 
ATOM     42  C   UNL     1      45.176  11.706  -6.127  0.00  0.00    +0.000 C 
ATOM     43  C   UNL     1      46.982  10.872  -7.920  0.00  0.00    +0.000 C 
BRANCH  42  44
ATOM     44  C   UNL     1      46.111  12.507  -5.390  0.00  0.00    +0.000 C 
ATOM     45  C   UNL     1      47.117  11.849  -4.480  0.00  0.00    +0.000 C 
BRANCH  44  46
ATOM     46  C   UNL     1      46.472  13.783  -5.901  0.00  0.00    +0.000 C 
ATOM     47  C   UNL     1      46.711  14.901  -6.264  0.00  0.00    +0.000 C 
ATOM     48  C   UNL     1      46.903  16.375  -6.649  0.00  0.00    +0.000 C 
ENDBRANCH  44  46
ENDBRANCH  42  44
ENDBRANCH  39  41
BRANCH  39  49
ATOM     49  O   UNL     1      44.909   8.618  -6.152  0.00  0.00    +0.000 OA
ATOM     50  H   UNL     1      44.125   8.687  -5.573  0.00  0.00    +0.000 HD
ENDBRANCH  39  49
ENDBRANCH   6  39
BRANCH   9  51
ATOM     51  C   UNL     1      44.824   6.892 -11.027  0.00  0.00    +0.000 C 
BRANCH  51  52
ATOM     52  O   UNL     1      45.438   6.601 -12.174  0.00  0.00    +0.000 OA
ATOM     53  H   UNL     1      46.381   6.409 -12.021  0.00  0.00    +0.000 HD
ENDBRANCH  51  52
ENDBRANCH   9  51
TORSDOF 13
ENDMDL
MODEL 8
REMARK VINA RESULT:      -5.4     13.392     17.012
REMARK  Name = 101808841_CandidaspongiolideA.pdbqt.pdb
REMARK  13 active torsions:
REMARK  status: ('A' for Active; 'I' for Inactive)
REMARK    1  A    between atoms: C_6  and  C_39
REMARK    2  A    between atoms: C_9  and  O_27
REMARK    3  A    between atoms: C_9  and  C_51
REMARK    4  A    between atoms: C_10  and  O_29
REMARK    5  A    between atoms: C_14  and  O_31
REMARK    6  A    between atoms: C_15  and  O_33
REMARK    7  A    between atoms: C_20  and  O_35
REMARK    8  A    between atoms: O_35  and  C_37
REMARK    9  A    between atoms: C_39  and  C_41
REMARK   10  A    between atoms: C_39  and  O_49
REMARK   11  A    between atoms: C_42  and  C_44
REMARK   12  A    between atoms: C_44  and  C_46
REMARK   13  A    between atoms: C_51  and  O_52
REMARK                            x       y       z     vdW  Elec       q    Type
REMARK                         _______ _______ _______ _____ _____    ______ ____
ROOT
ATOM      1  O   UNL     1      40.494  -0.124  16.994  0.00  0.00    +0.000 OA
ATOM      2  O   UNL     1      42.490   1.577  20.219  0.00  0.00    +0.000 OA
ATOM      3  O   UNL     1      39.041   1.652  16.754  0.00  0.00    +0.000 OA
ATOM      4  O   UNL     1      43.517  -4.888  21.020  0.00  0.00    +0.000 OA
ATOM      5  O   UNL     1      42.264  -2.180  16.136  0.00  0.00    +0.000 OA
ATOM      6  C   UNL     1      40.653   0.189  19.723  0.00  0.00    +0.000 C 
ATOM      7  C   UNL     1      42.025   0.436  20.266  0.00  0.00    +0.000 C 
ATOM      8  C   UNL     1      40.526   0.025  18.315  0.00  0.00    +0.000 C 
ATOM      9  C   UNL     1      42.800  -0.813  20.767  0.00  0.00    +0.000 C 
ATOM     10  C   UNL     1      43.296  -1.639  19.592  0.00  0.00    +0.000 C 
ATOM     11  C   UNL     1      43.446  -3.056  19.653  0.00  0.00    +0.000 C 
ATOM     12  C   UNL     1      39.798   0.805  16.298  0.00  0.00    +0.000 C 
ATOM     13  C   UNL     1      43.553  -4.491  19.861  0.00  0.00    +0.000 C 
ATOM     14  C   UNL     1      40.098   0.726  14.850  0.00  0.00    +0.000 C 
ATOM     15  C   UNL     1      40.904  -0.306  14.229  0.00  0.00    +0.000 C 
ATOM     16  C   UNL     1      43.701  -5.411  18.687  0.00  0.00    +0.000 C 
ATOM     17  C   UNL     1      40.730  -1.746  14.371  0.00  0.00    +0.000 C 
ATOM     18  C   UNL     1      42.279  -3.775  14.349  0.00  0.00    +0.000 C 
ATOM     19  C   UNL     1      41.818  -2.525  15.041  0.00  0.00    +0.000 C 
ATOM     20  C   UNL     1      43.061  -4.756  15.104  0.00  0.00    +0.000 C 
ATOM     21  C   UNL     1      43.849  -4.927  17.363  0.00  0.00    +0.000 C 
ATOM     22  C   UNL     1      43.998  -4.460  16.164  0.00  0.00    +0.000 C 
ATOM     23  C   UNL     1      43.719  -6.920  18.815  0.00  0.00    +0.000 C 
ATOM     24  C   UNL     1      39.311  -2.305  14.492  0.00  0.00    +0.000 C 
ATOM     25  C   UNL     1      42.029  -3.980  12.860  0.00  0.00    +0.000 C 
ATOM     26  C   UNL     1      45.107  -3.453  15.987  0.00  0.00    +0.000 C 
ENDROOT
BRANCH   9  27
ATOM     27  O   UNL     1      41.921  -1.625  21.548  0.00  0.00    +0.000 OA
ATOM     28  H   UNL     1      42.448  -2.371  21.888  0.00  0.00    +0.000 HD
ENDBRANCH   9  27
BRANCH  10  29
ATOM     29  O   UNL     1      43.642  -0.980  18.430  0.00  0.00    +0.000 OA
ATOM     30  H   UNL     1      44.589  -0.750  18.371  0.00  0.00    +0.000 HD
ENDBRANCH  10  29
BRANCH  14  31
ATOM     31  O   UNL     1      39.629   1.726  14.017  0.00  0.00    +0.000 OA
ATOM     32  H   UNL     1      39.240   2.458  14.541  0.00  0.00    +0.000 HD
ENDBRANCH  14  31
BRANCH  15  33
ATOM     33  O   UNL     1      41.541   0.099  13.068  0.00  0.00    +0.000 OA
ATOM     34  C   UNL     1      41.178  -0.734  11.998  0.00  0.00    +0.000 C 
ENDBRANCH  15  33
BRANCH  20  35
ATOM     35  O   UNL     1      43.215  -6.063  14.568  0.00  0.00    +0.000 OA
BRANCH  35  37
ATOM     36  O   UNL     1      45.227  -5.811  13.414  0.00  0.00    +0.000 OA
ATOM     37  C   UNL     1      44.485  -6.369  14.199  0.00  0.00    +0.000 C 
ATOM     38  C   UNL     1      45.026  -7.606  14.816  0.00  0.00    +0.000 C 
ENDBRANCH  35  37
ENDBRANCH  20  35
BRANCH   6  39
ATOM     39  C   UNL     1      39.498   0.225  20.597  0.00  0.00    +0.000 C 
BRANCH  39  41
ATOM     40  O   UNL     1      38.169  -1.327  22.123  0.00  0.00    +0.000 OA
ATOM     41  C   UNL     1      38.633  -0.973  20.797  0.00  0.00    +0.000 C 
ATOM     42  C   UNL     1      37.297  -0.673  21.302  0.00  0.00    +0.000 C 
ATOM     43  C   UNL     1      39.018  -2.290  20.039  0.00  0.00    +0.000 C 
BRANCH  42  44
ATOM     44  C   UNL     1      36.129  -1.367  20.838  0.00  0.00    +0.000 C 
ATOM     45  C   UNL     1      35.629  -2.582  21.578  0.00  0.00    +0.000 C 
BRANCH  44  46
ATOM     46  C   UNL     1      35.160  -0.651  20.086  0.00  0.00    +0.000 C 
ATOM     47  C   UNL     1      34.419  -0.019  19.386  0.00  0.00    +0.000 C 
ATOM     48  C   UNL     1      33.588   0.843  18.425  0.00  0.00    +0.000 C 
ENDBRANCH  44  46
ENDBRANCH  42  44
ENDBRANCH  39  41
BRANCH  39  49
ATOM     49  O   UNL     1      39.459   1.301  21.472  0.00  0.00    +0.000 OA
ATOM     50  H   UNL     1      39.477   2.161  21.009  0.00  0.00    +0.000 HD
ENDBRANCH  39  49
ENDBRANCH   6  39
BRANCH   9  51
ATOM     51  C   UNL     1      43.958  -0.416  21.601  0.00  0.00    +0.000 C 
BRANCH  51  52
ATOM     52  O   UNL     1      45.014  -0.080  22.343  0.00  0.00    +0.000 OA
ATOM     53  H   UNL     1      45.838  -0.175  21.831  0.00  0.00    +0.000 HD
ENDBRANCH  51  52
ENDBRANCH   9  51
TORSDOF 13
ENDMDL
MODEL 9
REMARK VINA RESULT:      -5.3     13.982     19.217
REMARK  Name = 101808841_CandidaspongiolideA.pdbqt.pdb
REMARK  13 active torsions:
REMARK  status: ('A' for Active; 'I' for Inactive)
REMARK    1  A    between atoms: C_6  and  C_39
REMARK    2  A    between atoms: C_9  and  O_27
REMARK    3  A    between atoms: C_9  and  C_51
REMARK    4  A    between atoms: C_10  and  O_29
REMARK    5  A    between atoms: C_14  and  O_31
REMARK    6  A    between atoms: C_15  and  O_33
REMARK    7  A    between atoms: C_20  and  O_35
REMARK    8  A    between atoms: O_35  and  C_37
REMARK    9  A    between atoms: C_39  and  C_41
REMARK   10  A    between atoms: C_39  and  O_49
REMARK   11  A    between atoms: C_42  and  C_44
REMARK   12  A    between atoms: C_44  and  C_46
REMARK   13  A    between atoms: C_51  and  O_52
REMARK                            x       y       z     vdW  Elec       q    Type
REMARK                         _______ _______ _______ _____ _____    ______ ____
ROOT
ATOM      1  O   UNL     1      39.620  -3.515  17.370  0.00  0.00    +0.000 OA
ATOM      2  O   UNL     1      43.012  -1.125  17.113  0.00  0.00    +0.000 OA
ATOM      3  O   UNL     1      39.768  -4.232  15.182  0.00  0.00    +0.000 OA
ATOM      4  O   UNL     1      39.545   1.655  21.987  0.00  0.00    +0.000 OA
ATOM      5  O   UNL     1      39.202  -3.763  20.173  0.00  0.00    +0.000 OA
ATOM      6  C   UNL     1      40.682  -1.045  16.782  0.00  0.00    +0.000 C 
ATOM      7  C   UNL     1      41.934  -0.688  17.520  0.00  0.00    +0.000 C 
ATOM      8  C   UNL     1      40.102  -2.316  17.054  0.00  0.00    +0.000 C 
ATOM      9  C   UNL     1      41.750   0.144  18.818  0.00  0.00    +0.000 C 
ATOM     10  C   UNL     1      41.211  -0.728  19.939  0.00  0.00    +0.000 C 
ATOM     11  C   UNL     1      40.369  -0.223  20.973  0.00  0.00    +0.000 C 
ATOM     12  C   UNL     1      39.586  -4.433  16.375  0.00  0.00    +0.000 C 
ATOM     13  C   UNL     1      39.524   0.429  21.961  0.00  0.00    +0.000 C 
ATOM     14  C   UNL     1      39.345  -5.793  16.910  0.00  0.00    +0.000 C 
ATOM     15  C   UNL     1      39.028  -6.093  18.291  0.00  0.00    +0.000 C 
ATOM     16  C   UNL     1      38.683  -0.393  22.891  0.00  0.00    +0.000 C 
ATOM     17  C   UNL     1      37.970  -5.486  19.090  0.00  0.00    +0.000 C 
ATOM     18  C   UNL     1      37.645  -4.940  21.562  0.00  0.00    +0.000 C 
ATOM     19  C   UNL     1      38.366  -4.663  20.275  0.00  0.00    +0.000 C 
ATOM     20  C   UNL     1      37.719  -3.954  22.643  0.00  0.00    +0.000 C 
ATOM     21  C   UNL     1      38.754  -1.809  22.919  0.00  0.00    +0.000 C 
ATOM     22  C   UNL     1      38.847  -3.100  22.938  0.00  0.00    +0.000 C 
ATOM     23  C   UNL     1      37.707   0.212  23.877  0.00  0.00    +0.000 C 
ATOM     24  C   UNL     1      36.654  -5.112  18.404  0.00  0.00    +0.000 C 
ATOM     25  C   UNL     1      36.932  -6.268  21.787  0.00  0.00    +0.000 C 
ATOM     26  C   UNL     1      40.239  -3.653  23.112  0.00  0.00    +0.000 C 
ENDROOT
BRANCH   9  27
ATOM     27  O   UNL     1      40.812   1.192  18.573  0.00  0.00    +0.000 OA
ATOM     28  H   UNL     1      41.275   2.035  18.733  0.00  0.00    +0.000 HD
ENDBRANCH   9  27
BRANCH  10  29
ATOM     29  O   UNL     1      41.579  -2.059  19.967  0.00  0.00    +0.000 OA
ATOM     30  H   UNL     1      40.939  -2.637  20.423  0.00  0.00    +0.000 HD
ENDBRANCH  10  29
BRANCH  14  31
ATOM     31  O   UNL     1      39.477  -6.876  16.059  0.00  0.00    +0.000 OA
ATOM     32  H   UNL     1      40.185  -6.713  15.399  0.00  0.00    +0.000 HD
ENDBRANCH  14  31
BRANCH  15  33
ATOM     33  O   UNL     1      39.421  -7.356  18.699  0.00  0.00    +0.000 OA
ATOM     34  C   UNL     1      40.688  -7.302  19.300  0.00  0.00    +0.000 C 
ENDBRANCH  15  33
BRANCH  20  35
ATOM     35  O   UNL     1      36.791  -4.049  23.716  0.00  0.00    +0.000 OA
BRANCH  35  37
ATOM     36  O   UNL     1      35.326  -2.374  23.016  0.00  0.00    +0.000 OA
ATOM     37  C   UNL     1      35.587  -3.473  23.465  0.00  0.00    +0.000 C 
ATOM     38  C   UNL     1      34.416  -4.300  23.848  0.00  0.00    +0.000 C 
ENDBRANCH  35  37
ENDBRANCH  20  35
BRANCH   6  39
ATOM     39  C   UNL     1      40.154  -0.166  15.759  0.00  0.00    +0.000 C 
BRANCH  39  41
ATOM     40  O   UNL     1      40.792   0.457  13.369  0.00  0.00    +0.000 OA
ATOM     41  C   UNL     1      40.255  -0.506  14.310  0.00  0.00    +0.000 C 
ATOM     42  C   UNL     1      41.620  -0.540  13.794  0.00  0.00    +0.000 C 
ATOM     43  C   UNL     1      39.036  -1.228  13.639  0.00  0.00    +0.000 C 
BRANCH  42  44
ATOM     44  C   UNL     1      42.056  -1.528  12.849  0.00  0.00    +0.000 C 
ATOM     45  C   UNL     1      42.116  -1.194  11.380  0.00  0.00    +0.000 C 
BRANCH  44  46
ATOM     46  C   UNL     1      42.925  -2.562  13.290  0.00  0.00    +0.000 C 
ATOM     47  C   UNL     1      43.667  -3.383  13.752  0.00  0.00    +0.000 C 
ATOM     48  C   UNL     1      44.643  -4.340  14.452  0.00  0.00    +0.000 C 
ENDBRANCH  44  46
ENDBRANCH  42  44
ENDBRANCH  39  41
BRANCH  39  49
ATOM     49  O   UNL     1      39.271   0.801  16.216  0.00  0.00    +0.000 OA
ATOM     50  H   UNL     1      38.355   0.645  15.914  0.00  0.00    +0.000 HD
ENDBRANCH  39  49
ENDBRANCH   6  39
BRANCH   9  51
ATOM     51  C   UNL     1      43.037   0.740  19.248  0.00  0.00    +0.000 C 
BRANCH  51  52
ATOM     52  O   UNL     1      44.193   1.262  19.658  0.00  0.00    +0.000 OA
ATOM     53  H   UNL     1      44.508   1.937  19.028  0.00  0.00    +0.000 HD
ENDBRANCH  51  52
ENDBRANCH   9  51
TORSDOF 13
ENDMDL
