MODEL 1
REMARK VINA RESULT:      -7.8      0.000      0.000
REMARK  Name = 101808842_CandidaspongiolideB.pdbqt.pdb
REMARK  12 active torsions:
REMARK  status: ('A' for Active; 'I' for Inactive)
REMARK    1  A    between atoms: C_6  and  C_42
REMARK    2  A    between atoms: C_7  and  O_28
REMARK    3  A    between atoms: C_10  and  O_30
REMARK    4  A    between atoms: C_13  and  O_32
REMARK    5  A    between atoms: C_19  and  O_34
REMARK    6  A    between atoms: C_20  and  O_38
REMARK    7  A    between atoms: C_21  and  O_36
REMARK    8  A    between atoms: O_38  and  C_40
REMARK    9  A    between atoms: C_42  and  C_44
REMARK   10  A    between atoms: C_42  and  O_52
REMARK   11  A    between atoms: C_45  and  C_47
REMARK   12  A    between atoms: C_47  and  C_49
REMARK                            x       y       z     vdW  Elec       q    Type
REMARK                         _______ _______ _______ _____ _____    ______ ____
ROOT
ATOM      1  O   UNL     1      52.767   8.171  12.632  0.00  0.00    +0.000 OA
ATOM      2  O   UNL     1      51.301   4.409   7.073  0.00  0.00    +0.000 OA
ATOM      3  O   UNL     1      54.008   6.800   9.303  0.00  0.00    +0.000 OA
ATOM      4  O   UNL     1      52.329   3.616   8.980  0.00  0.00    +0.000 OA
ATOM      5  O   UNL     1      50.535   3.120  11.283  0.00  0.00    +0.000 OA
ATOM      6  C   UNL     1      52.335   6.894   7.669  0.00  0.00    +0.000 C 
ATOM      7  C   UNL     1      51.834   7.645  10.093  0.00  0.00    +0.000 C 
ATOM      8  C   UNL     1      52.835   7.085   9.059  0.00  0.00    +0.000 C 
ATOM      9  C   UNL     1      51.818   5.617   7.308  0.00  0.00    +0.000 C 
ATOM     10  C   UNL     1      51.038   6.502  10.753  0.00  0.00    +0.000 C 
ATOM     11  C   UNL     1      51.152   6.422  12.173  0.00  0.00    +0.000 C 
ATOM     12  C   UNL     1      52.527   8.187  11.305  0.00  0.00    +0.000 C 
ATOM     13  C   UNL     1      51.907   7.130  13.253  0.00  0.00    +0.000 C 
ATOM     14  C   UNL     1      52.786   6.154  14.047  0.00  0.00    +0.000 C 
ATOM     15  C   UNL     1      53.043   4.835  13.566  0.00  0.00    +0.000 C 
ATOM     16  C   UNL     1      53.377   6.398  15.432  0.00  0.00    +0.000 C 
ATOM     17  C   UNL     1      51.550   3.490   8.046  0.00  0.00    +0.000 C 
ATOM     18  C   UNL     1      53.211   3.644  13.081  0.00  0.00    +0.000 C 
ATOM     19  C   UNL     1      50.669   2.311   7.882  0.00  0.00    +0.000 C 
ATOM     20  C   UNL     1      52.380   2.535  13.490  0.00  0.00    +0.000 C 
ATOM     21  C   UNL     1      50.431   1.391   8.977  0.00  0.00    +0.000 C 
ATOM     22  C   UNL     1      51.748   1.556  12.607  0.00  0.00    +0.000 C 
ATOM     23  C   UNL     1      51.293   1.159  10.127  0.00  0.00    +0.000 C 
ATOM     24  C   UNL     1      51.141   2.044  11.324  0.00  0.00    +0.000 C 
ATOM     25  C   UNL     1      54.172   3.515  11.934  0.00  0.00    +0.000 C 
ATOM     26  C   UNL     1      51.281   0.217  13.176  0.00  0.00    +0.000 C 
ATOM     27  C   UNL     1      52.471   0.203   9.974  0.00  0.00    +0.000 C 
ENDROOT
BRANCH   7  28
ATOM     28  O   UNL     1      50.927   8.618   9.615  0.00  0.00    +0.000 OA
ATOM     29  H   UNL     1      50.334   8.159   8.992  0.00  0.00    +0.000 HD
ENDBRANCH   7  28
BRANCH  10  30
ATOM     30  O   UNL     1      50.259   5.631  10.037  0.00  0.00    +0.000 OA
ATOM     31  H   UNL     1      49.847   6.075   9.266  0.00  0.00    +0.000 HD
ENDBRANCH  10  30
BRANCH  13  32
ATOM     32  O   UNL     1      50.957   7.772  14.100  0.00  0.00    +0.000 OA
ATOM     33  H   UNL     1      50.201   7.165  14.154  0.00  0.00    +0.000 HD
ENDBRANCH  13  32
BRANCH  19  34
ATOM     34  O   UNL     1      49.923   2.106   6.737  0.00  0.00    +0.000 OA
ATOM     35  H   UNL     1      50.299   2.547   5.948  0.00  0.00    +0.000 HD
ENDBRANCH  19  34
BRANCH  21  36
ATOM     36  O   UNL     1      49.491   0.408   8.713  0.00  0.00    +0.000 OA
ATOM     37  C   UNL     1      48.413   0.489   9.612  0.00  0.00    +0.000 C 
ENDBRANCH  21  36
BRANCH  20  38
ATOM     38  O   UNL     1      52.433   2.230  14.871  0.00  0.00    +0.000 OA
BRANCH  38  40
ATOM     39  O   UNL     1      54.374   0.941  14.810  0.00  0.00    +0.000 OA
ATOM     40  C   UNL     1      53.687   1.852  15.233  0.00  0.00    +0.000 C 
ATOM     41  C   UNL     1      54.275   2.620  16.358  0.00  0.00    +0.000 C 
ENDBRANCH  38  40
ENDBRANCH  20  38
BRANCH   6  42
ATOM     42  C   UNL     1      52.594   7.930   6.694  0.00  0.00    +0.000 C 
BRANCH  42  44
ATOM     43  O   UNL     1      54.034   6.636   5.068  0.00  0.00    +0.000 OA
ATOM     44  C   UNL     1      53.757   7.872   5.771  0.00  0.00    +0.000 C 
ATOM     45  C   UNL     1      53.372   7.620   4.386  0.00  0.00    +0.000 C 
ATOM     46  C   UNL     1      55.111   8.511   6.225  0.00  0.00    +0.000 C 
BRANCH  45  47
ATOM     47  C   UNL     1      54.032   8.182   3.246  0.00  0.00    +0.000 C 
ATOM     48  C   UNL     1      54.410   7.305   2.079  0.00  0.00    +0.000 C 
BRANCH  47  49
ATOM     49  C   UNL     1      53.941   9.572   2.980  0.00  0.00    +0.000 C 
ATOM     50  C   UNL     1      53.909  10.757   2.805  0.00  0.00    +0.000 C 
ATOM     51  C   UNL     1      53.932  12.283   2.687  0.00  0.00    +0.000 C 
ENDBRANCH  47  49
ENDBRANCH  45  47
ENDBRANCH  42  44
BRANCH  42  52
ATOM     52  O   UNL     1      51.664   8.962   6.661  0.00  0.00    +0.000 OA
ATOM     53  H   UNL     1      51.920   9.707   7.241  0.00  0.00    +0.000 HD
ENDBRANCH  42  52
ENDBRANCH   6  42
TORSDOF 12
ENDMDL
MODEL 2
REMARK VINA RESULT:      -7.5      1.228      2.250
REMARK  Name = 101808842_CandidaspongiolideB.pdbqt.pdb
REMARK  12 active torsions:
REMARK  status: ('A' for Active; 'I' for Inactive)
REMARK    1  A    between atoms: C_6  and  C_42
REMARK    2  A    between atoms: C_7  and  O_28
REMARK    3  A    between atoms: C_10  and  O_30
REMARK    4  A    between atoms: C_13  and  O_32
REMARK    5  A    between atoms: C_19  and  O_34
REMARK    6  A    between atoms: C_20  and  O_38
REMARK    7  A    between atoms: C_21  and  O_36
REMARK    8  A    between atoms: O_38  and  C_40
REMARK    9  A    between atoms: C_42  and  C_44
REMARK   10  A    between atoms: C_42  and  O_52
REMARK   11  A    between atoms: C_45  and  C_47
REMARK   12  A    between atoms: C_47  and  C_49
REMARK                            x       y       z     vdW  Elec       q    Type
REMARK                         _______ _______ _______ _____ _____    ______ ____
ROOT
ATOM      1  O   UNL     1      52.738   8.177  12.411  0.00  0.00    +0.000 OA
ATOM      2  O   UNL     1      51.294   4.369   6.877  0.00  0.00    +0.000 OA
ATOM      3  O   UNL     1      54.003   6.751   9.114  0.00  0.00    +0.000 OA
ATOM      4  O   UNL     1      52.288   3.586   8.806  0.00  0.00    +0.000 OA
ATOM      5  O   UNL     1      50.460   3.138  11.092  0.00  0.00    +0.000 OA
ATOM      6  C   UNL     1      52.351   6.848   7.458  0.00  0.00    +0.000 C 
ATOM      7  C   UNL     1      51.830   7.633   9.866  0.00  0.00    +0.000 C 
ATOM      8  C   UNL     1      52.837   7.048   8.852  0.00  0.00    +0.000 C 
ATOM      9  C   UNL     1      51.823   5.573   7.105  0.00  0.00    +0.000 C 
ATOM     10  C   UNL     1      51.012   6.508  10.530  0.00  0.00    +0.000 C 
ATOM     11  C   UNL     1      51.107   6.443  11.952  0.00  0.00    +0.000 C 
ATOM     12  C   UNL     1      52.515   8.180  11.081  0.00  0.00    +0.000 C 
ATOM     13  C   UNL     1      51.858   7.154  13.033  0.00  0.00    +0.000 C 
ATOM     14  C   UNL     1      52.715   6.176  13.849  0.00  0.00    +0.000 C 
ATOM     15  C   UNL     1      52.961   4.849  13.387  0.00  0.00    +0.000 C 
ATOM     16  C   UNL     1      53.292   6.429  15.239  0.00  0.00    +0.000 C 
ATOM     17  C   UNL     1      51.519   3.459   7.864  0.00  0.00    +0.000 C 
ATOM     18  C   UNL     1      53.120   3.650  12.918  0.00  0.00    +0.000 C 
ATOM     19  C   UNL     1      50.625   2.288   7.703  0.00  0.00    +0.000 C 
ATOM     20  C   UNL     1      52.270   2.556  13.328  0.00  0.00    +0.000 C 
ATOM     21  C   UNL     1      50.362   1.384   8.805  0.00  0.00    +0.000 C 
ATOM     22  C   UNL     1      51.636   1.575  12.449  0.00  0.00    +0.000 C 
ATOM     23  C   UNL     1      51.207   1.155   9.968  0.00  0.00    +0.000 C 
ATOM     24  C   UNL     1      51.052   2.055  11.153  0.00  0.00    +0.000 C 
ATOM     25  C   UNL     1      54.093   3.496  11.784  0.00  0.00    +0.000 C 
ATOM     26  C   UNL     1      51.146   0.249  13.028  0.00  0.00    +0.000 C 
ATOM     27  C   UNL     1      52.375   0.182   9.841  0.00  0.00    +0.000 C 
ENDROOT
BRANCH   7  28
ATOM     28  O   UNL     1      50.941   8.611   9.367  0.00  0.00    +0.000 OA
ATOM     29  H   UNL     1      50.343   8.150   8.751  0.00  0.00    +0.000 HD
ENDBRANCH   7  28
BRANCH  10  30
ATOM     30  O   UNL     1      50.231   5.638   9.814  0.00  0.00    +0.000 OA
ATOM     31  H   UNL     1      49.636   5.128  10.403  0.00  0.00    +0.000 HD
ENDBRANCH  10  30
BRANCH  13  32
ATOM     32  O   UNL     1      50.906   7.817  13.861  0.00  0.00    +0.000 OA
ATOM     33  H   UNL     1      50.396   8.392  13.267  0.00  0.00    +0.000 HD
ENDBRANCH  13  32
BRANCH  19  34
ATOM     34  O   UNL     1      49.890   2.080   6.551  0.00  0.00    +0.000 OA
ATOM     35  H   UNL     1      49.766   2.894   6.021  0.00  0.00    +0.000 HD
ENDBRANCH  19  34
BRANCH  21  36
ATOM     36  O   UNL     1      49.413   0.410   8.540  0.00  0.00    +0.000 OA
ATOM     37  C   UNL     1      48.389   0.432   9.503  0.00  0.00    +0.000 C 
ENDBRANCH  21  36
BRANCH  20  38
ATOM     38  O   UNL     1      52.303   2.266  14.713  0.00  0.00    +0.000 OA
BRANCH  38  40
ATOM     39  O   UNL     1      54.249   0.985  14.697  0.00  0.00    +0.000 OA
ATOM     40  C   UNL     1      53.551   1.898  15.100  0.00  0.00    +0.000 C 
ATOM     41  C   UNL     1      54.118   2.680  16.226  0.00  0.00    +0.000 C 
ENDBRANCH  38  40
ENDBRANCH  20  38
BRANCH   6  42
ATOM     42  C   UNL     1      52.635   7.869   6.474  0.00  0.00    +0.000 C 
BRANCH  42  44
ATOM     43  O   UNL     1      54.435   8.997   5.103  0.00  0.00    +0.000 OA
ATOM     44  C   UNL     1      53.798   7.776   5.553  0.00  0.00    +0.000 C 
ATOM     45  C   UNL     1      55.026   8.315   6.131  0.00  0.00    +0.000 C 
ATOM     46  C   UNL     1      53.735   6.767   4.359  0.00  0.00    +0.000 C 
BRANCH  45  47
ATOM     47  C   UNL     1      56.334   7.782   5.897  0.00  0.00    +0.000 C 
ATOM     48  C   UNL     1      57.311   8.526   5.023  0.00  0.00    +0.000 C 
BRANCH  47  49
ATOM     49  C   UNL     1      56.892   6.836   6.793  0.00  0.00    +0.000 C 
ATOM     50  C   UNL     1      57.343   6.075   7.602  0.00  0.00    +0.000 C 
ATOM     51  C   UNL     1      57.896   5.189   8.721  0.00  0.00    +0.000 C 
ENDBRANCH  47  49
ENDBRANCH  45  47
ENDBRANCH  42  44
BRANCH  42  52
ATOM     52  O   UNL     1      51.730   8.921   6.431  0.00  0.00    +0.000 OA
ATOM     53  H   UNL     1      50.963   8.724   5.856  0.00  0.00    +0.000 HD
ENDBRANCH  42  52
ENDBRANCH   6  42
TORSDOF 12
ENDMDL
MODEL 3
REMARK VINA RESULT:      -7.0      2.708      8.078
REMARK  Name = 101808842_CandidaspongiolideB.pdbqt.pdb
REMARK  12 active torsions:
REMARK  status: ('A' for Active; 'I' for Inactive)
REMARK    1  A    between atoms: C_6  and  C_42
REMARK    2  A    between atoms: C_7  and  O_28
REMARK    3  A    between atoms: C_10  and  O_30
REMARK    4  A    between atoms: C_13  and  O_32
REMARK    5  A    between atoms: C_19  and  O_34
REMARK    6  A    between atoms: C_20  and  O_38
REMARK    7  A    between atoms: C_21  and  O_36
REMARK    8  A    between atoms: O_38  and  C_40
REMARK    9  A    between atoms: C_42  and  C_44
REMARK   10  A    between atoms: C_42  and  O_52
REMARK   11  A    between atoms: C_45  and  C_47
REMARK   12  A    between atoms: C_47  and  C_49
REMARK                            x       y       z     vdW  Elec       q    Type
REMARK                         _______ _______ _______ _____ _____    ______ ____
ROOT
ATOM      1  O   UNL     1      52.406   6.391   5.683  0.00  0.00    +0.000 OA
ATOM      2  O   UNL     1      52.033   4.643  12.318  0.00  0.00    +0.000 OA
ATOM      3  O   UNL     1      52.123   3.560   8.215  0.00  0.00    +0.000 OA
ATOM      4  O   UNL     1      53.977   4.750  11.079  0.00  0.00    +0.000 OA
ATOM      5  O   UNL     1      55.039   7.473  10.604  0.00  0.00    +0.000 OA
ATOM      6  C   UNL     1      50.683   4.131   9.970  0.00  0.00    +0.000 C 
ATOM      7  C   UNL     1      51.208   5.843   8.104  0.00  0.00    +0.000 C 
ATOM      8  C   UNL     1      51.413   4.437   8.708  0.00  0.00    +0.000 C 
ATOM      9  C   UNL     1      51.353   4.353  11.207  0.00  0.00    +0.000 C 
ATOM     10  C   UNL     1      52.223   6.842   8.695  0.00  0.00    +0.000 C 
ATOM     11  C   UNL     1      53.068   7.487   7.743  0.00  0.00    +0.000 C 
ATOM     12  C   UNL     1      51.623   5.900   6.666  0.00  0.00    +0.000 C 
ATOM     13  C   UNL     1      53.299   7.425   6.266  0.00  0.00    +0.000 C 
ATOM     14  C   UNL     1      54.760   7.071   5.949  0.00  0.00    +0.000 C 
ATOM     15  C   UNL     1      55.633   6.571   6.960  0.00  0.00    +0.000 C 
ATOM     16  C   UNL     1      55.472   7.299   4.619  0.00  0.00    +0.000 C 
ATOM     17  C   UNL     1      53.350   4.921  12.115  0.00  0.00    +0.000 C 
ATOM     18  C   UNL     1      56.376   6.148   7.935  0.00  0.00    +0.000 C 
ATOM     19  C   UNL     1      53.936   5.559  13.317  0.00  0.00    +0.000 C 
ATOM     20  C   UNL     1      57.222   7.044   8.689  0.00  0.00    +0.000 C 
ATOM     21  C   UNL     1      55.171   6.316  13.242  0.00  0.00    +0.000 C 
ATOM     22  C   UNL     1      57.345   7.099  10.144  0.00  0.00    +0.000 C 
ATOM     23  C   UNL     1      56.220   6.178  12.243  0.00  0.00    +0.000 C 
ATOM     24  C   UNL     1      56.100   6.954  10.969  0.00  0.00    +0.000 C 
ATOM     25  C   UNL     1      56.167   4.726   8.371  0.00  0.00    +0.000 C 
ATOM     26  C   UNL     1      58.568   7.764  10.773  0.00  0.00    +0.000 C 
ATOM     27  C   UNL     1      57.257   5.074  12.420  0.00  0.00    +0.000 C 
ENDROOT
BRANCH   7  28
ATOM     28  O   UNL     1      49.909   6.388   8.224  0.00  0.00    +0.000 OA
ATOM     29  H   UNL     1      49.303   5.746   7.811  0.00  0.00    +0.000 HD
ENDBRANCH   7  28
BRANCH  10  30
ATOM     30  O   UNL     1      52.304   7.111  10.037  0.00  0.00    +0.000 OA
ATOM     31  H   UNL     1      53.234   7.103  10.345  0.00  0.00    +0.000 HD
ENDBRANCH  10  30
BRANCH  13  32
ATOM     32  O   UNL     1      52.947   8.692   5.716  0.00  0.00    +0.000 OA
ATOM     33  H   UNL     1      53.782   9.180   5.623  0.00  0.00    +0.000 HD
ENDBRANCH  13  32
BRANCH  19  34
ATOM     34  O   UNL     1      53.271   5.590  14.529  0.00  0.00    +0.000 OA
ATOM     35  H   UNL     1      52.324   5.351  14.455  0.00  0.00    +0.000 HD
ENDBRANCH  19  34
BRANCH  21  36
ATOM     36  O   UNL     1      55.529   6.955  14.418  0.00  0.00    +0.000 OA
ATOM     37  C   UNL     1      55.411   8.350  14.286  0.00  0.00    +0.000 C 
ENDBRANCH  21  36
BRANCH  20  38
ATOM     38  O   UNL     1      58.206   7.716   7.925  0.00  0.00    +0.000 OA
BRANCH  38  40
ATOM     39  O   UNL     1      56.930   9.664   7.991  0.00  0.00    +0.000 OA
ATOM     40  C   UNL     1      57.740   8.912   7.482  0.00  0.00    +0.000 C 
ATOM     41  C   UNL     1      58.241   9.328   6.149  0.00  0.00    +0.000 C 
ENDBRANCH  38  40
ENDBRANCH  20  38
BRANCH   6  42
ATOM     42  C   UNL     1      49.425   3.423   9.885  0.00  0.00    +0.000 C 
BRANCH  42  44
ATOM     43  O   UNL     1      48.124   1.332   9.309  0.00  0.00    +0.000 OA
ATOM     44  C   UNL     1      49.359   1.943   9.755  0.00  0.00    +0.000 C 
ATOM     45  C   UNL     1      49.119   1.503   8.385  0.00  0.00    +0.000 C 
ATOM     46  C   UNL     1      49.982   1.060  10.887  0.00  0.00    +0.000 C 
BRANCH  45  47
ATOM     47  C   UNL     1      49.680   0.321   7.803  0.00  0.00    +0.000 C 
ATOM     48  C   UNL     1      49.320  -1.038   8.348  0.00  0.00    +0.000 C 
BRANCH  47  49
ATOM     49  C   UNL     1      50.192   0.348   6.482  0.00  0.00    +0.000 C 
ATOM     50  C   UNL     1      50.581   0.420   5.350  0.00  0.00    +0.000 C 
ATOM     51  C   UNL     1      50.982   0.587   3.882  0.00  0.00    +0.000 C 
ENDBRANCH  47  49
ENDBRANCH  45  47
ENDBRANCH  42  44
BRANCH  42  52
ATOM     52  O   UNL     1      48.289   4.218   9.965  0.00  0.00    +0.000 OA
ATOM     53  H   UNL     1      47.987   4.337  10.888  0.00  0.00    +0.000 HD
ENDBRANCH  42  52
ENDBRANCH   6  42
TORSDOF 12
ENDMDL
MODEL 4
REMARK VINA RESULT:      -6.6      2.681      7.097
REMARK  Name = 101808842_CandidaspongiolideB.pdbqt.pdb
REMARK  12 active torsions:
REMARK  status: ('A' for Active; 'I' for Inactive)
REMARK    1  A    between atoms: C_6  and  C_42
REMARK    2  A    between atoms: C_7  and  O_28
REMARK    3  A    between atoms: C_10  and  O_30
REMARK    4  A    between atoms: C_13  and  O_32
REMARK    5  A    between atoms: C_19  and  O_34
REMARK    6  A    between atoms: C_20  and  O_38
REMARK    7  A    between atoms: C_21  and  O_36
REMARK    8  A    between atoms: O_38  and  C_40
REMARK    9  A    between atoms: C_42  and  C_44
REMARK   10  A    between atoms: C_42  and  O_52
REMARK   11  A    between atoms: C_45  and  C_47
REMARK   12  A    between atoms: C_47  and  C_49
REMARK                            x       y       z     vdW  Elec       q    Type
REMARK                         _______ _______ _______ _____ _____    ______ ____
ROOT
ATOM      1  O   UNL     1      55.666   7.011   6.113  0.00  0.00    +0.000 OA
ATOM      2  O   UNL     1      50.567   4.016   9.611  0.00  0.00    +0.000 OA
ATOM      3  O   UNL     1      54.150   3.745   7.353  0.00  0.00    +0.000 OA
ATOM      4  O   UNL     1      52.607   4.627  10.499  0.00  0.00    +0.000 OA
ATOM      5  O   UNL     1      52.935   7.513  11.074  0.00  0.00    +0.000 OA
ATOM      6  C   UNL     1      51.817   3.767   7.167  0.00  0.00    +0.000 C 
ATOM      7  C   UNL     1      53.197   5.855   6.517  0.00  0.00    +0.000 C 
ATOM      8  C   UNL     1      53.158   4.405   7.044  0.00  0.00    +0.000 C 
ATOM      9  C   UNL     1      51.146   3.846   8.421  0.00  0.00    +0.000 C 
ATOM     10  C   UNL     1      53.052   6.859   7.678  0.00  0.00    +0.000 C 
ATOM     11  C   UNL     1      54.129   7.784   7.822  0.00  0.00    +0.000 C 
ATOM     12  C   UNL     1      54.563   6.239   6.037  0.00  0.00    +0.000 C 
ATOM     13  C   UNL     1      55.452   8.034   7.170  0.00  0.00    +0.000 C 
ATOM     14  C   UNL     1      56.596   7.955   8.191  0.00  0.00    +0.000 C 
ATOM     15  C   UNL     1      56.389   7.404   9.490  0.00  0.00    +0.000 C 
ATOM     16  C   UNL     1      58.000   8.527   8.014  0.00  0.00    +0.000 C 
ATOM     17  C   UNL     1      51.392   4.510  10.575  0.00  0.00    +0.000 C 
ATOM     18  C   UNL     1      56.119   6.915  10.661  0.00  0.00    +0.000 C 
ATOM     19  C   UNL     1      50.606   4.989  11.736  0.00  0.00    +0.000 C 
ATOM     20  C   UNL     1      55.774   7.765  11.777  0.00  0.00    +0.000 C 
ATOM     21  C   UNL     1      51.171   5.913  12.699  0.00  0.00    +0.000 C 
ATOM     22  C   UNL     1      54.666   7.562  12.708  0.00  0.00    +0.000 C 
ATOM     23  C   UNL     1      52.582   6.115  12.992  0.00  0.00    +0.000 C 
ATOM     24  C   UNL     1      53.352   7.091  12.158  0.00  0.00    +0.000 C 
ATOM     25  C   UNL     1      55.989   5.421  10.751  0.00  0.00    +0.000 C 
ATOM     26  C   UNL     1      54.683   8.264  14.065  0.00  0.00    +0.000 C 
ATOM     27  C   UNL     1      53.273   5.155  13.954  0.00  0.00    +0.000 C 
ENDROOT
BRANCH   7  28
ATOM     28  O   UNL     1      52.255   6.178   5.514  0.00  0.00    +0.000 OA
ATOM     29  H   UNL     1      52.581   6.989   5.081  0.00  0.00    +0.000 HD
ENDBRANCH   7  28
BRANCH  10  30
ATOM     30  O   UNL     1      51.961   6.880   8.508  0.00  0.00    +0.000 OA
ATOM     31  H   UNL     1      51.145   6.626   8.028  0.00  0.00    +0.000 HD
ENDBRANCH  10  30
BRANCH  13  32
ATOM     32  O   UNL     1      55.400   9.318   6.555  0.00  0.00    +0.000 OA
ATOM     33  H   UNL     1      56.307   9.661   6.583  0.00  0.00    +0.000 HD
ENDBRANCH  13  32
BRANCH  19  34
ATOM     34  O   UNL     1      49.262   4.698  11.881  0.00  0.00    +0.000 OA
ATOM     35  H   UNL     1      48.738   5.455  12.215  0.00  0.00    +0.000 HD
ENDBRANCH  19  34
BRANCH  21  36
ATOM     36  O   UNL     1      50.279   6.365  13.658  0.00  0.00    +0.000 OA
ATOM     37  C   UNL     1      50.755   7.537  14.273  0.00  0.00    +0.000 C 
ENDBRANCH  21  36
BRANCH  20  38
ATOM     38  O   UNL     1      56.772   8.700  12.142  0.00  0.00    +0.000 OA
BRANCH  38  40
ATOM     39  O   UNL     1      57.974   7.286  13.552  0.00  0.00    +0.000 OA
ATOM     40  C   UNL     1      57.873   8.067  12.624  0.00  0.00    +0.000 C 
ATOM     41  C   UNL     1      59.149   8.435  11.963  0.00  0.00    +0.000 C 
ENDBRANCH  38  40
ENDBRANCH  20  38
BRANCH   6  42
ATOM     42  C   UNL     1      51.355   2.917   6.093  0.00  0.00    +0.000 C 
BRANCH  42  44
ATOM     43  O   UNL     1      51.239   0.431   5.646  0.00  0.00    +0.000 OA
ATOM     44  C   UNL     1      50.731   1.592   6.348  0.00  0.00    +0.000 C 
ATOM     45  C   UNL     1      51.659   0.629   6.933  0.00  0.00    +0.000 C 
ATOM     46  C   UNL     1      49.171   1.496   6.423  0.00  0.00    +0.000 C 
BRANCH  45  47
ATOM     47  C   UNL     1      51.296  -0.362   7.900  0.00  0.00    +0.000 C 
ATOM     48  C   UNL     1      51.580  -1.819   7.636  0.00  0.00    +0.000 C 
BRANCH  47  49
ATOM     49  C   UNL     1      51.097  -0.000   9.256  0.00  0.00    +0.000 C 
ATOM     50  C   UNL     1      50.871   0.335  10.384  0.00  0.00    +0.000 C 
ATOM     51  C   UNL     1      50.488   0.832  11.781  0.00  0.00    +0.000 C 
ENDBRANCH  47  49
ENDBRANCH  45  47
ENDBRANCH  42  44
BRANCH  42  52
ATOM     52  O   UNL     1      51.507   3.438   4.815  0.00  0.00    +0.000 OA
ATOM     53  H   UNL     1      52.447   3.500   4.551  0.00  0.00    +0.000 HD
ENDBRANCH  42  52
ENDBRANCH   6  42
TORSDOF 12
ENDMDL
MODEL 5
REMARK VINA RESULT:      -6.4      3.784      7.782
REMARK  Name = 101808842_CandidaspongiolideB.pdbqt.pdb
REMARK  12 active torsions:
REMARK  status: ('A' for Active; 'I' for Inactive)
REMARK    1  A    between atoms: C_6  and  C_42
REMARK    2  A    between atoms: C_7  and  O_28
REMARK    3  A    between atoms: C_10  and  O_30
REMARK    4  A    between atoms: C_13  and  O_32
REMARK    5  A    between atoms: C_19  and  O_34
REMARK    6  A    between atoms: C_20  and  O_38
REMARK    7  A    between atoms: C_21  and  O_36
REMARK    8  A    between atoms: O_38  and  C_40
REMARK    9  A    between atoms: C_42  and  C_44
REMARK   10  A    between atoms: C_42  and  O_52
REMARK   11  A    between atoms: C_45  and  C_47
REMARK   12  A    between atoms: C_47  and  C_49
REMARK                            x       y       z     vdW  Elec       q    Type
REMARK                         _______ _______ _______ _____ _____    ______ ____
ROOT
ATOM      1  O   UNL     1      55.666   4.698   4.024  0.00  0.00    +0.000 OA
ATOM      2  O   UNL     1      50.097   1.196   6.008  0.00  0.00    +0.000 OA
ATOM      3  O   UNL     1      54.077   1.275   4.534  0.00  0.00    +0.000 OA
ATOM      4  O   UNL     1      51.882   1.735   7.368  0.00  0.00    +0.000 OA
ATOM      5  O   UNL     1      51.955   4.535   8.328  0.00  0.00    +0.000 OA
ATOM      6  C   UNL     1      51.833   1.272   3.868  0.00  0.00    +0.000 C 
ATOM      7  C   UNL     1      53.221   3.452   3.766  0.00  0.00    +0.000 C 
ATOM      8  C   UNL     1      53.140   1.947   4.102  0.00  0.00    +0.000 C 
ATOM      9  C   UNL     1      50.916   1.184   4.954  0.00  0.00    +0.000 C 
ATOM     10  C   UNL     1      52.796   4.303   4.979  0.00  0.00    +0.000 C 
ATOM     11  C   UNL     1      53.778   5.225   5.450  0.00  0.00    +0.000 C 
ATOM     12  C   UNL     1      54.638   3.919   3.630  0.00  0.00    +0.000 C 
ATOM     13  C   UNL     1      55.194   5.579   5.123  0.00  0.00    +0.000 C 
ATOM     14  C   UNL     1      56.107   5.400   6.345  0.00  0.00    +0.000 C 
ATOM     15  C   UNL     1      55.661   4.690   7.499  0.00  0.00    +0.000 C 
ATOM     16  C   UNL     1      57.489   6.017   6.533  0.00  0.00    +0.000 C 
ATOM     17  C   UNL     1      50.684   1.586   7.173  0.00  0.00    +0.000 C 
ATOM     18  C   UNL     1      55.180   4.056   8.524  0.00  0.00    +0.000 C 
ATOM     19  C   UNL     1      49.655   1.903   8.191  0.00  0.00    +0.000 C 
ATOM     20  C   UNL     1      54.575   4.756   9.633  0.00  0.00    +0.000 C 
ATOM     21  C   UNL     1      49.968   2.713   9.352  0.00  0.00    +0.000 C 
ATOM     22  C   UNL     1      53.309   4.419  10.282  0.00  0.00    +0.000 C 
ATOM     23  C   UNL     1      51.279   2.907   9.954  0.00  0.00    +0.000 C 
ATOM     24  C   UNL     1      52.159   3.992   9.419  0.00  0.00    +0.000 C 
ATOM     25  C   UNL     1      55.101   2.560   8.412  0.00  0.00    +0.000 C 
ATOM     26  C   UNL     1      53.015   4.951  11.684  0.00  0.00    +0.000 C 
ATOM     27  C   UNL     1      51.800   1.851  10.923  0.00  0.00    +0.000 C 
ENDROOT
BRANCH   7  28
ATOM     28  O   UNL     1      52.492   3.876   2.632  0.00  0.00    +0.000 OA
ATOM     29  H   UNL     1      51.933   4.618   2.926  0.00  0.00    +0.000 HD
ENDBRANCH   7  28
BRANCH  10  30
ATOM     30  O   UNL     1      51.558   4.201   5.559  0.00  0.00    +0.000 OA
ATOM     31  H   UNL     1      51.611   3.764   6.434  0.00  0.00    +0.000 HD
ENDBRANCH  10  30
BRANCH  13  32
ATOM     32  O   UNL     1      55.211   6.928   4.663  0.00  0.00    +0.000 OA
ATOM     33  H   UNL     1      55.472   7.464   5.429  0.00  0.00    +0.000 HD
ENDBRANCH  13  32
BRANCH  19  34
ATOM     34  O   UNL     1      48.325   1.569   8.018  0.00  0.00    +0.000 OA
ATOM     35  H   UNL     1      48.087   0.710   8.423  0.00  0.00    +0.000 HD
ENDBRANCH  19  34
BRANCH  21  36
ATOM     36  O   UNL     1      48.879   3.027  10.149  0.00  0.00    +0.000 OA
ATOM     37  C   UNL     1      48.822   4.410  10.398  0.00  0.00    +0.000 C 
ENDBRANCH  21  36
BRANCH  20  38
ATOM     38  O   UNL     1      55.433   5.660  10.305  0.00  0.00    +0.000 OA
BRANCH  38  40
ATOM     39  O   UNL     1      54.346   7.439   9.264  0.00  0.00    +0.000 OA
ATOM     40  C   UNL     1      55.306   6.913   9.798  0.00  0.00    +0.000 C 
ATOM     41  C   UNL     1      56.539   7.737   9.839  0.00  0.00    +0.000 C 
ENDBRANCH  38  40
ENDBRANCH  20  38
BRANCH   6  42
ATOM     42  C   UNL     1      51.641   0.550   2.630  0.00  0.00    +0.000 C 
BRANCH  42  44
ATOM     43  O   UNL     1      51.574  -1.869   1.899  0.00  0.00    +0.000 OA
ATOM     44  C   UNL     1      50.941  -0.760   2.582  0.00  0.00    +0.000 C 
ATOM     45  C   UNL     1      51.674  -1.822   3.262  0.00  0.00    +0.000 C 
ATOM     46  C   UNL     1      49.407  -0.784   2.271  0.00  0.00    +0.000 C 
BRANCH  45  47
ATOM     47  C   UNL     1      51.062  -2.886   3.999  0.00  0.00    +0.000 C 
ATOM     48  C   UNL     1      51.268  -4.319   3.576  0.00  0.00    +0.000 C 
BRANCH  47  49
ATOM     49  C   UNL     1      50.653  -2.684   5.342  0.00  0.00    +0.000 C 
ATOM     50  C   UNL     1      50.276  -2.456   6.456  0.00  0.00    +0.000 C 
ATOM     51  C   UNL     1      49.758  -2.054   7.840  0.00  0.00    +0.000 C 
ENDBRANCH  47  49
ENDBRANCH  45  47
ENDBRANCH  42  44
BRANCH  42  52
ATOM     52  O   UNL     1      52.126   1.181   1.492  0.00  0.00    +0.000 OA
ATOM     53  H   UNL     1      52.842   1.815   1.700  0.00  0.00    +0.000 HD
ENDBRANCH  42  52
ENDBRANCH   6  42
TORSDOF 12
ENDMDL
MODEL 6
REMARK VINA RESULT:      -6.4      3.630      6.340
REMARK  Name = 101808842_CandidaspongiolideB.pdbqt.pdb
REMARK  12 active torsions:
REMARK  status: ('A' for Active; 'I' for Inactive)
REMARK    1  A    between atoms: C_6  and  C_42
REMARK    2  A    between atoms: C_7  and  O_28
REMARK    3  A    between atoms: C_10  and  O_30
REMARK    4  A    between atoms: C_13  and  O_32
REMARK    5  A    between atoms: C_19  and  O_34
REMARK    6  A    between atoms: C_20  and  O_38
REMARK    7  A    between atoms: C_21  and  O_36
REMARK    8  A    between atoms: O_38  and  C_40
REMARK    9  A    between atoms: C_42  and  C_44
REMARK   10  A    between atoms: C_42  and  O_52
REMARK   11  A    between atoms: C_45  and  C_47
REMARK   12  A    between atoms: C_47  and  C_49
REMARK                            x       y       z     vdW  Elec       q    Type
REMARK                         _______ _______ _______ _____ _____    ______ ____
ROOT
ATOM      1  O   UNL     1      52.837   6.866  10.062  0.00  0.00    +0.000 OA
ATOM      2  O   UNL     1      51.132   0.531  12.107  0.00  0.00    +0.000 OA
ATOM      3  O   UNL     1      52.399   3.215   9.072  0.00  0.00    +0.000 OA
ATOM      4  O   UNL     1      53.277   1.379  12.058  0.00  0.00    +0.000 OA
ATOM      5  O   UNL     1      53.974   3.218  14.272  0.00  0.00    +0.000 OA
ATOM      6  C   UNL     1      50.500   2.285  10.076  0.00  0.00    +0.000 C 
ATOM      7  C   UNL     1      51.185   4.724  10.592  0.00  0.00    +0.000 C 
ATOM      8  C   UNL     1      51.459   3.401   9.845  0.00  0.00    +0.000 C 
ATOM      9  C   UNL     1      50.801   1.338  11.096  0.00  0.00    +0.000 C 
ATOM     10  C   UNL     1      51.851   4.710  11.983  0.00  0.00    +0.000 C 
ATOM     11  C   UNL     1      52.789   5.760  12.220  0.00  0.00    +0.000 C 
ATOM     12  C   UNL     1      51.927   5.874   9.982  0.00  0.00    +0.000 C 
ATOM     13  C   UNL     1      53.383   6.893  11.444  0.00  0.00    +0.000 C 
ATOM     14  C   UNL     1      54.914   6.783  11.387  0.00  0.00    +0.000 C 
ATOM     15  C   UNL     1      55.581   5.579  11.764  0.00  0.00    +0.000 C 
ATOM     16  C   UNL     1      55.885   7.911  11.053  0.00  0.00    +0.000 C 
ATOM     17  C   UNL     1      52.397   0.709  12.578  0.00  0.00    +0.000 C 
ATOM     18  C   UNL     1      56.120   4.463  12.148  0.00  0.00    +0.000 C 
ATOM     19  C   UNL     1      52.560   0.041  13.890  0.00  0.00    +0.000 C 
ATOM     20  C   UNL     1      56.599   4.278  13.498  0.00  0.00    +0.000 C 
ATOM     21  C   UNL     1      53.637   0.401  14.791  0.00  0.00    +0.000 C 
ATOM     22  C   UNL     1      56.351   3.118  14.353  0.00  0.00    +0.000 C 
ATOM     23  C   UNL     1      54.908   1.014  14.432  0.00  0.00    +0.000 C 
ATOM     24  C   UNL     1      54.981   2.506  14.339  0.00  0.00    +0.000 C 
ATOM     25  C   UNL     1      56.040   3.313  11.186  0.00  0.00    +0.000 C 
ATOM     26  C   UNL     1      57.259   2.858  15.554  0.00  0.00    +0.000 C 
ATOM     27  C   UNL     1      56.032   0.118  13.924  0.00  0.00    +0.000 C 
ENDROOT
BRANCH   7  28
ATOM     28  O   UNL     1      49.827   5.086  10.739  0.00  0.00    +0.000 OA
ATOM     29  H   UNL     1      49.465   5.168   9.838  0.00  0.00    +0.000 HD
ENDBRANCH   7  28
BRANCH  10  30
ATOM     30  O   UNL     1      51.556   3.771  12.937  0.00  0.00    +0.000 OA
ATOM     31  H   UNL     1      51.025   3.038  12.561  0.00  0.00    +0.000 HD
ENDBRANCH  10  30
BRANCH  13  32
ATOM     32  O   UNL     1      52.979   8.108  12.069  0.00  0.00    +0.000 OA
ATOM     33  H   UNL     1      52.841   7.890  13.005  0.00  0.00    +0.000 HD
ENDBRANCH  13  32
BRANCH  19  34
ATOM     34  O   UNL     1      51.621  -0.847  14.382  0.00  0.00    +0.000 OA
ATOM     35  H   UNL     1      51.425  -0.713  15.332  0.00  0.00    +0.000 HD
ENDBRANCH  19  34
BRANCH  21  36
ATOM     36  O   UNL     1      53.589  -0.220  16.028  0.00  0.00    +0.000 OA
ATOM     37  C   UNL     1      53.359   0.717  17.051  0.00  0.00    +0.000 C 
ENDBRANCH  21  36
BRANCH  20  38
ATOM     38  O   UNL     1      57.620   5.174  13.895  0.00  0.00    +0.000 OA
BRANCH  38  40
ATOM     39  O   UNL     1      57.432   7.485  14.129  0.00  0.00    +0.000 OA
ATOM     40  C   UNL     1      57.090   6.338  14.351  0.00  0.00    +0.000 C 
ATOM     41  C   UNL     1      55.974   6.185  15.316  0.00  0.00    +0.000 C 
ENDBRANCH  38  40
ENDBRANCH  20  38
BRANCH   6  42
ATOM     42  C   UNL     1      49.431   2.084   9.122  0.00  0.00    +0.000 C 
BRANCH  42  44
ATOM     43  O   UNL     1      48.829   1.379   6.770  0.00  0.00    +0.000 OA
ATOM     44  C   UNL     1      49.547   1.116   8.000  0.00  0.00    +0.000 C 
ATOM     45  C   UNL     1      50.159   1.696   6.809  0.00  0.00    +0.000 C 
ATOM     46  C   UNL     1      49.469  -0.415   8.315  0.00  0.00    +0.000 C 
BRANCH  45  47
ATOM     47  C   UNL     1      51.026   0.989   5.916  0.00  0.00    +0.000 C 
ATOM     48  C   UNL     1      52.352   0.462   6.404  0.00  0.00    +0.000 C 
BRANCH  47  49
ATOM     49  C   UNL     1      50.507   0.384   4.744  0.00  0.00    +0.000 C 
ATOM     50  C   UNL     1      50.132  -0.143   3.735  0.00  0.00    +0.000 C 
ATOM     51  C   UNL     1      49.771  -0.824   2.411  0.00  0.00    +0.000 C 
ENDBRANCH  47  49
ENDBRANCH  45  47
ENDBRANCH  42  44
BRANCH  42  52
ATOM     52  O   UNL     1      48.284   2.833   9.348  0.00  0.00    +0.000 OA
ATOM     53  H   UNL     1      47.611   2.695   8.652  0.00  0.00    +0.000 HD
ENDBRANCH  42  52
ENDBRANCH   6  42
TORSDOF 12
ENDMDL
MODEL 7
REMARK VINA RESULT:      -6.4     20.960     24.800
REMARK  Name = 101808842_CandidaspongiolideB.pdbqt.pdb
REMARK  12 active torsions:
REMARK  status: ('A' for Active; 'I' for Inactive)
REMARK    1  A    between atoms: C_6  and  C_42
REMARK    2  A    between atoms: C_7  and  O_28
REMARK    3  A    between atoms: C_10  and  O_30
REMARK    4  A    between atoms: C_13  and  O_32
REMARK    5  A    between atoms: C_19  and  O_34
REMARK    6  A    between atoms: C_20  and  O_38
REMARK    7  A    between atoms: C_21  and  O_36
REMARK    8  A    between atoms: O_38  and  C_40
REMARK    9  A    between atoms: C_42  and  C_44
REMARK   10  A    between atoms: C_42  and  O_52
REMARK   11  A    between atoms: C_45  and  C_47
REMARK   12  A    between atoms: C_47  and  C_49
REMARK                            x       y       z     vdW  Elec       q    Type
REMARK                         _______ _______ _______ _____ _____    ______ ____
ROOT
ATOM      1  O   UNL     1      44.128   1.054  -8.900  0.00  0.00    +0.000 OA
ATOM      2  O   UNL     1      37.400   0.216 -10.016  0.00  0.00    +0.000 OA
ATOM      3  O   UNL     1      40.890   2.628 -10.141  0.00  0.00    +0.000 OA
ATOM      4  O   UNL     1      39.060  -0.136 -11.579  0.00  0.00    +0.000 OA
ATOM      5  O   UNL     1      40.563  -2.671 -11.296  0.00  0.00    +0.000 OA
ATOM      6  C   UNL     1      39.079   2.025  -8.787  0.00  0.00    +0.000 C 
ATOM      7  C   UNL     1      41.434   1.065  -8.318  0.00  0.00    +0.000 C 
ATOM      8  C   UNL     1      40.515   1.962  -9.176  0.00  0.00    +0.000 C 
ATOM      9  C   UNL     1      38.170   1.128  -9.418  0.00  0.00    +0.000 C 
ATOM     10  C   UNL     1      41.436  -0.381  -8.853  0.00  0.00    +0.000 C 
ATOM     11  C   UNL     1      42.715  -0.889  -9.229  0.00  0.00    +0.000 C 
ATOM     12  C   UNL     1      42.881   1.397  -8.516  0.00  0.00    +0.000 C 
ATOM     13  C   UNL     1      44.117  -0.375  -9.310  0.00  0.00    +0.000 C 
ATOM     14  C   UNL     1      44.671  -0.497 -10.737  0.00  0.00    +0.000 C 
ATOM     15  C   UNL     1      43.809  -0.770 -11.841  0.00  0.00    +0.000 C 
ATOM     16  C   UNL     1      46.143  -0.461 -11.137  0.00  0.00    +0.000 C 
ATOM     17  C   UNL     1      37.998  -0.433 -11.053  0.00  0.00    +0.000 C 
ATOM     18  C   UNL     1      42.971  -1.048 -12.791  0.00  0.00    +0.000 C 
ATOM     19  C   UNL     1      37.222  -1.640 -11.424  0.00  0.00    +0.000 C 
ATOM     20  C   UNL     1      42.750  -2.404 -13.236  0.00  0.00    +0.000 C 
ATOM     21  C   UNL     1      37.822  -2.714 -12.192  0.00  0.00    +0.000 C 
ATOM     22  C   UNL     1      41.454  -3.037 -13.474  0.00  0.00    +0.000 C 
ATOM     23  C   UNL     1      38.966  -2.615 -13.086  0.00  0.00    +0.000 C 
ATOM     24  C   UNL     1      40.339  -2.758 -12.509  0.00  0.00    +0.000 C 
ATOM     25  C   UNL     1      42.099   0.079 -13.267  0.00  0.00    +0.000 C 
ATOM     26  C   UNL     1      41.374  -4.290 -14.343  0.00  0.00    +0.000 C 
ATOM     27  C   UNL     1      38.738  -2.125 -14.512  0.00  0.00    +0.000 C 
ENDROOT
BRANCH   7  28
ATOM     28  O   UNL     1      41.159   1.039  -6.932  0.00  0.00    +0.000 OA
ATOM     29  H   UNL     1      41.085   1.969  -6.649  0.00  0.00    +0.000 HD
ENDBRANCH   7  28
BRANCH  10  30
ATOM     30  O   UNL     1      40.297  -1.138  -8.948  0.00  0.00    +0.000 OA
ATOM     31  H   UNL     1      39.797  -0.927  -9.765  0.00  0.00    +0.000 HD
ENDBRANCH  10  30
BRANCH  13  32
ATOM     32  O   UNL     1      44.908  -1.118  -8.387  0.00  0.00    +0.000 OA
ATOM     33  H   UNL     1      44.371  -1.887  -8.140  0.00  0.00    +0.000 HD
ENDBRANCH  13  32
BRANCH  19  34
ATOM     34  O   UNL     1      35.948  -1.870 -10.941  0.00  0.00    +0.000 OA
ATOM     35  H   UNL     1      35.345  -1.108 -11.065  0.00  0.00    +0.000 HD
ENDBRANCH  19  34
BRANCH  21  36
ATOM     36  O   UNL     1      37.015  -3.828 -12.356  0.00  0.00    +0.000 OA
ATOM     37  C   UNL     1      37.487  -4.907 -11.588  0.00  0.00    +0.000 C 
ENDBRANCH  21  36
BRANCH  20  38
ATOM     38  O   UNL     1      43.898  -3.057 -13.745  0.00  0.00    +0.000 OA
BRANCH  38  40
ATOM     39  O   UNL     1      43.809  -2.162 -15.895  0.00  0.00    +0.000 OA
ATOM     40  C   UNL     1      44.370  -2.415 -14.845  0.00  0.00    +0.000 C 
ATOM     41  C   UNL     1      45.800  -2.025 -14.780  0.00  0.00    +0.000 C 
ENDBRANCH  38  40
ENDBRANCH  20  38
BRANCH   6  42
ATOM     42  C   UNL     1      38.635   3.126  -7.961  0.00  0.00    +0.000 C 
BRANCH  42  44
ATOM     43  O   UNL     1      36.287   3.999  -8.307  0.00  0.00    +0.000 OA
ATOM     44  C   UNL     1      37.715   4.175  -8.473  0.00  0.00    +0.000 C 
ATOM     45  C   UNL     1      36.934   4.812  -7.417  0.00  0.00    +0.000 C 
ATOM     46  C   UNL     1      37.989   4.793  -9.885  0.00  0.00    +0.000 C 
BRANCH  45  47
ATOM     47  C   UNL     1      36.563   6.194  -7.405  0.00  0.00    +0.000 C 
ATOM     48  C   UNL     1      35.158   6.606  -7.766  0.00  0.00    +0.000 C 
BRANCH  47  49
ATOM     49  C   UNL     1      37.313   7.130  -6.649  0.00  0.00    +0.000 C 
ATOM     50  C   UNL     1      37.889   7.951  -5.992  0.00  0.00    +0.000 C 
ATOM     51  C   UNL     1      38.516   9.059  -5.141  0.00  0.00    +0.000 C 
ENDBRANCH  47  49
ENDBRANCH  45  47
ENDBRANCH  42  44
BRANCH  42  52
ATOM     52  O   UNL     1      39.101   3.113  -6.653  0.00  0.00    +0.000 OA
ATOM     53  H   UNL     1      38.441   2.749  -6.030  0.00  0.00    +0.000 HD
ENDBRANCH  42  52
ENDBRANCH   6  42
TORSDOF 12
ENDMDL
MODEL 8
REMARK VINA RESULT:      -6.4      2.331      3.889
REMARK  Name = 101808842_CandidaspongiolideB.pdbqt.pdb
REMARK  12 active torsions:
REMARK  status: ('A' for Active; 'I' for Inactive)
REMARK    1  A    between atoms: C_6  and  C_42
REMARK    2  A    between atoms: C_7  and  O_28
REMARK    3  A    between atoms: C_10  and  O_30
REMARK    4  A    between atoms: C_13  and  O_32
REMARK    5  A    between atoms: C_19  and  O_34
REMARK    6  A    between atoms: C_20  and  O_38
REMARK    7  A    between atoms: C_21  and  O_36
REMARK    8  A    between atoms: O_38  and  C_40
REMARK    9  A    between atoms: C_42  and  C_44
REMARK   10  A    between atoms: C_42  and  O_52
REMARK   11  A    between atoms: C_45  and  C_47
REMARK   12  A    between atoms: C_47  and  C_49
REMARK                            x       y       z     vdW  Elec       q    Type
REMARK                         _______ _______ _______ _____ _____    ______ ____
ROOT
ATOM      1  O   UNL     1      52.626   6.805  10.807  0.00  0.00    +0.000 OA
ATOM      2  O   UNL     1      52.871   5.108   4.154  0.00  0.00    +0.000 OA
ATOM      3  O   UNL     1      54.777   6.508   7.679  0.00  0.00    +0.000 OA
ATOM      4  O   UNL     1      53.370   3.692   5.905  0.00  0.00    +0.000 OA
ATOM      5  O   UNL     1      51.037   2.580   7.351  0.00  0.00    +0.000 OA
ATOM      6  C   UNL     1      53.609   7.212   5.776  0.00  0.00    +0.000 C 
ATOM      7  C   UNL     1      52.440   7.172   8.082  0.00  0.00    +0.000 C 
ATOM      8  C   UNL     1      53.705   6.919   7.233  0.00  0.00    +0.000 C 
ATOM      9  C   UNL     1      53.259   6.147   4.896  0.00  0.00    +0.000 C 
ATOM     10  C   UNL     1      51.538   5.922   8.098  0.00  0.00    +0.000 C 
ATOM     11  C   UNL     1      51.264   5.385   9.391  0.00  0.00    +0.000 C 
ATOM     12  C   UNL     1      52.756   7.258   9.543  0.00  0.00    +0.000 C 
ATOM     13  C   UNL     1      51.669   5.668  10.803  0.00  0.00    +0.000 C 
ATOM     14  C   UNL     1      52.335   4.442  11.445  0.00  0.00    +0.000 C 
ATOM     15  C   UNL     1      52.763   3.336  10.652  0.00  0.00    +0.000 C 
ATOM     16  C   UNL     1      52.517   4.198  12.940  0.00  0.00    +0.000 C 
ATOM     17  C   UNL     1      52.880   3.914   4.807  0.00  0.00    +0.000 C 
ATOM     18  C   UNL     1      53.101   2.356   9.873  0.00  0.00    +0.000 C 
ATOM     19  C   UNL     1      52.122   2.898   4.040  0.00  0.00    +0.000 C 
ATOM     20  C   UNL     1      52.232   1.221   9.662  0.00  0.00    +0.000 C 
ATOM     21  C   UNL     1      51.629   1.690   4.673  0.00  0.00    +0.000 C 
ATOM     22  C   UNL     1      51.901   0.612   8.374  0.00  0.00    +0.000 C 
ATOM     23  C   UNL     1      52.154   1.056   5.873  0.00  0.00    +0.000 C 
ATOM     24  C   UNL     1      51.649   1.517   7.204  0.00  0.00    +0.000 C 
ATOM     25  C   UNL     1      54.341   2.550   9.049  0.00  0.00    +0.000 C 
ATOM     26  C   UNL     1      51.348  -0.811   8.333  0.00  0.00    +0.000 C 
ATOM     27  C   UNL     1      53.364   0.137   5.743  0.00  0.00    +0.000 C 
ENDROOT
BRANCH   7  28
ATOM     28  O   UNL     1      51.661   8.293   7.718  0.00  0.00    +0.000 OA
ATOM     29  H   UNL     1      51.839   8.458   6.774  0.00  0.00    +0.000 HD
ENDBRANCH   7  28
BRANCH  10  30
ATOM     30  O   UNL     1      51.016   5.370   6.956  0.00  0.00    +0.000 OA
ATOM     31  H   UNL     1      50.446   4.599   7.163  0.00  0.00    +0.000 HD
ENDBRANCH  10  30
BRANCH  13  32
ATOM     32  O   UNL     1      50.502   6.054  11.522  0.00  0.00    +0.000 OA
ATOM     33  H   UNL     1      49.969   5.248  11.612  0.00  0.00    +0.000 HD
ENDBRANCH  13  32
BRANCH  19  34
ATOM     34  O   UNL     1      51.724   3.112   2.734  0.00  0.00    +0.000 OA
ATOM     35  H   UNL     1      51.451   4.037   2.561  0.00  0.00    +0.000 HD
ENDBRANCH  19  34
BRANCH  21  36
ATOM     36  O   UNL     1      50.834   0.896   3.862  0.00  0.00    +0.000 OA
ATOM     37  C   UNL     1      51.613  -0.036   3.153  0.00  0.00    +0.000 C 
ENDBRANCH  21  36
BRANCH  20  38
ATOM     38  O   UNL     1      51.919   0.486  10.830  0.00  0.00    +0.000 OA
BRANCH  38  40
ATOM     39  O   UNL     1      49.808   1.473  10.815  0.00  0.00    +0.000 OA
ATOM     40  C   UNL     1      50.734   0.895  11.353  0.00  0.00    +0.000 C 
ATOM     41  C   UNL     1      50.576   0.664  12.810  0.00  0.00    +0.000 C 
ENDBRANCH  38  40
ENDBRANCH  20  38
BRANCH   6  42
ATOM     42  C   UNL     1      54.085   8.490   5.295  0.00  0.00    +0.000 C 
BRANCH  42  44
ATOM     43  O   UNL     1      54.772   9.866   3.288  0.00  0.00    +0.000 OA
ATOM     44  C   UNL     1      53.830   8.955   3.906  0.00  0.00    +0.000 C 
ATOM     45  C   UNL     1      54.868   8.540   2.969  0.00  0.00    +0.000 C 
ATOM     46  C   UNL     1      52.378   9.381   3.509  0.00  0.00    +0.000 C 
BRANCH  45  47
ATOM     47  C   UNL     1      54.630   8.177   1.604  0.00  0.00    +0.000 C 
ATOM     48  C   UNL     1      54.677   9.225   0.521  0.00  0.00    +0.000 C 
BRANCH  47  49
ATOM     49  C   UNL     1      54.795   6.834   1.181  0.00  0.00    +0.000 C 
ATOM     50  C   UNL     1      54.998   5.701   0.847  0.00  0.00    +0.000 C 
ATOM     51  C   UNL     1      55.377   4.272   0.447  0.00  0.00    +0.000 C 
ENDBRANCH  47  49
ENDBRANCH  45  47
ENDBRANCH  42  44
BRANCH  42  52
ATOM     52  O   UNL     1      54.764   9.261   6.229  0.00  0.00    +0.000 OA
ATOM     53  H   UNL     1      55.620   8.861   6.485  0.00  0.00    +0.000 HD
ENDBRANCH  42  52
ENDBRANCH   6  42
TORSDOF 12
ENDMDL
MODEL 9
REMARK VINA RESULT:      -6.3      4.199      8.011
REMARK  Name = 101808842_CandidaspongiolideB.pdbqt.pdb
REMARK  12 active torsions:
REMARK  status: ('A' for Active; 'I' for Inactive)
REMARK    1  A    between atoms: C_6  and  C_42
REMARK    2  A    between atoms: C_7  and  O_28
REMARK    3  A    between atoms: C_10  and  O_30
REMARK    4  A    between atoms: C_13  and  O_32
REMARK    5  A    between atoms: C_19  and  O_34
REMARK    6  A    between atoms: C_20  and  O_38
REMARK    7  A    between atoms: C_21  and  O_36
REMARK    8  A    between atoms: O_38  and  C_40
REMARK    9  A    between atoms: C_42  and  C_44
REMARK   10  A    between atoms: C_42  and  O_52
REMARK   11  A    between atoms: C_45  and  C_47
REMARK   12  A    between atoms: C_47  and  C_49
REMARK                            x       y       z     vdW  Elec       q    Type
REMARK                         _______ _______ _______ _____ _____    ______ ____
ROOT
ATOM      1  O   UNL     1      54.614  -0.663   2.046  0.00  0.00    +0.000 OA
ATOM      2  O   UNL     1      52.496   4.567   5.967  0.00  0.00    +0.000 OA
ATOM      3  O   UNL     1      52.653   2.597   2.210  0.00  0.00    +0.000 OA
ATOM      4  O   UNL     1      51.293   2.641   5.558  0.00  0.00    +0.000 OA
ATOM      5  O   UNL     1      52.149   0.254   7.086  0.00  0.00    +0.000 OA
ATOM      6  C   UNL     1      53.748   4.181   3.541  0.00  0.00    +0.000 C 
ATOM      7  C   UNL     1      54.727   1.802   3.273  0.00  0.00    +0.000 C 
ATOM      8  C   UNL     1      53.618   2.824   2.940  0.00  0.00    +0.000 C 
ATOM      9  C   UNL     1      53.093   4.434   4.780  0.00  0.00    +0.000 C 
ATOM     10  C   UNL     1      54.390   1.038   4.569  0.00  0.00    +0.000 C 
ATOM     11  C   UNL     1      54.303  -0.380   4.434  0.00  0.00    +0.000 C 
ATOM     12  C   UNL     1      54.735   0.654   2.311  0.00  0.00    +0.000 C 
ATOM     13  C   UNL     1      54.395  -1.383   3.327  0.00  0.00    +0.000 C 
ATOM     14  C   UNL     1      53.109  -2.217   3.228  0.00  0.00    +0.000 C 
ATOM     15  C   UNL     1      51.920  -1.823   3.911  0.00  0.00    +0.000 C 
ATOM     16  C   UNL     1      52.962  -3.562   2.523  0.00  0.00    +0.000 C 
ATOM     17  C   UNL     1      51.667   3.539   6.298  0.00  0.00    +0.000 C 
ATOM     18  C   UNL     1      50.886  -1.418   4.581  0.00  0.00    +0.000 C 
ATOM     19  C   UNL     1      51.329   3.591   7.740  0.00  0.00    +0.000 C 
ATOM     20  C   UNL     1      50.588  -1.930   5.899  0.00  0.00    +0.000 C 
ATOM     21  C   UNL     1      50.817   2.427   8.436  0.00  0.00    +0.000 C 
ATOM     22  C   UNL     1      50.218  -1.139   7.071  0.00  0.00    +0.000 C 
ATOM     23  C   UNL     1      50.123   1.291   7.846  0.00  0.00    +0.000 C 
ATOM     24  C   UNL     1      50.938   0.155   7.311  0.00  0.00    +0.000 C 
ATOM     25  C   UNL     1      50.129  -0.254   4.010  0.00  0.00    +0.000 C 
ATOM     26  C   UNL     1      49.516  -1.816   8.247  0.00  0.00    +0.000 C 
ATOM     27  C   UNL     1      48.629   1.412   7.571  0.00  0.00    +0.000 C 
ENDROOT
BRANCH   7  28
ATOM     28  O   UNL     1      56.038   2.319   3.375  0.00  0.00    +0.000 OA
ATOM     29  H   UNL     1      56.000   3.040   4.030  0.00  0.00    +0.000 HD
ENDBRANCH   7  28
BRANCH  10  30
ATOM     30  O   UNL     1      54.202   1.666   5.772  0.00  0.00    +0.000 OA
ATOM     31  H   UNL     1      53.878   2.583   5.648  0.00  0.00    +0.000 HD
ENDBRANCH  10  30
BRANCH  13  32
ATOM     32  O   UNL     1      55.525  -2.212   3.582  0.00  0.00    +0.000 OA
ATOM     33  H   UNL     1      55.777  -2.585   2.722  0.00  0.00    +0.000 HD
ENDBRANCH  13  32
BRANCH  19  34
ATOM     34  O   UNL     1      51.615   4.695   8.521  0.00  0.00    +0.000 OA
ATOM     35  H   UNL     1      52.213   4.493   9.270  0.00  0.00    +0.000 HD
ENDBRANCH  19  34
BRANCH  21  36
ATOM     36  O   UNL     1      50.664   2.591   9.803  0.00  0.00    +0.000 OA
ATOM     37  C   UNL     1      51.046   1.429  10.495  0.00  0.00    +0.000 C 
ENDBRANCH  21  36
BRANCH  20  38
ATOM     38  O   UNL     1      50.368  -3.327   5.958  0.00  0.00    +0.000 OA
BRANCH  38  40
ATOM     39  O   UNL     1      52.556  -3.718   6.657  0.00  0.00    +0.000 OA
ATOM     40  C   UNL     1      51.360  -3.943   6.652  0.00  0.00    +0.000 C 
ATOM     41  C   UNL     1      50.929  -5.102   7.470  0.00  0.00    +0.000 C 
ENDBRANCH  38  40
ENDBRANCH  20  38
BRANCH   6  42
ATOM     42  C   UNL     1      54.339   5.234   2.746  0.00  0.00    +0.000 C 
BRANCH  42  44
ATOM     43  O   UNL     1      54.868   7.685   2.419  0.00  0.00    +0.000 OA
ATOM     44  C   UNL     1      54.660   6.569   3.318  0.00  0.00    +0.000 C 
ATOM     45  C   UNL     1      53.644   7.574   3.020  0.00  0.00    +0.000 C 
ATOM     46  C   UNL     1      55.697   6.658   4.486  0.00  0.00    +0.000 C 
BRANCH  45  47
ATOM     47  C   UNL     1      53.257   8.624   3.913  0.00  0.00    +0.000 C 
ATOM     48  C   UNL     1      53.389  10.065   3.493  0.00  0.00    +0.000 C 
BRANCH  47  49
ATOM     49  C   UNL     1      52.353   8.363   4.975  0.00  0.00    +0.000 C 
ATOM     50  C   UNL     1      51.588   8.078   5.852  0.00  0.00    +0.000 C 
ATOM     51  C   UNL     1      50.597   7.604   6.919  0.00  0.00    +0.000 C 
ENDBRANCH  47  49
ENDBRANCH  45  47
ENDBRANCH  42  44
BRANCH  42  52
ATOM     52  O   UNL     1      54.613   4.901   1.426  0.00  0.00    +0.000 OA
ATOM     53  H   UNL     1      53.802   4.675   0.927  0.00  0.00    +0.000 HD
ENDBRANCH  42  52
ENDBRANCH   6  42
TORSDOF 12
ENDMDL
