MODEL 1
REMARK VINA RESULT:      -6.1      0.000      0.000
REMARK  Name = 102471178_CandidaspongiolideCore.pdbqt.pdb
REMARK  13 active torsions:
REMARK  status: ('A' for Active; 'I' for Inactive)
REMARK    1  A    between atoms: C_6  and  C_39
REMARK    2  A    between atoms: C_8  and  O_27
REMARK    3  A    between atoms: C_8  and  C_51
REMARK    4  A    between atoms: C_10  and  O_29
REMARK    5  A    between atoms: C_15  and  O_31
REMARK    6  A    between atoms: C_16  and  O_33
REMARK    7  A    between atoms: C_21  and  O_35
REMARK    8  A    between atoms: O_35  and  C_37
REMARK    9  A    between atoms: C_39  and  C_41
REMARK   10  A    between atoms: C_39  and  O_49
REMARK   11  A    between atoms: C_42  and  C_44
REMARK   12  A    between atoms: C_44  and  C_46
REMARK   13  A    between atoms: C_51  and  O_52
REMARK                            x       y       z     vdW  Elec       q    Type
REMARK                         _______ _______ _______ _____ _____    ______ ____
ROOT
ATOM      1  O   UNL     1      52.098   4.595  11.205  0.00  0.00    +0.000 OA
ATOM      2  O   UNL     1      52.170   4.080   8.967  0.00  0.00    +0.000 OA
ATOM      3  O   UNL     1      53.109   4.833   4.172  0.00  0.00    +0.000 OA
ATOM      4  O   UNL     1      52.960   2.715  12.111  0.00  0.00    +0.000 OA
ATOM      5  O   UNL     1      51.940   0.695   9.416  0.00  0.00    +0.000 OA
ATOM      6  C   UNL     1      52.441   6.341   9.719  0.00  0.00    +0.000 C 
ATOM      7  C   UNL     1      52.004   7.023   8.549  0.00  0.00    +0.000 C 
ATOM      8  C   UNL     1      51.505   7.848   7.446  0.00  0.00    +0.000 C 
ATOM      9  C   UNL     1      52.232   4.880   9.893  0.00  0.00    +0.000 C 
ATOM     10  C   UNL     1      52.366   7.728   6.207  0.00  0.00    +0.000 C 
ATOM     11  C   UNL     1      52.912   6.509   5.723  0.00  0.00    +0.000 C 
ATOM     12  C   UNL     1      53.417   5.222   5.294  0.00  0.00    +0.000 C 
ATOM     13  C   UNL     1      52.056   3.285  11.512  0.00  0.00    +0.000 C 
ATOM     14  C   UNL     1      54.246   4.387   6.216  0.00  0.00    +0.000 C 
ATOM     15  C   UNL     1      50.732   2.628  11.377  0.00  0.00    +0.000 C 
ATOM     16  C   UNL     1      49.870   2.746  10.219  0.00  0.00    +0.000 C 
ATOM     17  C   UNL     1      49.910   1.890   9.041  0.00  0.00    +0.000 C 
ATOM     18  C   UNL     1      54.180   2.975   6.129  0.00  0.00    +0.000 C 
ATOM     19  C   UNL     1      51.669   1.531   7.211  0.00  0.00    +0.000 C 
ATOM     20  C   UNL     1      54.940   4.969   7.439  0.00  0.00    +0.000 C 
ATOM     21  C   UNL     1      52.974   1.007   6.823  0.00  0.00    +0.000 C 
ATOM     22  C   UNL     1      51.217   1.299   8.620  0.00  0.00    +0.000 C 
ATOM     23  C   UNL     1      54.007   1.690   6.057  0.00  0.00    +0.000 C 
ATOM     24  C   UNL     1      48.630   1.338   8.419  0.00  0.00    +0.000 C 
ATOM     25  C   UNL     1      50.966   2.521   6.292  0.00  0.00    +0.000 C 
ATOM     26  C   UNL     1      54.971   0.944   5.172  0.00  0.00    +0.000 C 
ENDROOT
BRANCH   8  27
ATOM     27  O   UNL     1      51.566   9.198   7.913  0.00  0.00    +0.000 OA
ATOM     28  H   UNL     1      51.994   9.130   8.790  0.00  0.00    +0.000 HD
ENDBRANCH   8  27
BRANCH  10  29
ATOM     29  O   UNL     1      52.585   8.887   5.479  0.00  0.00    +0.000 OA
ATOM     30  H   UNL     1      52.335   9.688   5.977  0.00  0.00    +0.000 HD
ENDBRANCH  10  29
BRANCH  15  31
ATOM     31  O   UNL     1      50.499   1.488  12.130  0.00  0.00    +0.000 OA
ATOM     32  H   UNL     1      50.008   0.823  11.602  0.00  0.00    +0.000 HD
ENDBRANCH  15  31
BRANCH  16  33
ATOM     33  O   UNL     1      48.652   3.361  10.452  0.00  0.00    +0.000 OA
ATOM     34  C   UNL     1      48.780   4.744  10.232  0.00  0.00    +0.000 C 
ENDBRANCH  16  33
BRANCH  21  35
ATOM     35  O   UNL     1      53.154  -0.374   7.092  0.00  0.00    +0.000 OA
BRANCH  35  37
ATOM     36  O   UNL     1      52.122  -1.215   5.169  0.00  0.00    +0.000 OA
ATOM     37  C   UNL     1      52.317  -1.169   6.370  0.00  0.00    +0.000 C 
ATOM     38  C   UNL     1      51.554  -2.156   7.178  0.00  0.00    +0.000 C 
ENDBRANCH  35  37
ENDBRANCH  21  35
BRANCH   6  39
ATOM     39  C   UNL     1      53.178   7.106  10.699  0.00  0.00    +0.000 C 
BRANCH  39  41
ATOM     40  O   UNL     1      55.368   7.254  11.998  0.00  0.00    +0.000 OA
ATOM     41  C   UNL     1      54.664   7.015  10.757  0.00  0.00    +0.000 C 
ATOM     42  C   UNL     1      55.118   5.956  11.654  0.00  0.00    +0.000 C 
ATOM     43  C   UNL     1      55.511   7.577   9.560  0.00  0.00    +0.000 C 
BRANCH  42  44
ATOM     44  C   UNL     1      56.246   5.111  11.405  0.00  0.00    +0.000 C 
ATOM     45  C   UNL     1      57.511   5.276  12.215  0.00  0.00    +0.000 C 
BRANCH  44  46
ATOM     46  C   UNL     1      56.080   3.856  10.768  0.00  0.00    +0.000 C 
ATOM     47  C   UNL     1      55.901   2.812  10.206  0.00  0.00    +0.000 C 
ATOM     48  C   UNL     1      55.624   1.510   9.443  0.00  0.00    +0.000 C 
ENDBRANCH  44  46
ENDBRANCH  42  44
ENDBRANCH  39  41
BRANCH  39  49
ATOM     49  O   UNL     1      52.436   7.851  11.600  0.00  0.00    +0.000 OA
ATOM     50  H   UNL     1      52.969   8.331  12.263  0.00  0.00    +0.000 HD
ENDBRANCH  39  49
ENDBRANCH   6  39
BRANCH   8  51
ATOM     51  C   UNL     1      50.100   7.548   7.124  0.00  0.00    +0.000 C 
BRANCH  51  52
ATOM     52  O   UNL     1      48.818   7.319   6.839  0.00  0.00    +0.000 OA
ATOM     53  H   UNL     1      48.316   7.087   7.647  0.00  0.00    +0.000 HD
ENDBRANCH  51  52
ENDBRANCH   8  51
TORSDOF 13
ENDMDL
MODEL 2
REMARK VINA RESULT:      -5.9      2.607      7.610
REMARK  Name = 102471178_CandidaspongiolideCore.pdbqt.pdb
REMARK  13 active torsions:
REMARK  status: ('A' for Active; 'I' for Inactive)
REMARK    1  A    between atoms: C_6  and  C_39
REMARK    2  A    between atoms: C_8  and  O_27
REMARK    3  A    between atoms: C_8  and  C_51
REMARK    4  A    between atoms: C_10  and  O_29
REMARK    5  A    between atoms: C_15  and  O_31
REMARK    6  A    between atoms: C_16  and  O_33
REMARK    7  A    between atoms: C_21  and  O_35
REMARK    8  A    between atoms: O_35  and  C_37
REMARK    9  A    between atoms: C_39  and  C_41
REMARK   10  A    between atoms: C_39  and  O_49
REMARK   11  A    between atoms: C_42  and  C_44
REMARK   12  A    between atoms: C_44  and  C_46
REMARK   13  A    between atoms: C_51  and  O_52
REMARK                            x       y       z     vdW  Elec       q    Type
REMARK                         _______ _______ _______ _____ _____    ______ ____
ROOT
ATOM      1  O   UNL     1      52.279   1.073  11.177  0.00  0.00    +0.000 OA
ATOM      2  O   UNL     1      52.663   3.313  11.504  0.00  0.00    +0.000 OA
ATOM      3  O   UNL     1      51.980   8.168  10.868  0.00  0.00    +0.000 OA
ATOM      4  O   UNL     1      52.229   0.325  13.307  0.00  0.00    +0.000 OA
ATOM      5  O   UNL     1      54.290   2.922  14.489  0.00  0.00    +0.000 OA
ATOM      6  C   UNL     1      51.365   2.547   9.639  0.00  0.00    +0.000 C 
ATOM      7  C   UNL     1      51.579   3.637   8.750  0.00  0.00    +0.000 C 
ATOM      8  C   UNL     1      51.780   4.650   7.711  0.00  0.00    +0.000 C 
ATOM      9  C   UNL     1      52.168   2.384  10.880  0.00  0.00    +0.000 C 
ATOM     10  C   UNL     1      51.186   5.988   8.095  0.00  0.00    +0.000 C 
ATOM     11  C   UNL     1      51.274   6.565   9.390  0.00  0.00    +0.000 C 
ATOM     12  C   UNL     1      51.422   7.084  10.733  0.00  0.00    +0.000 C 
ATOM     13  C   UNL     1      52.853   0.794  12.362  0.00  0.00    +0.000 C 
ATOM     14  C   UNL     1      50.949   6.292  11.909  0.00  0.00    +0.000 C 
ATOM     15  C   UNL     1      54.337   0.781  12.379  0.00  0.00    +0.000 C 
ATOM     16  C   UNL     1      55.175   1.820  11.817  0.00  0.00    +0.000 C 
ATOM     17  C   UNL     1      55.628   3.015  12.518  0.00  0.00    +0.000 C 
ATOM     18  C   UNL     1      51.628   6.403  13.146  0.00  0.00    +0.000 C 
ATOM     19  C   UNL     1      54.393   5.056  13.455  0.00  0.00    +0.000 C 
ATOM     20  C   UNL     1      49.951   5.150  11.773  0.00  0.00    +0.000 C 
ATOM     21  C   UNL     1      53.490   5.614  14.456  0.00  0.00    +0.000 C 
ATOM     22  C   UNL     1      54.756   3.607  13.577  0.00  0.00    +0.000 C 
ATOM     23  C   UNL     1      52.346   6.485  14.224  0.00  0.00    +0.000 C 
ATOM     24  C   UNL     1      57.076   3.487  12.422  0.00  0.00    +0.000 C 
ATOM     25  C   UNL     1      54.686   5.857  12.194  0.00  0.00    +0.000 C 
ATOM     26  C   UNL     1      51.895   7.500  15.242  0.00  0.00    +0.000 C 
ENDROOT
BRANCH   8  27
ATOM     27  O   UNL     1      51.095   4.161   6.556  0.00  0.00    +0.000 OA
ATOM     28  H   UNL     1      51.059   4.931   5.953  0.00  0.00    +0.000 HD
ENDBRANCH   8  27
BRANCH  10  29
ATOM     29  O   UNL     1      50.562   6.709   7.089  0.00  0.00    +0.000 OA
ATOM     30  H   UNL     1      49.874   6.188   6.634  0.00  0.00    +0.000 HD
ENDBRANCH  10  29
BRANCH  15  31
ATOM     31  O   UNL     1      54.964   0.032  13.363  0.00  0.00    +0.000 OA
ATOM     32  H   UNL     1      54.299  -0.373  13.961  0.00  0.00    +0.000 HD
ENDBRANCH  15  31
BRANCH  16  33
ATOM     33  O   UNL     1      55.976   1.424  10.761  0.00  0.00    +0.000 OA
ATOM     34  C   UNL     1      55.418   1.887   9.556  0.00  0.00    +0.000 C 
ENDBRANCH  16  33
BRANCH  21  35
ATOM     35  O   UNL     1      53.899   5.402  15.797  0.00  0.00    +0.000 OA
BRANCH  35  37
ATOM     36  O   UNL     1      55.440   7.159  15.903  0.00  0.00    +0.000 OA
ATOM     37  C   UNL     1      55.080   6.012  16.094  0.00  0.00    +0.000 C 
ATOM     38  C   UNL     1      56.063   5.145  16.794  0.00  0.00    +0.000 C 
ENDBRANCH  35  37
ENDBRANCH  21  35
BRANCH   6  39
ATOM     39  C   UNL     1      50.275   1.647   9.339  0.00  0.00    +0.000 C 
BRANCH  39  41
ATOM     40  O   UNL     1      51.109   1.311   6.952  0.00  0.00    +0.000 OA
ATOM     41  C   UNL     1      50.071   1.155   7.948  0.00  0.00    +0.000 C 
ATOM     42  C   UNL     1      51.021   0.105   7.589  0.00  0.00    +0.000 C 
ATOM     43  C   UNL     1      48.666   1.338   7.271  0.00  0.00    +0.000 C 
BRANCH  42  44
ATOM     44  C   UNL     1      50.701  -1.039   6.791  0.00  0.00    +0.000 C 
ATOM     45  C   UNL     1      50.063  -2.253   7.425  0.00  0.00    +0.000 C 
BRANCH  44  46
ATOM     46  C   UNL     1      50.533  -0.915   5.389  0.00  0.00    +0.000 C 
ATOM     47  C   UNL     1      50.383  -0.762   4.209  0.00  0.00    +0.000 C 
ATOM     48  C   UNL     1      50.194  -0.494   2.710  0.00  0.00    +0.000 C 
ENDBRANCH  44  46
ENDBRANCH  42  44
ENDBRANCH  39  41
BRANCH  39  49
ATOM     49  O   UNL     1      49.415   1.335  10.379  0.00  0.00    +0.000 OA
ATOM     50  H   UNL     1      49.856   0.986  11.177  0.00  0.00    +0.000 HD
ENDBRANCH  39  49
ENDBRANCH   6  39
BRANCH   8  51
ATOM     51  C   UNL     1      53.201   4.803   7.357  0.00  0.00    +0.000 C 
BRANCH  51  52
ATOM     52  O   UNL     1      54.477   4.935   6.994  0.00  0.00    +0.000 OA
ATOM     53  H   UNL     1      54.547   5.286   6.083  0.00  0.00    +0.000 HD
ENDBRANCH  51  52
ENDBRANCH   8  51
TORSDOF 13
ENDMDL
MODEL 3
REMARK VINA RESULT:      -5.9      2.406      7.767
REMARK  Name = 102471178_CandidaspongiolideCore.pdbqt.pdb
REMARK  13 active torsions:
REMARK  status: ('A' for Active; 'I' for Inactive)
REMARK    1  A    between atoms: C_6  and  C_39
REMARK    2  A    between atoms: C_8  and  O_27
REMARK    3  A    between atoms: C_8  and  C_51
REMARK    4  A    between atoms: C_10  and  O_29
REMARK    5  A    between atoms: C_15  and  O_31
REMARK    6  A    between atoms: C_16  and  O_33
REMARK    7  A    between atoms: C_21  and  O_35
REMARK    8  A    between atoms: O_35  and  C_37
REMARK    9  A    between atoms: C_39  and  C_41
REMARK   10  A    between atoms: C_39  and  O_49
REMARK   11  A    between atoms: C_42  and  C_44
REMARK   12  A    between atoms: C_44  and  C_46
REMARK   13  A    between atoms: C_51  and  O_52
REMARK                            x       y       z     vdW  Elec       q    Type
REMARK                         _______ _______ _______ _____ _____    ______ ____
ROOT
ATOM      1  O   UNL     1      53.206   4.780   7.929  0.00  0.00    +0.000 OA
ATOM      2  O   UNL     1      53.021   4.018  10.088  0.00  0.00    +0.000 OA
ATOM      3  O   UNL     1      51.514   1.026  13.723  0.00  0.00    +0.000 OA
ATOM      4  O   UNL     1      55.431   5.138   7.783  0.00  0.00    +0.000 OA
ATOM      5  O   UNL     1      55.784   5.673  11.244  0.00  0.00    +0.000 OA
ATOM      6  C   UNL     1      51.536   3.236   8.375  0.00  0.00    +0.000 C 
ATOM      7  C   UNL     1      50.425   2.873   9.187  0.00  0.00    +0.000 C 
ATOM      8  C   UNL     1      49.186   2.533   9.891  0.00  0.00    +0.000 C 
ATOM      9  C   UNL     1      52.667   4.035   8.916  0.00  0.00    +0.000 C 
ATOM     10  C   UNL     1      49.366   1.364  10.834  0.00  0.00    +0.000 C 
ATOM     11  C   UNL     1      50.496   1.177  11.675  0.00  0.00    +0.000 C 
ATOM     12  C   UNL     1      51.675   1.072  12.508  0.00  0.00    +0.000 C 
ATOM     13  C   UNL     1      54.337   5.435   8.250  0.00  0.00    +0.000 C 
ATOM     14  C   UNL     1      53.038   1.067  11.895  0.00  0.00    +0.000 C 
ATOM     15  C   UNL     1      54.162   6.734   8.946  0.00  0.00    +0.000 C 
ATOM     16  C   UNL     1      53.297   6.944  10.089  0.00  0.00    +0.000 C 
ATOM     17  C   UNL     1      53.676   6.762  11.484  0.00  0.00    +0.000 C 
ATOM     18  C   UNL     1      54.128   1.623  12.608  0.00  0.00    +0.000 C 
ATOM     19  C   UNL     1      54.337   4.698  12.852  0.00  0.00    +0.000 C 
ATOM     20  C   UNL     1      53.267   0.758  10.422  0.00  0.00    +0.000 C 
ATOM     21  C   UNL     1      55.314   3.652  13.137  0.00  0.00    +0.000 C 
ATOM     22  C   UNL     1      54.699   5.728  11.826  0.00  0.00    +0.000 C 
ATOM     23  C   UNL     1      55.063   2.225  13.277  0.00  0.00    +0.000 C 
ATOM     24  C   UNL     1      53.298   7.789  12.548  0.00  0.00    +0.000 C 
ATOM     25  C   UNL     1      52.913   4.539  13.367  0.00  0.00    +0.000 C 
ATOM     26  C   UNL     1      55.906   1.348  14.167  0.00  0.00    +0.000 C 
ENDROOT
BRANCH   8  27
ATOM     27  O   UNL     1      48.253   2.159   8.874  0.00  0.00    +0.000 OA
ATOM     28  H   UNL     1      47.504   1.766   9.366  0.00  0.00    +0.000 HD
ENDBRANCH   8  27
BRANCH  10  29
ATOM     29  O   UNL     1      48.327   0.450  10.908  0.00  0.00    +0.000 OA
ATOM     30  H   UNL     1      47.653   0.601  10.218  0.00  0.00    +0.000 HD
ENDBRANCH  10  29
BRANCH  15  31
ATOM     31  O   UNL     1      55.185   7.663   8.845  0.00  0.00    +0.000 OA
ATOM     32  H   UNL     1      55.697   7.521   8.020  0.00  0.00    +0.000 HD
ENDBRANCH  15  31
BRANCH  16  33
ATOM     33  O   UNL     1      52.247   7.820   9.880  0.00  0.00    +0.000 OA
ATOM     34  C   UNL     1      51.061   7.087   9.694  0.00  0.00    +0.000 C 
ENDBRANCH  16  33
BRANCH  21  35
ATOM     35  O   UNL     1      56.605   4.134  13.474  0.00  0.00    +0.000 OA
BRANCH  35  37
ATOM     36  O   UNL     1      56.238   4.501  15.755  0.00  0.00    +0.000 OA
ATOM     37  C   UNL     1      56.624   4.826  14.646  0.00  0.00    +0.000 C 
ATOM     38  C   UNL     1      57.248   6.172  14.558  0.00  0.00    +0.000 C 
ENDBRANCH  35  37
ENDBRANCH  21  35
BRANCH   6  39
ATOM     39  C   UNL     1      51.569   2.725   7.024  0.00  0.00    +0.000 C 
BRANCH  39  41
ATOM     40  O   UNL     1      51.250   0.246   7.529  0.00  0.00    +0.000 OA
ATOM     41  C   UNL     1      51.898   1.294   6.772  0.00  0.00    +0.000 C 
ATOM     42  C   UNL     1      50.744   0.538   6.294  0.00  0.00    +0.000 C 
ATOM     43  C   UNL     1      53.390   0.891   6.493  0.00  0.00    +0.000 C 
BRANCH  42  44
ATOM     44  C   UNL     1      50.803  -0.488   5.298  0.00  0.00    +0.000 C 
ATOM     45  C   UNL     1      50.503  -1.922   5.666  0.00  0.00    +0.000 C 
BRANCH  44  46
ATOM     46  C   UNL     1      50.680  -0.165   3.923  0.00  0.00    +0.000 C 
ATOM     47  C   UNL     1      50.595   0.064   2.749  0.00  0.00    +0.000 C 
ATOM     48  C   UNL     1      50.503   0.289   1.234  0.00  0.00    +0.000 C 
ENDBRANCH  44  46
ENDBRANCH  42  44
ENDBRANCH  39  41
BRANCH  39  49
ATOM     49  O   UNL     1      51.351   3.636   6.004  0.00  0.00    +0.000 OA
ATOM     50  H   UNL     1      52.163   4.036   5.639  0.00  0.00    +0.000 HD
ENDBRANCH  39  49
ENDBRANCH   6  39
BRANCH   8  51
ATOM     51  C   UNL     1      48.625   3.690  10.609  0.00  0.00    +0.000 C 
BRANCH  51  52
ATOM     52  O   UNL     1      48.082   4.712  11.271  0.00  0.00    +0.000 OA
ATOM     53  H   UNL     1      48.747   5.409  11.445  0.00  0.00    +0.000 HD
ENDBRANCH  51  52
ENDBRANCH   8  51
TORSDOF 13
ENDMDL
MODEL 4
REMARK VINA RESULT:      -5.8      1.930      2.696
REMARK  Name = 102471178_CandidaspongiolideCore.pdbqt.pdb
REMARK  13 active torsions:
REMARK  status: ('A' for Active; 'I' for Inactive)
REMARK    1  A    between atoms: C_6  and  C_39
REMARK    2  A    between atoms: C_8  and  O_27
REMARK    3  A    between atoms: C_8  and  C_51
REMARK    4  A    between atoms: C_10  and  O_29
REMARK    5  A    between atoms: C_15  and  O_31
REMARK    6  A    between atoms: C_16  and  O_33
REMARK    7  A    between atoms: C_21  and  O_35
REMARK    8  A    between atoms: O_35  and  C_37
REMARK    9  A    between atoms: C_39  and  C_41
REMARK   10  A    between atoms: C_39  and  O_49
REMARK   11  A    between atoms: C_42  and  C_44
REMARK   12  A    between atoms: C_44  and  C_46
REMARK   13  A    between atoms: C_51  and  O_52
REMARK                            x       y       z     vdW  Elec       q    Type
REMARK                         _______ _______ _______ _____ _____    ______ ____
ROOT
ATOM      1  O   UNL     1      52.520   3.197  11.509  0.00  0.00    +0.000 OA
ATOM      2  O   UNL     1      52.388   3.142   9.216  0.00  0.00    +0.000 OA
ATOM      3  O   UNL     1      53.126   4.740   4.596  0.00  0.00    +0.000 OA
ATOM      4  O   UNL     1      53.182   1.085  11.956  0.00  0.00    +0.000 OA
ATOM      5  O   UNL     1      51.745  -0.213   9.017  0.00  0.00    +0.000 OA
ATOM      6  C   UNL     1      52.997   5.156  10.366  0.00  0.00    +0.000 C 
ATOM      7  C   UNL     1      52.584   6.108   9.393  0.00  0.00    +0.000 C 
ATOM      8  C   UNL     1      52.131   7.192   8.518  0.00  0.00    +0.000 C 
ATOM      9  C   UNL     1      52.610   3.725  10.271  0.00  0.00    +0.000 C 
ATOM     10  C   UNL     1      52.892   7.227   7.211  0.00  0.00    +0.000 C 
ATOM     11  C   UNL     1      53.244   6.077   6.454  0.00  0.00    +0.000 C 
ATOM     12  C   UNL     1      53.549   4.854   5.741  0.00  0.00    +0.000 C 
ATOM     13  C   UNL     1      52.325   1.866  11.558  0.00  0.00    +0.000 C 
ATOM     14  C   UNL     1      54.316   3.759   6.409  0.00  0.00    +0.000 C 
ATOM     15  C   UNL     1      50.921   1.408  11.412  0.00  0.00    +0.000 C 
ATOM     16  C   UNL     1      50.013   1.858  10.377  0.00  0.00    +0.000 C 
ATOM     17  C   UNL     1      49.870   1.261   9.056  0.00  0.00    +0.000 C 
ATOM     18  C   UNL     1      54.061   2.411   6.057  0.00  0.00    +0.000 C 
ATOM     19  C   UNL     1      51.453   1.080   7.047  0.00  0.00    +0.000 C 
ATOM     20  C   UNL     1      55.153   3.996   7.658  0.00  0.00    +0.000 C 
ATOM     21  C   UNL     1      52.652   0.498   6.456  0.00  0.00    +0.000 C 
ATOM     22  C   UNL     1      51.061   0.620   8.419  0.00  0.00    +0.000 C 
ATOM     23  C   UNL     1      53.717   1.198   5.751  0.00  0.00    +0.000 C 
ATOM     24  C   UNL     1      48.494   0.999   8.450  0.00  0.00    +0.000 C 
ATOM     25  C   UNL     1      50.831   2.311   6.402  0.00  0.00    +0.000 C 
ATOM     26  C   UNL     1      54.520   0.540   4.659  0.00  0.00    +0.000 C 
ENDROOT
BRANCH   8  27
ATOM     27  O   UNL     1      52.396   8.402   9.232  0.00  0.00    +0.000 OA
ATOM     28  H   UNL     1      51.625   8.506   9.826  0.00  0.00    +0.000 HD
ENDBRANCH   8  27
BRANCH  10  29
ATOM     29  O   UNL     1      53.216   8.476   6.705  0.00  0.00    +0.000 OA
ATOM     30  H   UNL     1      54.020   8.844   7.118  0.00  0.00    +0.000 HD
ENDBRANCH  10  29
BRANCH  15  31
ATOM     31  O   UNL     1      50.587   0.174  11.946  0.00  0.00    +0.000 OA
ATOM     32  H   UNL     1      51.120  -0.008  12.750  0.00  0.00    +0.000 HD
ENDBRANCH  15  31
BRANCH  16  33
ATOM     33  O   UNL     1      48.903   2.549  10.827  0.00  0.00    +0.000 OA
ATOM     34  C   UNL     1      49.064   3.919  10.551  0.00  0.00    +0.000 C 
ENDBRANCH  16  33
BRANCH  21  35
ATOM     35  O   UNL     1      52.666  -0.920   6.435  0.00  0.00    +0.000 OA
BRANCH  35  37
ATOM     36  O   UNL     1      51.453  -1.244   4.462  0.00  0.00    +0.000 OA
ATOM     37  C   UNL     1      51.699  -1.450   5.637  0.00  0.00    +0.000 C 
ATOM     38  C   UNL     1      50.836  -2.461   6.300  0.00  0.00    +0.000 C 
ENDBRANCH  35  37
ENDBRANCH  21  35
BRANCH   6  39
ATOM     39  C   UNL     1      53.886   5.615  11.410  0.00  0.00    +0.000 C 
BRANCH  39  41
ATOM     40  O   UNL     1      52.177   7.309  12.252  0.00  0.00    +0.000 OA
ATOM     41  C   UNL     1      53.536   6.815  12.220  0.00  0.00    +0.000 C 
ATOM     42  C   UNL     1      52.581   6.505  13.280  0.00  0.00    +0.000 C 
ATOM     43  C   UNL     1      54.534   8.027  12.261  0.00  0.00    +0.000 C 
BRANCH  42  44
ATOM     44  C   UNL     1      52.611   7.078  14.591  0.00  0.00    +0.000 C 
ATOM     45  C   UNL     1      51.528   8.037  15.027  0.00  0.00    +0.000 C 
BRANCH  44  46
ATOM     46  C   UNL     1      53.335   6.449  15.635  0.00  0.00    +0.000 C 
ATOM     47  C   UNL     1      53.922   5.943  16.551  0.00  0.00    +0.000 C 
ATOM     48  C   UNL     1      54.626   5.327  17.767  0.00  0.00    +0.000 C 
ENDBRANCH  44  46
ENDBRANCH  42  44
ENDBRANCH  39  41
BRANCH  39  49
ATOM     49  O   UNL     1      55.082   4.932  11.559  0.00  0.00    +0.000 OA
ATOM     50  H   UNL     1      55.642   5.254  12.291  0.00  0.00    +0.000 HD
ENDBRANCH  39  49
ENDBRANCH   6  39
BRANCH   8  51
ATOM     51  C   UNL     1      50.682   7.129   8.265  0.00  0.00    +0.000 C 
BRANCH  51  52
ATOM     52  O   UNL     1      49.374   7.030   8.026  0.00  0.00    +0.000 OA
ATOM     53  H   UNL     1      49.207   6.787   7.093  0.00  0.00    +0.000 HD
ENDBRANCH  51  52
ENDBRANCH   8  51
TORSDOF 13
ENDMDL
MODEL 5
REMARK VINA RESULT:      -5.5      2.247      6.616
REMARK  Name = 102471178_CandidaspongiolideCore.pdbqt.pdb
REMARK  13 active torsions:
REMARK  status: ('A' for Active; 'I' for Inactive)
REMARK    1  A    between atoms: C_6  and  C_39
REMARK    2  A    between atoms: C_8  and  O_27
REMARK    3  A    between atoms: C_8  and  C_51
REMARK    4  A    between atoms: C_10  and  O_29
REMARK    5  A    between atoms: C_15  and  O_31
REMARK    6  A    between atoms: C_16  and  O_33
REMARK    7  A    between atoms: C_21  and  O_35
REMARK    8  A    between atoms: O_35  and  C_37
REMARK    9  A    between atoms: C_39  and  C_41
REMARK   10  A    between atoms: C_39  and  O_49
REMARK   11  A    between atoms: C_42  and  C_44
REMARK   12  A    between atoms: C_44  and  C_46
REMARK   13  A    between atoms: C_51  and  O_52
REMARK                            x       y       z     vdW  Elec       q    Type
REMARK                         _______ _______ _______ _____ _____    ______ ____
ROOT
ATOM      1  O   UNL     1      50.878   3.930   8.601  0.00  0.00    +0.000 OA
ATOM      2  O   UNL     1      52.832   4.064   9.801  0.00  0.00    +0.000 OA
ATOM      3  O   UNL     1      57.629   4.991  10.558  0.00  0.00    +0.000 OA
ATOM      4  O   UNL     1      49.429   4.925  10.019  0.00  0.00    +0.000 OA
ATOM      5  O   UNL     1      51.318   4.091  12.869  0.00  0.00    +0.000 OA
ATOM      6  C   UNL     1      52.851   4.152   7.404  0.00  0.00    +0.000 C 
ATOM      7  C   UNL     1      54.170   3.676   7.169  0.00  0.00    +0.000 C 
ATOM      8  C   UNL     1      55.472   3.126   6.783  0.00  0.00    +0.000 C 
ATOM      9  C   UNL     1      52.214   4.055   8.744  0.00  0.00    +0.000 C 
ATOM     10  C   UNL     1      56.620   4.007   7.228  0.00  0.00    +0.000 C 
ATOM     11  C   UNL     1      56.695   4.650   8.493  0.00  0.00    +0.000 C 
ATOM     12  C   UNL     1      56.696   5.257   9.807  0.00  0.00    +0.000 C 
ATOM     13  C   UNL     1      50.166   3.986   9.742  0.00  0.00    +0.000 C 
ATOM     14  C   UNL     1      55.568   6.138  10.236  0.00  0.00    +0.000 C 
ATOM     15  C   UNL     1      50.063   2.718  10.507  0.00  0.00    +0.000 C 
ATOM     16  C   UNL     1      51.185   1.861  10.833  0.00  0.00    +0.000 C 
ATOM     17  C   UNL     1      52.026   1.979  12.017  0.00  0.00    +0.000 C 
ATOM     18  C   UNL     1      55.196   6.182  11.602  0.00  0.00    +0.000 C 
ATOM     19  C   UNL     1      53.671   3.779  12.809  0.00  0.00    +0.000 C 
ATOM     20  C   UNL     1      54.607   6.773   9.241  0.00  0.00    +0.000 C 
ATOM     21  C   UNL     1      53.889   5.124  13.328  0.00  0.00    +0.000 C 
ATOM     22  C   UNL     1      52.254   3.332  12.609  0.00  0.00    +0.000 C 
ATOM     23  C   UNL     1      54.850   6.109  12.851  0.00  0.00    +0.000 C 
ATOM     24  C   UNL     1      52.419   0.752  12.835  0.00  0.00    +0.000 C 
ATOM     25  C   UNL     1      54.848   3.012  12.223  0.00  0.00    +0.000 C 
ATOM     26  C   UNL     1      55.463   7.137  13.766  0.00  0.00    +0.000 C 
ENDROOT
BRANCH   8  27
ATOM     27  O   UNL     1      55.464   3.078   5.354  0.00  0.00    +0.000 OA
ATOM     28  H   UNL     1      55.057   2.213   5.144  0.00  0.00    +0.000 HD
ENDBRANCH   8  27
BRANCH  10  29
ATOM     29  O   UNL     1      57.684   4.143   6.351  0.00  0.00    +0.000 OA
ATOM     30  H   UNL     1      57.911   3.302   5.913  0.00  0.00    +0.000 HD
ENDBRANCH  10  29
BRANCH  15  31
ATOM     31  O   UNL     1      48.981   2.565  11.359  0.00  0.00    +0.000 OA
ATOM     32  H   UNL     1      49.287   2.378  12.272  0.00  0.00    +0.000 HD
ENDBRANCH  15  31
BRANCH  16  33
ATOM     33  O   UNL     1      51.143   0.597  10.271  0.00  0.00    +0.000 OA
ATOM     34  C   UNL     1      52.004   0.554   9.160  0.00  0.00    +0.000 C 
ENDBRANCH  16  33
BRANCH  21  35
ATOM     35  O   UNL     1      53.194   5.407  14.532  0.00  0.00    +0.000 OA
BRANCH  35  37
ATOM     36  O   UNL     1      54.631   4.080  15.813  0.00  0.00    +0.000 OA
ATOM     37  C   UNL     1      53.878   5.021  15.644  0.00  0.00    +0.000 C 
ATOM     38  C   UNL     1      53.701   5.914  16.818  0.00  0.00    +0.000 C 
ENDBRANCH  35  37
ENDBRANCH  21  35
BRANCH   6  39
ATOM     39  C   UNL     1      52.179   4.819   6.312  0.00  0.00    +0.000 C 
BRANCH  39  41
ATOM     40  O   UNL     1      50.894   6.956   5.780  0.00  0.00    +0.000 OA
ATOM     41  C   UNL     1      52.083   6.305   6.285  0.00  0.00    +0.000 C 
ATOM     42  C   UNL     1      51.003   6.803   7.134  0.00  0.00    +0.000 C 
ATOM     43  C   UNL     1      53.348   7.145   5.887  0.00  0.00    +0.000 C 
BRANCH  42  44
ATOM     44  C   UNL     1      51.079   7.992   7.927  0.00  0.00    +0.000 C 
ATOM     45  C   UNL     1      50.503   9.289   7.408  0.00  0.00    +0.000 C 
BRANCH  44  46
ATOM     46  C   UNL     1      51.250   7.910   9.332  0.00  0.00    +0.000 C 
ATOM     47  C   UNL     1      51.374   7.796  10.520  0.00  0.00    +0.000 C 
ATOM     48  C   UNL     1      51.515   7.581  12.032  0.00  0.00    +0.000 C 
ENDBRANCH  44  46
ENDBRANCH  42  44
ENDBRANCH  39  41
BRANCH  39  49
ATOM     49  O   UNL     1      51.586   4.012   5.355  0.00  0.00    +0.000 OA
ATOM     50  H   UNL     1      50.683   3.715   5.579  0.00  0.00    +0.000 HD
ENDBRANCH  39  49
ENDBRANCH   6  39
BRANCH   8  51
ATOM     51  C   UNL     1      55.660   1.752   7.276  0.00  0.00    +0.000 C 
BRANCH  51  52
ATOM     52  O   UNL     1      55.821   0.492   7.682  0.00  0.00    +0.000 OA
ATOM     53  H   UNL     1      55.315   0.321   8.502  0.00  0.00    +0.000 HD
ENDBRANCH  51  52
ENDBRANCH   8  51
TORSDOF 13
ENDMDL
MODEL 6
REMARK VINA RESULT:      -5.4      1.949      5.040
REMARK  Name = 102471178_CandidaspongiolideCore.pdbqt.pdb
REMARK  13 active torsions:
REMARK  status: ('A' for Active; 'I' for Inactive)
REMARK    1  A    between atoms: C_6  and  C_39
REMARK    2  A    between atoms: C_8  and  O_27
REMARK    3  A    between atoms: C_8  and  C_51
REMARK    4  A    between atoms: C_10  and  O_29
REMARK    5  A    between atoms: C_15  and  O_31
REMARK    6  A    between atoms: C_16  and  O_33
REMARK    7  A    between atoms: C_21  and  O_35
REMARK    8  A    between atoms: O_35  and  C_37
REMARK    9  A    between atoms: C_39  and  C_41
REMARK   10  A    between atoms: C_39  and  O_49
REMARK   11  A    between atoms: C_42  and  C_44
REMARK   12  A    between atoms: C_44  and  C_46
REMARK   13  A    between atoms: C_51  and  O_52
REMARK                            x       y       z     vdW  Elec       q    Type
REMARK                         _______ _______ _______ _____ _____    ______ ____
ROOT
ATOM      1  O   UNL     1      50.547   5.131   8.706  0.00  0.00    +0.000 OA
ATOM      2  O   UNL     1      51.951   3.321   8.875  0.00  0.00    +0.000 OA
ATOM      3  O   UNL     1      55.573   0.253   7.495  0.00  0.00    +0.000 OA
ATOM      4  O   UNL     1      50.709   6.002  10.783  0.00  0.00    +0.000 OA
ATOM      5  O   UNL     1      51.528   2.907  12.246  0.00  0.00    +0.000 OA
ATOM      6  C   UNL     1      51.697   4.492   6.798  0.00  0.00    +0.000 C 
ATOM      7  C   UNL     1      52.043   3.443   5.902  0.00  0.00    +0.000 C 
ATOM      8  C   UNL     1      52.299   2.436   4.869  0.00  0.00    +0.000 C 
ATOM      9  C   UNL     1      51.438   4.233   8.239  0.00  0.00    +0.000 C 
ATOM     10  C   UNL     1      53.732   1.950   4.887  0.00  0.00    +0.000 C 
ATOM     11  C   UNL     1      54.470   1.666   6.067  0.00  0.00    +0.000 C 
ATOM     12  C   UNL     1      55.143   1.387   7.318  0.00  0.00    +0.000 C 
ATOM     13  C   UNL     1      50.340   5.104  10.036  0.00  0.00    +0.000 C 
ATOM     14  C   UNL     1      55.260   2.445   8.367  0.00  0.00    +0.000 C 
ATOM     15  C   UNL     1      49.368   4.093  10.522  0.00  0.00    +0.000 C 
ATOM     16  C   UNL     1      49.372   2.696  10.138  0.00  0.00    +0.000 C 
ATOM     17  C   UNL     1      50.119   1.636  10.802  0.00  0.00    +0.000 C 
ATOM     18  C   UNL     1      55.272   2.076   9.734  0.00  0.00    +0.000 C 
ATOM     19  C   UNL     1      52.627   1.172  11.056  0.00  0.00    +0.000 C 
ATOM     20  C   UNL     1      55.076   3.924   8.057  0.00  0.00    +0.000 C 
ATOM     21  C   UNL     1      53.908   1.542  11.648  0.00  0.00    +0.000 C 
ATOM     22  C   UNL     1      51.422   1.969  11.454  0.00  0.00    +0.000 C 
ATOM     23  C   UNL     1      55.188   1.678  10.967  0.00  0.00    +0.000 C 
ATOM     24  C   UNL     1      49.473   0.289  11.114  0.00  0.00    +0.000 C 
ATOM     25  C   UNL     1      52.608   0.220   9.868  0.00  0.00    +0.000 C 
ATOM     26  C   UNL     1      56.497   1.414  11.665  0.00  0.00    +0.000 C 
ENDROOT
BRANCH   8  27
ATOM     27  O   UNL     1      52.055   3.090   3.622  0.00  0.00    +0.000 OA
ATOM     28  H   UNL     1      51.189   3.529   3.744  0.00  0.00    +0.000 HD
ENDBRANCH   8  27
BRANCH  10  29
ATOM     29  O   UNL     1      54.334   1.724   3.659  0.00  0.00    +0.000 OA
ATOM     30  H   UNL     1      55.090   2.320   3.503  0.00  0.00    +0.000 HD
ENDBRANCH  10  29
BRANCH  15  31
ATOM     31  O   UNL     1      48.739   4.334  11.734  0.00  0.00    +0.000 OA
ATOM     32  H   UNL     1      48.042   5.016  11.628  0.00  0.00    +0.000 HD
ENDBRANCH  15  31
BRANCH  16  33
ATOM     33  O   UNL     1      48.253   2.274   9.443  0.00  0.00    +0.000 OA
ATOM     34  C   UNL     1      48.654   1.682   8.232  0.00  0.00    +0.000 C 
ENDBRANCH  16  33
BRANCH  21  35
ATOM     35  O   UNL     1      53.903   1.603  13.065  0.00  0.00    +0.000 OA
BRANCH  35  37
ATOM     36  O   UNL     1      52.456   0.125  14.159  0.00  0.00    +0.000 OA
ATOM     37  C   UNL     1      53.517   0.433  13.645  0.00  0.00    +0.000 C 
ATOM     38  C   UNL     1      54.543  -0.642  13.610  0.00  0.00    +0.000 C 
ENDBRANCH  35  37
ENDBRANCH  21  35
BRANCH   6  39
ATOM     39  C   UNL     1      51.692   5.840   6.275  0.00  0.00    +0.000 C 
BRANCH  39  41
ATOM     40  O   UNL     1      53.003   7.980   5.827  0.00  0.00    +0.000 OA
ATOM     41  C   UNL     1      52.976   6.545   6.008  0.00  0.00    +0.000 C 
ATOM     42  C   UNL     1      53.315   7.494   7.065  0.00  0.00    +0.000 C 
ATOM     43  C   UNL     1      54.030   5.878   5.054  0.00  0.00    +0.000 C 
BRANCH  42  44
ATOM     44  C   UNL     1      54.641   7.728   7.550  0.00  0.00    +0.000 C 
ATOM     45  C   UNL     1      55.537   8.729   6.859  0.00  0.00    +0.000 C 
BRANCH  44  46
ATOM     46  C   UNL     1      54.984   7.414   8.890  0.00  0.00    +0.000 C 
ATOM     47  C   UNL     1      55.232   7.123  10.026  0.00  0.00    +0.000 C 
ATOM     48  C   UNL     1      55.495   6.704  11.478  0.00  0.00    +0.000 C 
ENDBRANCH  44  46
ENDBRANCH  42  44
ENDBRANCH  39  41
BRANCH  39  49
ATOM     49  O   UNL     1      50.456   6.443   6.109  0.00  0.00    +0.000 OA
ATOM     50  H   UNL     1      50.497   7.391   5.881  0.00  0.00    +0.000 HD
ENDBRANCH  39  49
ENDBRANCH   6  39
BRANCH   8  51
ATOM     51  C   UNL     1      51.371   1.297   4.967  0.00  0.00    +0.000 C 
BRANCH  51  52
ATOM     52  O   UNL     1      50.554   0.251   5.089  0.00  0.00    +0.000 OA
ATOM     53  H   UNL     1      50.416   0.023   6.031  0.00  0.00    +0.000 HD
ENDBRANCH  51  52
ENDBRANCH   8  51
TORSDOF 13
ENDMDL
MODEL 7
REMARK VINA RESULT:      -5.1      3.426      8.620
REMARK  Name = 102471178_CandidaspongiolideCore.pdbqt.pdb
REMARK  13 active torsions:
REMARK  status: ('A' for Active; 'I' for Inactive)
REMARK    1  A    between atoms: C_6  and  C_39
REMARK    2  A    between atoms: C_8  and  O_27
REMARK    3  A    between atoms: C_8  and  C_51
REMARK    4  A    between atoms: C_10  and  O_29
REMARK    5  A    between atoms: C_15  and  O_31
REMARK    6  A    between atoms: C_16  and  O_33
REMARK    7  A    between atoms: C_21  and  O_35
REMARK    8  A    between atoms: O_35  and  C_37
REMARK    9  A    between atoms: C_39  and  C_41
REMARK   10  A    between atoms: C_39  and  O_49
REMARK   11  A    between atoms: C_42  and  C_44
REMARK   12  A    between atoms: C_44  and  C_46
REMARK   13  A    between atoms: C_51  and  O_52
REMARK                            x       y       z     vdW  Elec       q    Type
REMARK                         _______ _______ _______ _____ _____    ______ ____
ROOT
ATOM      1  O   UNL     1      53.936   6.149   3.566  0.00  0.00    +0.000 OA
ATOM      2  O   UNL     1      54.828   7.184   5.412  0.00  0.00    +0.000 OA
ATOM      3  O   UNL     1      55.579   7.998  10.230  0.00  0.00    +0.000 OA
ATOM      4  O   UNL     1      55.782   5.848   2.302  0.00  0.00    +0.000 OA
ATOM      5  O   UNL     1      57.473   8.576   3.745  0.00  0.00    +0.000 OA
ATOM      6  C   UNL     1      52.923   5.741   5.611  0.00  0.00    +0.000 C 
ATOM      7  C   UNL     1      52.349   6.285   6.794  0.00  0.00    +0.000 C 
ATOM      8  C   UNL     1      51.611   6.795   7.953  0.00  0.00    +0.000 C 
ATOM      9  C   UNL     1      54.013   6.441   4.881  0.00  0.00    +0.000 C 
ATOM     10  C   UNL     1      52.384   6.625   9.243  0.00  0.00    +0.000 C 
ATOM     11  C   UNL     1      53.777   6.863   9.383  0.00  0.00    +0.000 C 
ATOM     12  C   UNL     1      55.196   7.143   9.439  0.00  0.00    +0.000 C 
ATOM     13  C   UNL     1      54.957   6.596   2.813  0.00  0.00    +0.000 C 
ATOM     14  C   UNL     1      56.144   6.437   8.525  0.00  0.00    +0.000 C 
ATOM     15  C   UNL     1      54.864   8.008   2.363  0.00  0.00    +0.000 C 
ATOM     16  C   UNL     1      54.546   9.127   3.226  0.00  0.00    +0.000 C 
ATOM     17  C   UNL     1      55.509   9.908   3.990  0.00  0.00    +0.000 C 
ATOM     18  C   UNL     1      57.314   7.101   8.082  0.00  0.00    +0.000 C 
ATOM     19  C   UNL     1      57.049   9.330   5.956  0.00  0.00    +0.000 C 
ATOM     20  C   UNL     1      55.776   5.144   7.809  0.00  0.00    +0.000 C 
ATOM     21  C   UNL     1      58.225   8.622   6.451  0.00  0.00    +0.000 C 
ATOM     22  C   UNL     1      56.749   9.239   4.491  0.00  0.00    +0.000 C 
ATOM     23  C   UNL     1      58.320   7.796   7.646  0.00  0.00    +0.000 C 
ATOM     24  C   UNL     1      55.442  11.432   4.026  0.00  0.00    +0.000 C 
ATOM     25  C   UNL     1      56.035   9.867   6.956  0.00  0.00    +0.000 C 
ATOM     26  C   UNL     1      59.604   7.656   8.422  0.00  0.00    +0.000 C 
ENDROOT
BRANCH   8  27
ATOM     27  O   UNL     1      50.419   6.010   8.028  0.00  0.00    +0.000 OA
ATOM     28  H   UNL     1      49.737   6.636   8.346  0.00  0.00    +0.000 HD
ENDBRANCH   8  27
BRANCH  10  29
ATOM     29  O   UNL     1      51.658   6.259  10.365  0.00  0.00    +0.000 OA
ATOM     30  H   UNL     1      50.780   5.900  10.137  0.00  0.00    +0.000 HD
ENDBRANCH  10  29
BRANCH  15  31
ATOM     31  O   UNL     1      55.561   8.367   1.220  0.00  0.00    +0.000 OA
ATOM     32  H   UNL     1      55.083   9.073   0.735  0.00  0.00    +0.000 HD
ENDBRANCH  15  31
BRANCH  16  33
ATOM     33  O   UNL     1      53.368   9.786   2.925  0.00  0.00    +0.000 OA
ATOM     34  C   UNL     1      52.360   9.364   3.809  0.00  0.00    +0.000 C 
ENDBRANCH  16  33
BRANCH  21  35
ATOM     35  O   UNL     1      59.427   8.931   5.763  0.00  0.00    +0.000 OA
BRANCH  35  37
ATOM     36  O   UNL     1      60.009  10.838   6.986  0.00  0.00    +0.000 OA
ATOM     37  C   UNL     1      59.832  10.216   5.953  0.00  0.00    +0.000 C 
ATOM     38  C   UNL     1      60.140  10.958   4.703  0.00  0.00    +0.000 C 
ENDBRANCH  35  37
ENDBRANCH  21  35
BRANCH   6  39
ATOM     39  C   UNL     1      52.469   4.436   5.190  0.00  0.00    +0.000 C 
BRANCH  39  41
ATOM     40  O   UNL     1      51.398   3.451   7.284  0.00  0.00    +0.000 OA
ATOM     41  C   UNL     1      52.329   3.335   6.184  0.00  0.00    +0.000 C 
ATOM     42  C   UNL     1      50.987   2.757   6.181  0.00  0.00    +0.000 C 
ATOM     43  C   UNL     1      53.614   2.572   6.666  0.00  0.00    +0.000 C 
BRANCH  42  44
ATOM     44  C   UNL     1      50.705   1.364   6.348  0.00  0.00    +0.000 C 
ATOM     45  C   UNL     1      50.105   0.859   7.640  0.00  0.00    +0.000 C 
BRANCH  44  46
ATOM     46  C   UNL     1      50.534   0.524   5.218  0.00  0.00    +0.000 C 
ATOM     47  C   UNL     1      50.350  -0.160   4.250  0.00  0.00    +0.000 C 
ATOM     48  C   UNL     1      50.066  -0.988   2.990  0.00  0.00    +0.000 C 
ENDBRANCH  44  46
ENDBRANCH  42  44
ENDBRANCH  39  41
BRANCH  39  49
ATOM     49  O   UNL     1      52.246   4.256   3.835  0.00  0.00    +0.000 OA
ATOM     50  H   UNL     1      52.757   3.526   3.435  0.00  0.00    +0.000 HD
ENDBRANCH  39  49
ENDBRANCH   6  39
BRANCH   8  51
ATOM     51  C   UNL     1      51.211   8.201   7.777  0.00  0.00    +0.000 C 
BRANCH  51  52
ATOM     52  O   UNL     1      50.807   9.461   7.615  0.00  0.00    +0.000 OA
ATOM     53  H   UNL     1      50.217   9.736   8.346  0.00  0.00    +0.000 HD
ENDBRANCH  51  52
ENDBRANCH   8  51
TORSDOF 13
ENDMDL
MODEL 8
REMARK VINA RESULT:      -5.0     22.809     27.250
REMARK  Name = 102471178_CandidaspongiolideCore.pdbqt.pdb
REMARK  13 active torsions:
REMARK  status: ('A' for Active; 'I' for Inactive)
REMARK    1  A    between atoms: C_6  and  C_39
REMARK    2  A    between atoms: C_8  and  O_27
REMARK    3  A    between atoms: C_8  and  C_51
REMARK    4  A    between atoms: C_10  and  O_29
REMARK    5  A    between atoms: C_15  and  O_31
REMARK    6  A    between atoms: C_16  and  O_33
REMARK    7  A    between atoms: C_21  and  O_35
REMARK    8  A    between atoms: O_35  and  C_37
REMARK    9  A    between atoms: C_39  and  C_41
REMARK   10  A    between atoms: C_39  and  O_49
REMARK   11  A    between atoms: C_42  and  C_44
REMARK   12  A    between atoms: C_44  and  C_46
REMARK   13  A    between atoms: C_51  and  O_52
REMARK                            x       y       z     vdW  Elec       q    Type
REMARK                         _______ _______ _______ _____ _____    ______ ____
ROOT
ATOM      1  O   UNL     1      35.470  15.058  20.486  0.00  0.00    +0.000 OA
ATOM      2  O   UNL     1      33.885  16.075  21.801  0.00  0.00    +0.000 OA
ATOM      3  O   UNL     1      30.057  16.310  24.920  0.00  0.00    +0.000 OA
ATOM      4  O   UNL     1      37.329  16.185  21.095  0.00  0.00    +0.000 OA
ATOM      5  O   UNL     1      35.533  19.066  22.024  0.00  0.00    +0.000 OA
ATOM      6  C   UNL     1      33.690  13.760  21.207  0.00  0.00    +0.000 C 
ATOM      7  C   UNL     1      32.279  13.616  21.317  0.00  0.00    +0.000 C 
ATOM      8  C   UNL     1      30.838  13.350  21.313  0.00  0.00    +0.000 C 
ATOM      9  C   UNL     1      34.340  15.097  21.221  0.00  0.00    +0.000 C 
ATOM     10  C   UNL     1      30.232  13.465  22.695  0.00  0.00    +0.000 C 
ATOM     11  C   UNL     1      30.559  14.480  23.634  0.00  0.00    +0.000 C 
ATOM     12  C   UNL     1      30.940  15.557  24.523  0.00  0.00    +0.000 C 
ATOM     13  C   UNL     1      36.236  16.163  20.542  0.00  0.00    +0.000 C 
ATOM     14  C   UNL     1      32.373  15.759  24.897  0.00  0.00    +0.000 C 
ATOM     15  C   UNL     1      35.848  17.270  19.633  0.00  0.00    +0.000 C 
ATOM     16  C   UNL     1      34.500  17.782  19.489  0.00  0.00    +0.000 C 
ATOM     17  C   UNL     1      33.905  18.840  20.296  0.00  0.00    +0.000 C 
ATOM     18  C   UNL     1      32.850  17.067  25.157  0.00  0.00    +0.000 C 
ATOM     19  C   UNL     1      33.284  18.994  22.778  0.00  0.00    +0.000 C 
ATOM     20  C   UNL     1      33.420  14.666  24.733  0.00  0.00    +0.000 C 
ATOM     21  C   UNL     1      33.720  19.085  24.168  0.00  0.00    +0.000 C 
ATOM     22  C   UNL     1      34.342  18.999  21.716  0.00  0.00    +0.000 C 
ATOM     23  C   UNL     1      33.242  18.296  25.295  0.00  0.00    +0.000 C 
ATOM     24  C   UNL     1      33.095  19.964  19.655  0.00  0.00    +0.000 C 
ATOM     25  C   UNL     1      31.843  18.606  22.478  0.00  0.00    +0.000 C 
ATOM     26  C   UNL     1      33.222  18.841  26.700  0.00  0.00    +0.000 C 
ENDROOT
BRANCH   8  27
ATOM     27  O   UNL     1      30.695  12.000  20.864  0.00  0.00    +0.000 OA
ATOM     28  H   UNL     1      29.730  11.838  20.890  0.00  0.00    +0.000 HD
ENDBRANCH   8  27
BRANCH  10  29
ATOM     29  O   UNL     1      29.257  12.539  23.033  0.00  0.00    +0.000 OA
ATOM     30  H   UNL     1      29.310  11.732  22.488  0.00  0.00    +0.000 HD
ENDBRANCH  10  29
BRANCH  15  31
ATOM     31  O   UNL     1      36.829  18.178  19.266  0.00  0.00    +0.000 OA
ATOM     32  H   UNL     1      37.334  18.474  20.054  0.00  0.00    +0.000 HD
ENDBRANCH  15  31
BRANCH  16  33
ATOM     33  O   UNL     1      33.938  17.619  18.236  0.00  0.00    +0.000 OA
ATOM     34  C   UNL     1      32.740  16.893  18.355  0.00  0.00    +0.000 C 
ENDBRANCH  16  33
BRANCH  21  35
ATOM     35  O   UNL     1      34.575  20.182  24.442  0.00  0.00    +0.000 OA
BRANCH  35  37
ATOM     36  O   UNL     1      32.923  21.808  24.759  0.00  0.00    +0.000 OA
ATOM     37  C   UNL     1      33.962  21.387  24.281  0.00  0.00    +0.000 C 
ATOM     38  C   UNL     1      34.699  22.344  23.416  0.00  0.00    +0.000 C 
ENDBRANCH  35  37
ENDBRANCH  21  35
BRANCH   6  39
ATOM     39  C   UNL     1      34.481  12.552  21.169  0.00  0.00    +0.000 C 
BRANCH  39  41
ATOM     40  O   UNL     1      33.508  11.381  23.214  0.00  0.00    +0.000 OA
ATOM     41  C   UNL     1      34.650  11.728  22.398  0.00  0.00    +0.000 C 
ATOM     42  C   UNL     1      33.943  10.453  22.309  0.00  0.00    +0.000 C 
ATOM     43  C   UNL     1      35.894  11.981  23.323  0.00  0.00    +0.000 C 
BRANCH  42  44
ATOM     44  C   UNL     1      34.439   9.214  22.825  0.00  0.00    +0.000 C 
ATOM     45  C   UNL     1      35.636   8.550  22.184  0.00  0.00    +0.000 C 
BRANCH  44  46
ATOM     46  C   UNL     1      34.156   8.822  24.158  0.00  0.00    +0.000 C 
ATOM     47  C   UNL     1      33.877   8.522  25.285  0.00  0.00    +0.000 C 
ATOM     48  C   UNL     1      33.459   8.172  26.719  0.00  0.00    +0.000 C 
ENDBRANCH  44  46
ENDBRANCH  42  44
ENDBRANCH  39  41
BRANCH  39  49
ATOM     49  O   UNL     1      35.113  12.253  19.973  0.00  0.00    +0.000 OA
ATOM     50  H   UNL     1      35.903  12.796  19.786  0.00  0.00    +0.000 HD
ENDBRANCH  39  49
ENDBRANCH   6  39
BRANCH   8  51
ATOM     51  C   UNL     1      30.119  14.216  20.365  0.00  0.00    +0.000 C 
BRANCH  51  52
ATOM     52  O   UNL     1      29.481  14.974  19.473  0.00  0.00    +0.000 OA
ATOM     53  H   UNL     1      29.824  14.816  18.570  0.00  0.00    +0.000 HD
ENDBRANCH  51  52
ENDBRANCH   8  51
TORSDOF 13
ENDMDL
MODEL 9
REMARK VINA RESULT:      -4.5      2.471      6.971
REMARK  Name = 102471178_CandidaspongiolideCore.pdbqt.pdb
REMARK  13 active torsions:
REMARK  status: ('A' for Active; 'I' for Inactive)
REMARK    1  A    between atoms: C_6  and  C_39
REMARK    2  A    between atoms: C_8  and  O_27
REMARK    3  A    between atoms: C_8  and  C_51
REMARK    4  A    between atoms: C_10  and  O_29
REMARK    5  A    between atoms: C_15  and  O_31
REMARK    6  A    between atoms: C_16  and  O_33
REMARK    7  A    between atoms: C_21  and  O_35
REMARK    8  A    between atoms: O_35  and  C_37
REMARK    9  A    between atoms: C_39  and  C_41
REMARK   10  A    between atoms: C_39  and  O_49
REMARK   11  A    between atoms: C_42  and  C_44
REMARK   12  A    between atoms: C_44  and  C_46
REMARK   13  A    between atoms: C_51  and  O_52
REMARK                            x       y       z     vdW  Elec       q    Type
REMARK                         _______ _______ _______ _____ _____    ______ ____
ROOT
ATOM      1  O   UNL     1      50.875   4.072   8.656  0.00  0.00    +0.000 OA
ATOM      2  O   UNL     1      52.683   4.502  10.005  0.00  0.00    +0.000 OA
ATOM      3  O   UNL     1      57.263   6.008  11.099  0.00  0.00    +0.000 OA
ATOM      4  O   UNL     1      49.203   4.990   9.865  0.00  0.00    +0.000 OA
ATOM      5  O   UNL     1      50.895   4.562  12.922  0.00  0.00    +0.000 OA
ATOM      6  C   UNL     1      52.916   4.434   7.619  0.00  0.00    +0.000 C 
ATOM      7  C   UNL     1      54.295   4.094   7.535  0.00  0.00    +0.000 C 
ATOM      8  C   UNL     1      55.678   3.669   7.304  0.00  0.00    +0.000 C 
ATOM      9  C   UNL     1      52.170   4.354   8.903  0.00  0.00    +0.000 C 
ATOM     10  C   UNL     1      56.679   4.700   7.779  0.00  0.00    +0.000 C 
ATOM     11  C   UNL     1      56.568   5.430   8.993  0.00  0.00    +0.000 C 
ATOM     12  C   UNL     1      56.382   6.118  10.253  0.00  0.00    +0.000 C 
ATOM     13  C   UNL     1      50.057   4.123   9.725  0.00  0.00    +0.000 C 
ATOM     14  C   UNL     1      55.132   6.894  10.515  0.00  0.00    +0.000 C 
ATOM     15  C   UNL     1      50.018   2.905  10.571  0.00  0.00    +0.000 C 
ATOM     16  C   UNL     1      51.188   2.202  11.056  0.00  0.00    +0.000 C 
ATOM     17  C   UNL     1      51.898   2.491  12.295  0.00  0.00    +0.000 C 
ATOM     18  C   UNL     1      54.631   6.986  11.837  0.00  0.00    +0.000 C 
ATOM     19  C   UNL     1      53.262   4.512  13.087  0.00  0.00    +0.000 C 
ATOM     20  C   UNL     1      54.207   7.351   9.397  0.00  0.00    +0.000 C 
ATOM     21  C   UNL     1      53.288   5.905  13.520  0.00  0.00    +0.000 C 
ATOM     22  C   UNL     1      51.926   3.897  12.801  0.00  0.00    +0.000 C 
ATOM     23  C   UNL     1      54.180   6.957  13.053  0.00  0.00    +0.000 C 
ATOM     24  C   UNL     1      52.339   1.373  13.235  0.00  0.00    +0.000 C 
ATOM     25  C   UNL     1      54.563   3.844  12.664  0.00  0.00    +0.000 C 
ATOM     26  C   UNL     1      54.593   8.105  13.937  0.00  0.00    +0.000 C 
ENDROOT
BRANCH   8  27
ATOM     27  O   UNL     1      55.808   3.526   5.888  0.00  0.00    +0.000 OA
ATOM     28  H   UNL     1      56.556   4.112   5.654  0.00  0.00    +0.000 HD
ENDBRANCH   8  27
BRANCH  10  29
ATOM     29  O   UNL     1      57.801   4.896   6.989  0.00  0.00    +0.000 OA
ATOM     30  H   UNL     1      57.582   5.316   6.136  0.00  0.00    +0.000 HD
ENDBRANCH  10  29
BRANCH  15  31
ATOM     31  O   UNL     1      48.882   2.689  11.337  0.00  0.00    +0.000 OA
ATOM     32  H   UNL     1      48.600   3.520  11.774  0.00  0.00    +0.000 HD
ENDBRANCH  15  31
BRANCH  16  33
ATOM     33  O   UNL     1      51.332   0.907  10.591  0.00  0.00    +0.000 OA
ATOM     34  C   UNL     1      52.288   0.889   9.559  0.00  0.00    +0.000 C 
ENDBRANCH  16  33
BRANCH  21  35
ATOM     35  O   UNL     1      52.457   6.187  14.634  0.00  0.00    +0.000 OA
BRANCH  35  37
ATOM     36  O   UNL     1      51.028   7.563  13.395  0.00  0.00    +0.000 OA
ATOM     37  C   UNL     1      51.606   7.227  14.412  0.00  0.00    +0.000 C 
ATOM     38  C   UNL     1      51.316   8.054  15.612  0.00  0.00    +0.000 C 
ENDBRANCH  35  37
ENDBRANCH  21  35
BRANCH   6  39
ATOM     39  C   UNL     1      52.283   4.948   6.426  0.00  0.00    +0.000 C 
BRANCH  39  41
ATOM     40  O   UNL     1      53.736   7.040   6.318  0.00  0.00    +0.000 OA
ATOM     41  C   UNL     1      52.494   6.364   6.015  0.00  0.00    +0.000 C 
ATOM     42  C   UNL     1      53.596   6.505   5.068  0.00  0.00    +0.000 C 
ATOM     43  C   UNL     1      51.303   7.381   6.137  0.00  0.00    +0.000 C 
BRANCH  42  44
ATOM     44  C   UNL     1      53.601   7.411   3.960  0.00  0.00    +0.000 C 
ATOM     45  C   UNL     1      53.661   8.902   4.198  0.00  0.00    +0.000 C 
BRANCH  44  46
ATOM     46  C   UNL     1      54.010   6.974   2.675  0.00  0.00    +0.000 C 
ATOM     47  C   UNL     1      54.402   6.601   1.604  0.00  0.00    +0.000 C 
ATOM     48  C   UNL     1      54.965   6.106   0.266  0.00  0.00    +0.000 C 
ENDBRANCH  44  46
ENDBRANCH  42  44
ENDBRANCH  39  41
BRANCH  39  49
ATOM     49  O   UNL     1      51.436   4.088   5.746  0.00  0.00    +0.000 OA
ATOM     50  H   UNL     1      50.486   4.282   5.860  0.00  0.00    +0.000 HD
ENDBRANCH  39  49
ENDBRANCH   6  39
BRANCH   8  51
ATOM     51  C   UNL     1      55.962   2.360   7.915  0.00  0.00    +0.000 C 
BRANCH  51  52
ATOM     52  O   UNL     1      56.177   1.163   8.463  0.00  0.00    +0.000 OA
ATOM     53  H   UNL     1      56.652   1.248   9.314  0.00  0.00    +0.000 HD
ENDBRANCH  51  52
ENDBRANCH   8  51
TORSDOF 13
ENDMDL
