MODEL 1
REMARK VINA RESULT:      -5.8      0.000      0.000
REMARK  Name = 10281_Thymoquinone.pdbqt.pdb
REMARK  1 active torsions:
REMARK  status: ('A' for Active; 'I' for Inactive)
REMARK    1  A    between atoms: C_3  and  C_10
REMARK                            x       y       z     vdW  Elec       q    Type
REMARK                         _______ _______ _______ _____ _____    ______ ____
ROOT
ATOM      1  O   UNL     1      42.708   0.588  15.634  0.00  0.00    +0.000 OA
ATOM      2  O   UNL     1      38.991  -1.627  12.438  0.00  0.00    +0.000 OA
ATOM      3  C   UNL     1      40.357   0.404  15.097  0.00  0.00    +0.000 C 
ATOM      4  C   UNL     1      41.824   0.120  14.946  0.00  0.00    +0.000 C 
ATOM      5  C   UNL     1      39.655  -0.250  14.205  0.00  0.00    +0.000 C 
ATOM      6  C   UNL     1      41.405  -1.461  12.963  0.00  0.00    +0.000 C 
ATOM      7  C   UNL     1      39.906  -1.181  13.103  0.00  0.00    +0.000 C 
ATOM      8  C   UNL     1      42.098  -0.807  13.854  0.00  0.00    +0.000 C 
ATOM      9  C   UNL     1      42.046  -2.360  11.956  0.00  0.00    +0.000 C 
ENDROOT
BRANCH   3  10
ATOM     10  C   UNL     1      39.890   1.292  16.109  0.00  0.00    +0.000 C 
ATOM     11  C   UNL     1      39.728   2.765  15.824  0.00  0.00    +0.000 C 
ATOM     12  C   UNL     1      39.158   0.760  17.317  0.00  0.00    +0.000 C 
ENDBRANCH   3  10
TORSDOF 1
ENDMDL
MODEL 2
REMARK VINA RESULT:      -5.0     18.697     20.240
REMARK  Name = 10281_Thymoquinone.pdbqt.pdb
REMARK  1 active torsions:
REMARK  status: ('A' for Active; 'I' for Inactive)
REMARK    1  A    between atoms: C_3  and  C_10
REMARK                            x       y       z     vdW  Elec       q    Type
REMARK                         _______ _______ _______ _____ _____    ______ ____
ROOT
ATOM      1  O   UNL     1      50.718  19.381  10.985  0.00  0.00    +0.000 OA
ATOM      2  O   UNL     1      49.794  14.946  13.887  0.00  0.00    +0.000 OA
ATOM      3  C   UNL     1      49.730  17.174  11.042  0.00  0.00    +0.000 C 
ATOM      4  C   UNL     1      50.478  18.355  11.589  0.00  0.00    +0.000 C 
ATOM      5  C   UNL     1      49.634  16.220  11.934  0.00  0.00    +0.000 C 
ATOM      6  C   UNL     1      50.814  17.202  13.862  0.00  0.00    +0.000 C 
ATOM      7  C   UNL     1      50.054  15.989  13.318  0.00  0.00    +0.000 C 
ATOM      8  C   UNL     1      50.906  18.148  12.967  0.00  0.00    +0.000 C 
ATOM      9  C   UNL     1      51.395  17.339  15.232  0.00  0.00    +0.000 C 
ENDROOT
BRANCH   3  10
ATOM     10  C   UNL     1      49.232  17.185   9.706  0.00  0.00    +0.000 C 
ATOM     11  C   UNL     1      50.161  16.955   8.539  0.00  0.00    +0.000 C 
ATOM     12  C   UNL     1      47.759  17.002   9.435  0.00  0.00    +0.000 C 
ENDBRANCH   3  10
TORSDOF 1
ENDMDL
MODEL 3
REMARK VINA RESULT:      -4.7     15.259     17.104
REMARK  Name = 10281_Thymoquinone.pdbqt.pdb
REMARK  1 active torsions:
REMARK  status: ('A' for Active; 'I' for Inactive)
REMARK    1  A    between atoms: C_3  and  C_10
REMARK                            x       y       z     vdW  Elec       q    Type
REMARK                         _______ _______ _______ _____ _____    ______ ____
ROOT
ATOM      1  O   UNL     1      33.868  16.405  20.733  0.00  0.00    +0.000 OA
ATOM      2  O   UNL     1      36.046  11.503  21.139  0.00  0.00    +0.000 OA
ATOM      3  C   UNL     1      35.888  15.078  20.640  0.00  0.00    +0.000 C 
ATOM      4  C   UNL     1      34.417  15.324  20.812  0.00  0.00    +0.000 C 
ATOM      5  C   UNL     1      36.175  13.809  20.785  0.00  0.00    +0.000 C 
ATOM      6  C   UNL     1      33.960  12.831  21.240  0.00  0.00    +0.000 C 
ATOM      7  C   UNL     1      35.458  12.564  21.068  0.00  0.00    +0.000 C 
ATOM      8  C   UNL     1      33.681  14.098  21.094  0.00  0.00    +0.000 C 
ATOM      9  C   UNL     1      32.908  11.812  21.535  0.00  0.00    +0.000 C 
ENDROOT
BRANCH   3  10
ATOM     10  C   UNL     1      36.777  16.157  20.361  0.00  0.00    +0.000 C 
ATOM     11  C   UNL     1      36.675  17.454  21.127  0.00  0.00    +0.000 C 
ATOM     12  C   UNL     1      38.074  15.913  19.629  0.00  0.00    +0.000 C 
ENDBRANCH   3  10
TORSDOF 1
ENDMDL
MODEL 4
REMARK VINA RESULT:      -4.2     18.880     20.479
REMARK  Name = 10281_Thymoquinone.pdbqt.pdb
REMARK  1 active torsions:
REMARK  status: ('A' for Active; 'I' for Inactive)
REMARK    1  A    between atoms: C_3  and  C_10
REMARK                            x       y       z     vdW  Elec       q    Type
REMARK                         _______ _______ _______ _____ _____    ______ ____
ROOT
ATOM      1  O   UNL     1      51.488  19.940  14.465  0.00  0.00    +0.000 OA
ATOM      2  O   UNL     1      49.747  15.040  13.084  0.00  0.00    +0.000 OA
ATOM      3  C   UNL     1      50.784  17.756  15.231  0.00  0.00    +0.000 C 
ATOM      4  C   UNL     1      51.093  18.818  14.216  0.00  0.00    +0.000 C 
ATOM      5  C   UNL     1      50.378  16.653  14.653  0.00  0.00    +0.000 C 
ATOM      6  C   UNL     1      50.464  17.264  12.267  0.00  0.00    +0.000 C 
ATOM      7  C   UNL     1      50.143  16.171  13.290  0.00  0.00    +0.000 C 
ATOM      8  C   UNL     1      50.868  18.360  12.850  0.00  0.00    +0.000 C 
ATOM      9  C   UNL     1      50.350  17.146  10.782  0.00  0.00    +0.000 C 
ENDROOT
BRANCH   3  10
ATOM     10  C   UNL     1      50.940  18.016  16.624  0.00  0.00    +0.000 C 
ATOM     11  C   UNL     1      49.746  17.990  17.548  0.00  0.00    +0.000 C 
ATOM     12  C   UNL     1      52.294  17.903  17.279  0.00  0.00    +0.000 C 
ENDBRANCH   3  10
TORSDOF 1
ENDMDL
MODEL 5
REMARK VINA RESULT:      -3.3     16.009     17.639
REMARK  Name = 10281_Thymoquinone.pdbqt.pdb
REMARK  1 active torsions:
REMARK  status: ('A' for Active; 'I' for Inactive)
REMARK    1  A    between atoms: C_3  and  C_10
REMARK                            x       y       z     vdW  Elec       q    Type
REMARK                         _______ _______ _______ _____ _____    ______ ____
ROOT
ATOM      1  O   UNL     1      44.283  10.229  30.387  0.00  0.00    +0.000 OA
ATOM      2  O   UNL     1      42.427  10.085  25.340  0.00  0.00    +0.000 OA
ATOM      3  C   UNL     1      44.830  10.039  28.039  0.00  0.00    +0.000 C 
ATOM      4  C   UNL     1      43.925  10.190  29.227  0.00  0.00    +0.000 C 
ATOM      5  C   UNL     1      44.146  10.031  26.922  0.00  0.00    +0.000 C 
ATOM      6  C   UNL     1      41.834  10.283  27.735  0.00  0.00    +0.000 C 
ATOM      7  C   UNL     1      42.743  10.129  26.513  0.00  0.00    +0.000 C 
ATOM      8  C   UNL     1      42.522  10.290  28.845  0.00  0.00    +0.000 C 
ATOM      9  C   UNL     1      40.345  10.415  27.719  0.00  0.00    +0.000 C 
ENDROOT
BRANCH   3  10
ATOM     10  C   UNL     1      46.240   9.922  28.210  0.00  0.00    +0.000 C 
ATOM     11  C   UNL     1      47.099  11.153  28.370  0.00  0.00    +0.000 C 
ATOM     12  C   UNL     1      46.854   8.617  28.654  0.00  0.00    +0.000 C 
ENDBRANCH   3  10
TORSDOF 1
ENDMDL
MODEL 6
REMARK VINA RESULT:      -3.1     15.420     16.720
REMARK  Name = 10281_Thymoquinone.pdbqt.pdb
REMARK  1 active torsions:
REMARK  status: ('A' for Active; 'I' for Inactive)
REMARK    1  A    between atoms: C_3  and  C_10
REMARK                            x       y       z     vdW  Elec       q    Type
REMARK                         _______ _______ _______ _____ _____    ______ ____
ROOT
ATOM      1  O   UNL     1      40.550  10.336  29.723  0.00  0.00    +0.000 OA
ATOM      2  O   UNL     1      43.002   9.947  24.950  0.00  0.00    +0.000 OA
ATOM      3  C   UNL     1      40.290  10.031  27.338  0.00  0.00    +0.000 C 
ATOM      4  C   UNL     1      41.046  10.241  28.618  0.00  0.00    +0.000 C 
ATOM      5  C   UNL     1      41.104   9.970  26.314  0.00  0.00    +0.000 C 
ATOM      6  C   UNL     1      43.303  10.260  27.388  0.00  0.00    +0.000 C 
ATOM      7  C   UNL     1      42.546  10.048  26.073  0.00  0.00    +0.000 C 
ATOM      8  C   UNL     1      42.486  10.321  28.404  0.00  0.00    +0.000 C 
ATOM      9  C   UNL     1      44.783  10.387  27.545  0.00  0.00    +0.000 C 
ENDROOT
BRANCH   3  10
ATOM     10  C   UNL     1      38.868   9.931  27.342  0.00  0.00    +0.000 C 
ATOM     11  C   UNL     1      38.012  11.166  27.480  0.00  0.00    +0.000 C 
ATOM     12  C   UNL     1      38.185   8.700  26.798  0.00  0.00    +0.000 C 
ENDBRANCH   3  10
TORSDOF 1
ENDMDL
MODEL 7
REMARK VINA RESULT:      -3.1     18.913     20.517
REMARK  Name = 10281_Thymoquinone.pdbqt.pdb
REMARK  1 active torsions:
REMARK  status: ('A' for Active; 'I' for Inactive)
REMARK    1  A    between atoms: C_3  and  C_10
REMARK                            x       y       z     vdW  Elec       q    Type
REMARK                         _______ _______ _______ _____ _____    ______ ____
ROOT
ATOM      1  O   UNL     1      54.615  17.135  15.144  0.00  0.00    +0.000 OA
ATOM      2  O   UNL     1      49.838  15.273  13.515  0.00  0.00    +0.000 OA
ATOM      3  C   UNL     1      53.432  15.623  13.673  0.00  0.00    +0.000 C 
ATOM      4  C   UNL     1      53.567  16.676  14.735  0.00  0.00    +0.000 C 
ATOM      5  C   UNL     1      52.173  15.336  13.451  0.00  0.00    +0.000 C 
ATOM      6  C   UNL     1      51.019  16.832  15.032  0.00  0.00    +0.000 C 
ATOM      7  C   UNL     1      50.864  15.759  13.952  0.00  0.00    +0.000 C 
ATOM      8  C   UNL     1      52.275  17.114  15.249  0.00  0.00    +0.000 C 
ATOM      9  C   UNL     1      49.911  17.507  15.774  0.00  0.00    +0.000 C 
ENDROOT
BRANCH   3  10
ATOM     10  C   UNL     1      54.587  15.066  13.050  0.00  0.00    +0.000 C 
ATOM     11  C   UNL     1      55.395  13.999  13.747  0.00  0.00    +0.000 C 
ATOM     12  C   UNL     1      54.794  15.198  11.562  0.00  0.00    +0.000 C 
ENDBRANCH   3  10
TORSDOF 1
ENDMDL
MODEL 8
REMARK VINA RESULT:      -3.1     12.044     13.780
REMARK  Name = 10281_Thymoquinone.pdbqt.pdb
REMARK  1 active torsions:
REMARK  status: ('A' for Active; 'I' for Inactive)
REMARK    1  A    between atoms: C_3  and  C_10
REMARK                            x       y       z     vdW  Elec       q    Type
REMARK                         _______ _______ _______ _____ _____    ______ ____
ROOT
ATOM      1  O   UNL     1      30.350   6.138  21.845  0.00  0.00    +0.000 OA
ATOM      2  O   UNL     1      35.060   8.730  22.047  0.00  0.00    +0.000 OA
ATOM      3  C   UNL     1      32.689   6.033  22.453  0.00  0.00    +0.000 C 
ATOM      4  C   UNL     1      31.440   6.671  21.917  0.00  0.00    +0.000 C 
ATOM      5  C   UNL     1      33.702   6.861  22.398  0.00  0.00    +0.000 C 
ATOM      6  C   UNL     1      32.671   8.871  21.415  0.00  0.00    +0.000 C 
ATOM      7  C   UNL     1      33.953   8.235  21.958  0.00  0.00    +0.000 C 
ATOM      8  C   UNL     1      31.665   8.041  21.473  0.00  0.00    +0.000 C 
ATOM      9  C   UNL     1      32.531  10.258  20.877  0.00  0.00    +0.000 C 
ENDROOT
BRANCH   3  10
ATOM     10  C   UNL     1      32.671   4.691  22.934  0.00  0.00    +0.000 C 
ATOM     11  C   UNL     1      32.188   4.382  24.330  0.00  0.00    +0.000 C 
ATOM     12  C   UNL     1      32.718   3.531  21.971  0.00  0.00    +0.000 C 
ENDBRANCH   3  10
TORSDOF 1
ENDMDL
MODEL 9
REMARK VINA RESULT:      -3.1     18.707     20.149
REMARK  Name = 10281_Thymoquinone.pdbqt.pdb
REMARK  1 active torsions:
REMARK  status: ('A' for Active; 'I' for Inactive)
REMARK    1  A    between atoms: C_3  and  C_10
REMARK                            x       y       z     vdW  Elec       q    Type
REMARK                         _______ _______ _______ _____ _____    ______ ____
ROOT
ATOM      1  O   UNL     1      46.722 -12.271  -2.316  0.00  0.00    +0.000 OA
ATOM      2  O   UNL     1      45.639  -7.106  -1.269  0.00  0.00    +0.000 OA
ATOM      3  C   UNL     1      47.536 -10.179  -1.416  0.00  0.00    +0.000 C 
ATOM      4  C   UNL     1      46.537 -11.099  -2.055  0.00  0.00    +0.000 C 
ATOM      5  C   UNL     1      47.041  -8.976  -1.265  0.00  0.00    +0.000 C 
ATOM      6  C   UNL     1      44.774  -9.232  -2.196  0.00  0.00    +0.000 C 
ATOM      7  C   UNL     1      45.783  -8.281  -1.546  0.00  0.00    +0.000 C 
ATOM      8  C   UNL     1      45.274 -10.429  -2.344  0.00  0.00    +0.000 C 
ATOM      9  C   UNL     1      43.384  -8.889  -2.624  0.00  0.00    +0.000 C 
ENDROOT
BRANCH   3  10
ATOM     10  C   UNL     1      48.834 -10.650  -1.062  0.00  0.00    +0.000 C 
ATOM     11  C   UNL     1      50.009 -10.427  -1.982  0.00  0.00    +0.000 C 
ATOM     12  C   UNL     1      49.162 -10.989   0.372  0.00  0.00    +0.000 C 
ENDBRANCH   3  10
TORSDOF 1
ENDMDL
