MODEL 1
REMARK VINA RESULT:      -5.4      0.000      0.000
REMARK  Name = 10288191_Binimetinib.pdbqt.pdb
REMARK  6 active torsions:
REMARK  status: ('A' for Active; 'I' for Inactive)
REMARK    1  A    between atoms: C_6  and  N_21
REMARK    2  A    between atoms: C_7  and  C_14
REMARK    3  A    between atoms: N_13  and  O_16
REMARK    4  A    between atoms: O_16  and  C_17
REMARK    5  A    between atoms: C_18  and  O_19
REMARK    6  A    between atoms: N_21  and  C_25
REMARK                            x       y       z     vdW  Elec       q    Type
REMARK                         _______ _______ _______ _____ _____    ______ ____
ROOT
ATOM      1  F   UNL     1      45.574  -1.255 -12.532  0.00  0.00    +0.000 F 
ATOM      2  N   UNL     1      41.475  -2.870 -11.522  0.00  0.00    +0.000 N 
ATOM      3  N   UNL     1      43.343  -3.174 -12.656  0.00  0.00    +0.000 NA
ATOM      4  C   UNL     1      42.256  -1.803 -11.185  0.00  0.00    +0.000 A 
ATOM      5  C   UNL     1      43.428  -2.016 -11.906  0.00  0.00    +0.000 A 
ATOM      6  C   UNL     1      44.346   0.053 -10.947  0.00  0.00    +0.000 A 
ATOM      7  C   UNL     1      43.125   0.231 -10.245  0.00  0.00    +0.000 A 
ATOM      8  C   UNL     1      42.071  -0.694 -10.358  0.00  0.00    +0.000 A 
ATOM      9  C   UNL     1      44.473  -1.080 -11.785  0.00  0.00    +0.000 A 
ATOM     10  C   UNL     1      42.147  -3.667 -12.398  0.00  0.00    +0.000 A 
ATOM     11  C   UNL     1      40.164  -3.127 -11.023  0.00  0.00    +0.000 C 
ENDROOT
BRANCH   7  14
ATOM     12  O   UNL     1      43.733   1.736  -8.532  0.00  0.00    +0.000 OA
ATOM     13  N   UNL     1      41.723   2.128  -9.589  0.00  0.00    +0.000 N 
ATOM     14  C   UNL     1      42.895   1.430  -9.377  0.00  0.00    +0.000 C 
ATOM     15  H   UNL     1      40.908   1.692 -10.002  0.00  0.00    +0.000 HD
BRANCH  13  16
ATOM     16  O   UNL     1      41.424   3.061  -8.572  0.00  0.00    +0.000 OA
BRANCH  16  17
ATOM     17  C   UNL     1      40.330   2.609  -7.962  0.00  0.00    +0.000 C 
ATOM     18  C   UNL     1      39.077   2.092  -7.248  0.00  0.00    +0.000 C 
BRANCH  18  19
ATOM     19  O   UNL     1      37.993   1.647  -6.621  0.00  0.00    +0.000 OA
ATOM     20  H   UNL     1      37.648   2.330  -6.022  0.00  0.00    +0.000 HD
ENDBRANCH  18  19
ENDBRANCH  16  17
ENDBRANCH  13  16
ENDBRANCH   7  14
BRANCH   6  21
ATOM     21  N   UNL     1      45.411   0.975 -10.781  0.00  0.00    +0.000 N 
ATOM     22  H   UNL     1      45.090   1.946 -10.640  0.00  0.00    +0.000 HD
BRANCH  21  25
ATOM     23 BR   UNL     1      51.078   0.261  -8.646  0.00  0.00    +0.000 Br
ATOM     24  F   UNL     1      45.955  -0.534  -8.538  0.00  0.00    +0.000 F 
ATOM     25  C   UNL     1      46.738   0.798 -10.338  0.00  0.00    +0.000 A 
ATOM     26  C   UNL     1      46.984   0.047  -9.176  0.00  0.00    +0.000 A 
ATOM     27  C   UNL     1      47.835   1.401 -10.957  0.00  0.00    +0.000 A 
ATOM     28  C   UNL     1      48.267  -0.123  -8.664  0.00  0.00    +0.000 A 
ATOM     29  C   UNL     1      49.129   1.242 -10.460  0.00  0.00    +0.000 A 
ATOM     30  C   UNL     1      49.333   0.479  -9.317  0.00  0.00    +0.000 A 
ENDBRANCH  21  25
ENDBRANCH   6  21
TORSDOF 6
ENDMDL
MODEL 2
REMARK VINA RESULT:      -5.3      1.670      2.210
REMARK  Name = 10288191_Binimetinib.pdbqt.pdb
REMARK  6 active torsions:
REMARK  status: ('A' for Active; 'I' for Inactive)
REMARK    1  A    between atoms: C_6  and  N_21
REMARK    2  A    between atoms: C_7  and  C_14
REMARK    3  A    between atoms: N_13  and  O_16
REMARK    4  A    between atoms: O_16  and  C_17
REMARK    5  A    between atoms: C_18  and  O_19
REMARK    6  A    between atoms: N_21  and  C_25
REMARK                            x       y       z     vdW  Elec       q    Type
REMARK                         _______ _______ _______ _____ _____    ______ ____
ROOT
ATOM      1  F   UNL     1      43.872  -1.138 -12.212  0.00  0.00    +0.000 F 
ATOM      2  N   UNL     1      40.152  -3.453 -11.099  0.00  0.00    +0.000 N 
ATOM      3  N   UNL     1      41.890  -3.304 -12.451  0.00  0.00    +0.000 NA
ATOM      4  C   UNL     1      40.835  -2.356 -10.658  0.00  0.00    +0.000 A 
ATOM      5  C   UNL     1      41.926  -2.283 -11.519  0.00  0.00    +0.000 A 
ATOM      6  C   UNL     1      42.699  -0.291 -10.305  0.00  0.00    +0.000 A 
ATOM      7  C   UNL     1      41.561  -0.401  -9.464  0.00  0.00    +0.000 A 
ATOM      8  C   UNL     1      40.620  -1.433  -9.633  0.00  0.00    +0.000 A 
ATOM      9  C   UNL     1      42.858  -1.243 -11.339  0.00  0.00    +0.000 A 
ATOM     10  C   UNL     1      40.803  -3.995 -12.166  0.00  0.00    +0.000 A 
ATOM     11  C   UNL     1      38.954  -3.969 -10.525  0.00  0.00    +0.000 C 
ENDROOT
BRANCH   7  14
ATOM     12  O   UNL     1      42.240   1.161  -7.831  0.00  0.00    +0.000 OA
ATOM     13  N   UNL     1      39.972   0.818  -8.055  0.00  0.00    +0.000 N 
ATOM     14  C   UNL     1      41.296   0.596  -8.378  0.00  0.00    +0.000 C 
ATOM     15  H   UNL     1      39.256   0.125  -8.232  0.00  0.00    +0.000 HD
BRANCH  13  16
ATOM     16  O   UNL     1      39.792   1.537  -6.853  0.00  0.00    +0.000 OA
BRANCH  16  17
ATOM     17  C   UNL     1      38.640   2.192  -6.980  0.00  0.00    +0.000 C 
ATOM     18  C   UNL     1      37.308   2.937  -7.117  0.00  0.00    +0.000 C 
BRANCH  18  19
ATOM     19  O   UNL     1      36.150   3.579  -7.228  0.00  0.00    +0.000 OA
ATOM     20  H   UNL     1      35.494   3.196  -6.622  0.00  0.00    +0.000 HD
ENDBRANCH  18  19
ENDBRANCH  16  17
ENDBRANCH  13  16
ENDBRANCH   7  14
BRANCH   6  21
ATOM     21  N   UNL     1      43.657   0.733 -10.086  0.00  0.00    +0.000 N 
ATOM     22  H   UNL     1      43.274   1.546  -9.580  0.00  0.00    +0.000 HD
BRANCH  21  25
ATOM     23 BR   UNL     1      49.751   0.524 -10.010  0.00  0.00    +0.000 Br
ATOM     24  F   UNL     1      45.198   2.167 -11.868  0.00  0.00    +0.000 F 
ATOM     25  C   UNL     1      45.065   0.693 -10.014  0.00  0.00    +0.000 A 
ATOM     26  C   UNL     1      45.825   1.411 -10.952  0.00  0.00    +0.000 A 
ATOM     27  C   UNL     1      45.759  -0.096  -9.094  0.00  0.00    +0.000 A 
ATOM     28  C   UNL     1      47.216   1.373 -10.961  0.00  0.00    +0.000 A 
ATOM     29  C   UNL     1      47.153  -0.147  -9.086  0.00  0.00    +0.000 A 
ATOM     30  C   UNL     1      47.870   0.590 -10.020  0.00  0.00    +0.000 A 
ENDBRANCH  21  25
ENDBRANCH   6  21
TORSDOF 6
ENDMDL
MODEL 3
REMARK VINA RESULT:      -5.0      4.308      6.737
REMARK  Name = 10288191_Binimetinib.pdbqt.pdb
REMARK  6 active torsions:
REMARK  status: ('A' for Active; 'I' for Inactive)
REMARK    1  A    between atoms: C_6  and  N_21
REMARK    2  A    between atoms: C_7  and  C_14
REMARK    3  A    between atoms: N_13  and  O_16
REMARK    4  A    between atoms: O_16  and  C_17
REMARK    5  A    between atoms: C_18  and  O_19
REMARK    6  A    between atoms: N_21  and  C_25
REMARK                            x       y       z     vdW  Elec       q    Type
REMARK                         _______ _______ _______ _____ _____    ______ ____
ROOT
ATOM      1  F   UNL     1      41.201  -1.467  -8.985  0.00  0.00    +0.000 F 
ATOM      2  N   UNL     1      44.462  -0.269 -11.876  0.00  0.00    +0.000 N 
ATOM      3  N   UNL     1      43.213  -1.910 -11.090  0.00  0.00    +0.000 NA
ATOM      4  C   UNL     1      43.651   0.330 -10.956  0.00  0.00    +0.000 A 
ATOM      5  C   UNL     1      42.871  -0.718 -10.477  0.00  0.00    +0.000 A 
ATOM      6  C   UNL     1      41.719   0.870  -8.997  0.00  0.00    +0.000 A 
ATOM      7  C   UNL     1      42.550   1.900  -9.508  0.00  0.00    +0.000 A 
ATOM      8  C   UNL     1      43.523   1.640 -10.492  0.00  0.00    +0.000 A 
ATOM      9  C   UNL     1      41.904  -0.443  -9.491  0.00  0.00    +0.000 A 
ATOM     10  C   UNL     1      44.179  -1.601 -11.934  0.00  0.00    +0.000 A 
ATOM     11  C   UNL     1      45.442   0.392 -12.673  0.00  0.00    +0.000 C 
ENDROOT
BRANCH   7  14
ATOM     12  O   UNL     1      43.222   3.693  -8.128  0.00  0.00    +0.000 OA
ATOM     13  N   UNL     1      41.464   4.094  -9.563  0.00  0.00    +0.000 N 
ATOM     14  C   UNL     1      42.449   3.306  -9.001  0.00  0.00    +0.000 C 
ATOM     15  H   UNL     1      40.636   3.694  -9.987  0.00  0.00    +0.000 HD
BRANCH  13  16
ATOM     16  O   UNL     1      41.227   5.296  -8.861  0.00  0.00    +0.000 OA
BRANCH  16  17
ATOM     17  C   UNL     1      39.904   5.433  -8.793  0.00  0.00    +0.000 C 
ATOM     18  C   UNL     1      38.383   5.598  -8.703  0.00  0.00    +0.000 C 
BRANCH  18  19
ATOM     19  O   UNL     1      37.066   5.747  -8.619  0.00  0.00    +0.000 OA
ATOM     20  H   UNL     1      36.654   5.583  -9.484  0.00  0.00    +0.000 HD
ENDBRANCH  18  19
ENDBRANCH  16  17
ENDBRANCH  13  16
ENDBRANCH   7  14
BRANCH   6  21
ATOM     21  N   UNL     1      40.715   1.167  -8.039  0.00  0.00    +0.000 N 
ATOM     22  H   UNL     1      41.098   1.458  -7.126  0.00  0.00    +0.000 HD
BRANCH  21  25
ATOM     23 BR   UNL     1      34.845   2.749  -8.514  0.00  0.00    +0.000 Br
ATOM     24  F   UNL     1      39.202   1.873  -5.844  0.00  0.00    +0.000 F 
ATOM     25  C   UNL     1      39.370   1.566  -8.190  0.00  0.00    +0.000 A 
ATOM     26  C   UNL     1      38.615   1.894  -7.051  0.00  0.00    +0.000 A 
ATOM     27  C   UNL     1      38.714   1.582  -9.422  0.00  0.00    +0.000 A 
ATOM     28  C   UNL     1      37.273   2.249  -7.133  0.00  0.00    +0.000 A 
ATOM     29  C   UNL     1      37.369   1.936  -9.525  0.00  0.00    +0.000 A 
ATOM     30  C   UNL     1      36.659   2.268  -8.378  0.00  0.00    +0.000 A 
ENDBRANCH  21  25
ENDBRANCH   6  21
TORSDOF 6
ENDMDL
MODEL 4
REMARK VINA RESULT:      -4.8     21.601     24.424
REMARK  Name = 10288191_Binimetinib.pdbqt.pdb
REMARK  6 active torsions:
REMARK  status: ('A' for Active; 'I' for Inactive)
REMARK    1  A    between atoms: C_6  and  N_21
REMARK    2  A    between atoms: C_7  and  C_14
REMARK    3  A    between atoms: N_13  and  O_16
REMARK    4  A    between atoms: O_16  and  C_17
REMARK    5  A    between atoms: C_18  and  O_19
REMARK    6  A    between atoms: N_21  and  C_25
REMARK                            x       y       z     vdW  Elec       q    Type
REMARK                         _______ _______ _______ _____ _____    ______ ____
ROOT
ATOM      1  F   UNL     1      26.228   7.105   3.438  0.00  0.00    +0.000 F 
ATOM      2  N   UNL     1      27.870   8.760  -0.435  0.00  0.00    +0.000 N 
ATOM      3  N   UNL     1      26.540   7.277   0.514  0.00  0.00    +0.000 NA
ATOM      4  C   UNL     1      27.975   9.014   0.903  0.00  0.00    +0.000 A 
ATOM      5  C   UNL     1      27.127   8.073   1.480  0.00  0.00    +0.000 A 
ATOM      6  C   UNL     1      27.700   8.976   3.693  0.00  0.00    +0.000 A 
ATOM      7  C   UNL     1      28.563   9.905   3.055  0.00  0.00    +0.000 A 
ATOM      8  C   UNL     1      28.708   9.933   1.656  0.00  0.00    +0.000 A 
ATOM      9  C   UNL     1      26.995   8.056   2.882  0.00  0.00    +0.000 A 
ATOM     10  C   UNL     1      27.011   7.723  -0.635  0.00  0.00    +0.000 A 
ATOM     11  C   UNL     1      28.538   9.479  -1.469  0.00  0.00    +0.000 C 
ENDROOT
BRANCH   7  14
ATOM     12  O   UNL     1      29.779  10.566   4.967  0.00  0.00    +0.000 OA
ATOM     13  N   UNL     1      29.637  12.097   3.251  0.00  0.00    +0.000 N 
ATOM     14  C   UNL     1      29.381  10.879   3.848  0.00  0.00    +0.000 C 
ATOM     15  H   UNL     1      29.036  12.476   2.530  0.00  0.00    +0.000 HD
BRANCH  13  16
ATOM     16  O   UNL     1      30.157  13.067   4.136  0.00  0.00    +0.000 OA
BRANCH  16  17
ATOM     17  C   UNL     1      31.063  13.755   3.444  0.00  0.00    +0.000 C 
ATOM     18  C   UNL     1      32.107  14.536   2.639  0.00  0.00    +0.000 C 
BRANCH  18  19
ATOM     19  O   UNL     1      33.011  15.208   1.935  0.00  0.00    +0.000 OA
ATOM     20  H   UNL     1      33.906  14.902   2.160  0.00  0.00    +0.000 HD
ENDBRANCH  18  19
ENDBRANCH  16  17
ENDBRANCH  13  16
ENDBRANCH   7  14
BRANCH   6  21
ATOM     21  N   UNL     1      27.537   8.999   5.103  0.00  0.00    +0.000 N 
ATOM     22  H   UNL     1      28.423   8.876   5.616  0.00  0.00    +0.000 HD
BRANCH  21  25
ATOM     23 BR   UNL     1      23.066  11.363   8.511  0.00  0.00    +0.000 Br
ATOM     24  F   UNL     1      25.642   7.422   6.338  0.00  0.00    +0.000 F 
ATOM     25  C   UNL     1      26.540   9.576   5.917  0.00  0.00    +0.000 A 
ATOM     26  C   UNL     1      25.571   8.751   6.512  0.00  0.00    +0.000 A 
ATOM     27  C   UNL     1      26.415  10.954   6.107  0.00  0.00    +0.000 A 
ATOM     28  C   UNL     1      24.536   9.267   7.286  0.00  0.00    +0.000 A 
ATOM     29  C   UNL     1      25.386  11.491   6.881  0.00  0.00    +0.000 A 
ATOM     30  C   UNL     1      24.455  10.641   7.465  0.00  0.00    +0.000 A 
ENDBRANCH  21  25
ENDBRANCH   6  21
TORSDOF 6
ENDMDL
MODEL 5
REMARK VINA RESULT:      -4.7     35.405     37.710
REMARK  Name = 10288191_Binimetinib.pdbqt.pdb
REMARK  6 active torsions:
REMARK  status: ('A' for Active; 'I' for Inactive)
REMARK    1  A    between atoms: C_6  and  N_21
REMARK    2  A    between atoms: C_7  and  C_14
REMARK    3  A    between atoms: N_13  and  O_16
REMARK    4  A    between atoms: O_16  and  C_17
REMARK    5  A    between atoms: C_18  and  O_19
REMARK    6  A    between atoms: N_21  and  C_25
REMARK                            x       y       z     vdW  Elec       q    Type
REMARK                         _______ _______ _______ _____ _____    ______ ____
ROOT
ATOM      1  F   UNL     1      36.251  11.191  21.489  0.00  0.00    +0.000 F 
ATOM      2  N   UNL     1      35.483  15.628  21.885  0.00  0.00    +0.000 N 
ATOM      3  N   UNL     1      36.325  14.011  20.641  0.00  0.00    +0.000 NA
ATOM      4  C   UNL     1      35.233  14.488  22.592  0.00  0.00    +0.000 A 
ATOM      5  C   UNL     1      35.767  13.483  21.791  0.00  0.00    +0.000 A 
ATOM      6  C   UNL     1      35.054  11.827  23.461  0.00  0.00    +0.000 A 
ATOM      7  C   UNL     1      34.539  12.891  24.248  0.00  0.00    +0.000 A 
ATOM      8  C   UNL     1      34.624  14.229  23.821  0.00  0.00    +0.000 A 
ATOM      9  C   UNL     1      35.677  12.149  22.233  0.00  0.00    +0.000 A 
ATOM     10  C   UNL     1      36.133  15.314  20.730  0.00  0.00    +0.000 A 
ATOM     11  C   UNL     1      35.107  16.946  22.277  0.00  0.00    +0.000 C 
ENDROOT
BRANCH   7  14
ATOM     12  O   UNL     1      32.701  12.423  25.653  0.00  0.00    +0.000 OA
ATOM     13  N   UNL     1      34.751  12.664  26.677  0.00  0.00    +0.000 N 
ATOM     14  C   UNL     1      33.909  12.637  25.584  0.00  0.00    +0.000 C 
ATOM     15  H   UNL     1      35.624  13.176  26.667  0.00  0.00    +0.000 HD
BRANCH  13  16
ATOM     16  O   UNL     1      34.075  12.703  27.916  0.00  0.00    +0.000 OA
BRANCH  16  17
ATOM     17  C   UNL     1      34.710  13.607  28.658  0.00  0.00    +0.000 C 
ATOM     18  C   UNL     1      35.434  14.658  29.507  0.00  0.00    +0.000 C 
BRANCH  18  19
ATOM     19  O   UNL     1      36.057  15.575  30.240  0.00  0.00    +0.000 OA
ATOM     20  H   UNL     1      35.410  16.184  30.635  0.00  0.00    +0.000 HD
ENDBRANCH  18  19
ENDBRANCH  16  17
ENDBRANCH  13  16
ENDBRANCH   7  14
BRANCH   6  21
ATOM     21  N   UNL     1      34.915  10.483  23.893  0.00  0.00    +0.000 N 
ATOM     22  H   UNL     1      35.259  10.327  24.854  0.00  0.00    +0.000 HD
BRANCH  21  25
ATOM     23 BR   UNL     1      31.207   6.075  21.892  0.00  0.00    +0.000 Br
ATOM     24  F   UNL     1      35.798   8.460  22.239  0.00  0.00    +0.000 F 
ATOM     25  C   UNL     1      34.040   9.457  23.481  0.00  0.00    +0.000 A 
ATOM     26  C   UNL     1      34.509   8.454  22.617  0.00  0.00    +0.000 A 
ATOM     27  C   UNL     1      32.688   9.423  23.831  0.00  0.00    +0.000 A 
ATOM     28  C   UNL     1      33.680   7.443  22.139  0.00  0.00    +0.000 A 
ATOM     29  C   UNL     1      31.842   8.417  23.364  0.00  0.00    +0.000 A 
ATOM     30  C   UNL     1      32.346   7.434  22.522  0.00  0.00    +0.000 A 
ENDBRANCH  21  25
ENDBRANCH   6  21
TORSDOF 6
ENDMDL
MODEL 6
REMARK VINA RESULT:      -4.6      4.391      7.250
REMARK  Name = 10288191_Binimetinib.pdbqt.pdb
REMARK  6 active torsions:
REMARK  status: ('A' for Active; 'I' for Inactive)
REMARK    1  A    between atoms: C_6  and  N_21
REMARK    2  A    between atoms: C_7  and  C_14
REMARK    3  A    between atoms: N_13  and  O_16
REMARK    4  A    between atoms: O_16  and  C_17
REMARK    5  A    between atoms: C_18  and  O_19
REMARK    6  A    between atoms: N_21  and  C_25
REMARK                            x       y       z     vdW  Elec       q    Type
REMARK                         _______ _______ _______ _____ _____    ______ ____
ROOT
ATOM      1  F   UNL     1      41.386  -4.874 -12.862  0.00  0.00    +0.000 F 
ATOM      2  N   UNL     1      44.657  -1.767 -12.580  0.00  0.00    +0.000 N 
ATOM      3  N   UNL     1      43.960  -3.620 -13.554  0.00  0.00    +0.000 NA
ATOM      4  C   UNL     1      43.435  -2.007 -12.021  0.00  0.00    +0.000 A 
ATOM      5  C   UNL     1      43.013  -3.175 -12.651  0.00  0.00    +0.000 A 
ATOM      6  C   UNL     1      40.938  -3.085 -11.337  0.00  0.00    +0.000 A 
ATOM      7  C   UNL     1      41.421  -1.904 -10.713  0.00  0.00    +0.000 A 
ATOM      8  C   UNL     1      42.673  -1.356 -11.050  0.00  0.00    +0.000 A 
ATOM      9  C   UNL     1      41.759  -3.713 -12.302  0.00  0.00    +0.000 A 
ATOM     10  C   UNL     1      44.943  -2.742 -13.487  0.00  0.00    +0.000 A 
ATOM     11  C   UNL     1      45.500  -0.657 -12.281  0.00  0.00    +0.000 C 
ENDROOT
BRANCH   7  14
ATOM     12  O   UNL     1      40.455  -1.762  -8.565  0.00  0.00    +0.000 OA
ATOM     13  N   UNL     1      40.142   0.043  -9.962  0.00  0.00    +0.000 N 
ATOM     14  C   UNL     1      40.632  -1.208  -9.647  0.00  0.00    +0.000 C 
ATOM     15  H   UNL     1      39.978   0.328 -10.920  0.00  0.00    +0.000 HD
BRANCH  13  16
ATOM     16  O   UNL     1      39.182   0.526  -9.047  0.00  0.00    +0.000 OA
BRANCH  16  17
ATOM     17  C   UNL     1      39.598   1.735  -8.673  0.00  0.00    +0.000 C 
ATOM     18  C   UNL     1      40.089   3.123  -8.248  0.00  0.00    +0.000 C 
BRANCH  18  19
ATOM     19  O   UNL     1      40.522   4.325  -7.884  0.00  0.00    +0.000 OA
ATOM     20  H   UNL     1      40.438   4.949  -8.625  0.00  0.00    +0.000 HD
ENDBRANCH  18  19
ENDBRANCH  16  17
ENDBRANCH  13  16
ENDBRANCH   7  14
BRANCH   6  21
ATOM     21  N   UNL     1      39.653  -3.592 -11.012  0.00  0.00    +0.000 N 
ATOM     22  H   UNL     1      38.911  -3.254 -11.644  0.00  0.00    +0.000 HD
BRANCH  21  25
ATOM     23 BR   UNL     1      37.754  -8.647  -8.178  0.00  0.00    +0.000 Br
ATOM     24  F   UNL     1      38.871  -5.846 -12.397  0.00  0.00    +0.000 F 
ATOM     25  C   UNL     1      39.257  -4.758 -10.324  0.00  0.00    +0.000 A 
ATOM     26  C   UNL     1      38.837  -5.883 -11.054  0.00  0.00    +0.000 A 
ATOM     27  C   UNL     1      39.186  -4.834  -8.932  0.00  0.00    +0.000 A 
ATOM     28  C   UNL     1      38.391  -7.044 -10.431  0.00  0.00    +0.000 A 
ATOM     29  C   UNL     1      38.743  -5.989  -8.288  0.00  0.00    +0.000 A 
ATOM     30  C   UNL     1      38.350  -7.086  -9.045  0.00  0.00    +0.000 A 
ENDBRANCH  21  25
ENDBRANCH   6  21
TORSDOF 6
ENDMDL
MODEL 7
REMARK VINA RESULT:      -4.6      4.389      6.696
REMARK  Name = 10288191_Binimetinib.pdbqt.pdb
REMARK  6 active torsions:
REMARK  status: ('A' for Active; 'I' for Inactive)
REMARK    1  A    between atoms: C_6  and  N_21
REMARK    2  A    between atoms: C_7  and  C_14
REMARK    3  A    between atoms: N_13  and  O_16
REMARK    4  A    between atoms: O_16  and  C_17
REMARK    5  A    between atoms: C_18  and  O_19
REMARK    6  A    between atoms: N_21  and  C_25
REMARK                            x       y       z     vdW  Elec       q    Type
REMARK                         _______ _______ _______ _____ _____    ______ ____
ROOT
ATOM      1  F   UNL     1      42.895   3.651 -11.895  0.00  0.00    +0.000 F 
ATOM      2  N   UNL     1      45.255   0.505  -9.667  0.00  0.00    +0.000 N 
ATOM      3  N   UNL     1      45.302   2.111 -11.179  0.00  0.00    +0.000 NA
ATOM      4  C   UNL     1      43.978   0.987  -9.692  0.00  0.00    +0.000 A 
ATOM      5  C   UNL     1      44.030   1.999 -10.647  0.00  0.00    +0.000 A 
ATOM      6  C   UNL     1      41.644   2.438 -10.254  0.00  0.00    +0.000 A 
ATOM      7  C   UNL     1      41.641   1.386  -9.300  0.00  0.00    +0.000 A 
ATOM      8  C   UNL     1      42.806   0.652  -9.011  0.00  0.00    +0.000 A 
ATOM      9  C   UNL     1      42.855   2.722 -10.927  0.00  0.00    +0.000 A 
ATOM     10  C   UNL     1      46.018   1.192 -10.561  0.00  0.00    +0.000 A 
ATOM     11  C   UNL     1      45.728  -0.542  -8.822  0.00  0.00    +0.000 C 
ENDROOT
BRANCH   7  14
ATOM     12  O   UNL     1      39.610   0.199  -9.108  0.00  0.00    +0.000 OA
ATOM     13  N   UNL     1      40.182   1.564  -7.341  0.00  0.00    +0.000 N 
ATOM     14  C   UNL     1      40.387   0.992  -8.581  0.00  0.00    +0.000 C 
ATOM     15  H   UNL     1      40.606   2.446  -7.083  0.00  0.00    +0.000 HD
BRANCH  13  16
ATOM     16  O   UNL     1      38.874   1.386  -6.841  0.00  0.00    +0.000 OA
BRANCH  16  17
ATOM     17  C   UNL     1      38.253   2.553  -6.997  0.00  0.00    +0.000 C 
ATOM     18  C   UNL     1      37.535   3.897  -7.163  0.00  0.00    +0.000 C 
BRANCH  18  19
ATOM     19  O   UNL     1      36.911   5.062  -7.298  0.00  0.00    +0.000 OA
ATOM     20  H   UNL     1      37.473   5.688  -7.786  0.00  0.00    +0.000 HD
ENDBRANCH  18  19
ENDBRANCH  16  17
ENDBRANCH  13  16
ENDBRANCH   7  14
BRANCH   6  21
ATOM     21  N   UNL     1      40.467   3.192 -10.494  0.00  0.00    +0.000 N 
ATOM     22  H   UNL     1      39.631   2.605 -10.644  0.00  0.00    +0.000 HD
BRANCH  21  25
ATOM     23 BR   UNL     1      38.917   8.830  -8.760  0.00  0.00    +0.000 Br
ATOM     24  F   UNL     1      41.480   4.356  -8.208  0.00  0.00    +0.000 F 
ATOM     25  C   UNL     1      40.118   4.513 -10.144  0.00  0.00    +0.000 A 
ATOM     26  C   UNL     1      40.627   5.071  -8.960  0.00  0.00    +0.000 A 
ATOM     27  C   UNL     1      39.219   5.285 -10.883  0.00  0.00    +0.000 A 
ATOM     28  C   UNL     1      40.282   6.351  -8.538  0.00  0.00    +0.000 A 
ATOM     29  C   UNL     1      38.861   6.571 -10.478  0.00  0.00    +0.000 A 
ATOM     30  C   UNL     1      39.397   7.094  -9.308  0.00  0.00    +0.000 A 
ENDBRANCH  21  25
ENDBRANCH   6  21
TORSDOF 6
ENDMDL
MODEL 8
REMARK VINA RESULT:      -4.5     27.422     29.607
REMARK  Name = 10288191_Binimetinib.pdbqt.pdb
REMARK  6 active torsions:
REMARK  status: ('A' for Active; 'I' for Inactive)
REMARK    1  A    between atoms: C_6  and  N_21
REMARK    2  A    between atoms: C_7  and  C_14
REMARK    3  A    between atoms: N_13  and  O_16
REMARK    4  A    between atoms: O_16  and  C_17
REMARK    5  A    between atoms: C_18  and  O_19
REMARK    6  A    between atoms: N_21  and  C_25
REMARK                            x       y       z     vdW  Elec       q    Type
REMARK                         _______ _______ _______ _____ _____    ______ ____
ROOT
ATOM      1  F   UNL     1      56.034  20.926   8.717  0.00  0.00    +0.000 F 
ATOM      2  N   UNL     1      53.776  23.200  11.905  0.00  0.00    +0.000 N 
ATOM      3  N   UNL     1      55.653  23.014  10.760  0.00  0.00    +0.000 NA
ATOM      4  C   UNL     1      53.555  22.155  11.055  0.00  0.00    +0.000 A 
ATOM      5  C   UNL     1      54.746  22.057  10.342  0.00  0.00    +0.000 A 
ATOM      6  C   UNL     1      53.792  20.172   9.086  0.00  0.00    +0.000 A 
ATOM      7  C   UNL     1      52.604  20.305   9.853  0.00  0.00    +0.000 A 
ATOM      8  C   UNL     1      52.475  21.296  10.843  0.00  0.00    +0.000 A 
ATOM      9  C   UNL     1      54.861  21.058   9.356  0.00  0.00    +0.000 A 
ATOM     10  C   UNL     1      55.032  23.690  11.707  0.00  0.00    +0.000 A 
ATOM     11  C   UNL     1      52.836  23.718  12.843  0.00  0.00    +0.000 C 
ENDROOT
BRANCH   7  14
ATOM     12  O   UNL     1      50.811  19.405   8.610  0.00  0.00    +0.000 OA
ATOM     13  N   UNL     1      51.161  18.521  10.709  0.00  0.00    +0.000 N 
ATOM     14  C   UNL     1      51.446  19.374   9.661  0.00  0.00    +0.000 C 
ATOM     15  H   UNL     1      51.430  18.736  11.661  0.00  0.00    +0.000 HD
BRANCH  13  16
ATOM     16  O   UNL     1      49.910  17.878  10.596  0.00  0.00    +0.000 OA
BRANCH  16  17
ATOM     17  C   UNL     1      49.867  16.972  11.571  0.00  0.00    +0.000 C 
ATOM     18  C   UNL     1      49.830  15.923  12.688  0.00  0.00    +0.000 C 
BRANCH  18  19
ATOM     19  O   UNL     1      49.805  15.012  13.655  0.00  0.00    +0.000 OA
ATOM     20  H   UNL     1      49.548  14.147  13.293  0.00  0.00    +0.000 HD
ENDBRANCH  18  19
ENDBRANCH  16  17
ENDBRANCH  13  16
ENDBRANCH   7  14
BRANCH   6  21
ATOM     21  N   UNL     1      53.880  19.193   8.063  0.00  0.00    +0.000 N 
ATOM     22  H   UNL     1      53.793  19.588   7.114  0.00  0.00    +0.000 HD
BRANCH  21  25
ATOM     23 BR   UNL     1      56.457  13.676   7.735  0.00  0.00    +0.000 Br
ATOM     24  F   UNL     1      55.865  18.606   6.241  0.00  0.00    +0.000 F 
ATOM     25  C   UNL     1      54.482  17.918   8.041  0.00  0.00    +0.000 A 
ATOM     26  C   UNL     1      55.472  17.637   7.084  0.00  0.00    +0.000 A 
ATOM     27  C   UNL     1      54.090  16.875   8.884  0.00  0.00    +0.000 A 
ATOM     28  C   UNL     1      56.068  16.385   6.984  0.00  0.00    +0.000 A 
ATOM     29  C   UNL     1      54.676  15.613   8.800  0.00  0.00    +0.000 A 
ATOM     30  C   UNL     1      55.662  15.378   7.849  0.00  0.00    +0.000 A 
ENDBRANCH  21  25
ENDBRANCH   6  21
TORSDOF 6
ENDMDL
MODEL 9
REMARK VINA RESULT:      -4.4     24.117     27.337
REMARK  Name = 10288191_Binimetinib.pdbqt.pdb
REMARK  6 active torsions:
REMARK  status: ('A' for Active; 'I' for Inactive)
REMARK    1  A    between atoms: C_6  and  N_21
REMARK    2  A    between atoms: C_7  and  C_14
REMARK    3  A    between atoms: N_13  and  O_16
REMARK    4  A    between atoms: O_16  and  C_17
REMARK    5  A    between atoms: C_18  and  O_19
REMARK    6  A    between atoms: N_21  and  C_25
REMARK                            x       y       z     vdW  Elec       q    Type
REMARK                         _______ _______ _______ _____ _____    ______ ____
ROOT
ATOM      1  F   UNL     1      18.795   2.296   3.764  0.00  0.00    +0.000 F 
ATOM      2  N   UNL     1      19.277   4.280   7.797  0.00  0.00    +0.000 N 
ATOM      3  N   UNL     1      18.047   2.950   6.537  0.00  0.00    +0.000 NA
ATOM      4  C   UNL     1      19.958   4.202   6.616  0.00  0.00    +0.000 A 
ATOM      5  C   UNL     1      19.169   3.358   5.840  0.00  0.00    +0.000 A 
ATOM      6  C   UNL     1      20.792   3.591   4.009  0.00  0.00    +0.000 A 
ATOM      7  C   UNL     1      21.552   4.459   4.837  0.00  0.00    +0.000 A 
ATOM      8  C   UNL     1      21.143   4.772   6.146  0.00  0.00    +0.000 A 
ATOM      9  C   UNL     1      19.591   3.056   4.531  0.00  0.00    +0.000 A 
ATOM     10  C   UNL     1      18.146   3.525   7.720  0.00  0.00    +0.000 A 
ATOM     11  C   UNL     1      19.691   5.018   8.944  0.00  0.00    +0.000 C 
ENDROOT
BRANCH   7  14
ATOM     12  O   UNL     1      23.798   4.411   4.113  0.00  0.00    +0.000 OA
ATOM     13  N   UNL     1      22.773   6.474   4.168  0.00  0.00    +0.000 N 
ATOM     14  C   UNL     1      22.810   5.105   4.340  0.00  0.00    +0.000 C 
ATOM     15  H   UNL     1      22.122   7.059   4.676  0.00  0.00    +0.000 HD
BRANCH  13  16
ATOM     16  O   UNL     1      24.044   7.059   3.978  0.00  0.00    +0.000 OA
BRANCH  16  17
ATOM     17  C   UNL     1      24.387   7.594   5.148  0.00  0.00    +0.000 C 
ATOM     18  C   UNL     1      24.770   8.205   6.500  0.00  0.00    +0.000 C 
BRANCH  18  19
ATOM     19  O   UNL     1      25.096   8.732   7.675  0.00  0.00    +0.000 OA
ATOM     20  H   UNL     1      25.146   8.035   8.352  0.00  0.00    +0.000 HD
ENDBRANCH  18  19
ENDBRANCH  16  17
ENDBRANCH  13  16
ENDBRANCH   7  14
BRANCH   6  21
ATOM     21  N   UNL     1      21.251   3.256   2.709  0.00  0.00    +0.000 N 
ATOM     22  H   UNL     1      21.362   4.076   2.093  0.00  0.00    +0.000 HD
BRANCH  21  25
ATOM     23 BR   UNL     1      24.405  -1.446   0.445  0.00  0.00    +0.000 Br
ATOM     24  F   UNL     1      23.389   3.608   1.003  0.00  0.00    +0.000 F 
ATOM     25  C   UNL     1      21.983   2.147   2.236  0.00  0.00    +0.000 A 
ATOM     26  C   UNL     1      23.051   2.354   1.345  0.00  0.00    +0.000 A 
ATOM     27  C   UNL     1      21.654   0.827   2.548  0.00  0.00    +0.000 A 
ATOM     28  C   UNL     1      23.779   1.298   0.809  0.00  0.00    +0.000 A 
ATOM     29  C   UNL     1      22.373  -0.246   2.021  0.00  0.00    +0.000 A 
ATOM     30  C   UNL     1      23.432  -0.000   1.155  0.00  0.00    +0.000 A 
ENDBRANCH  21  25
ENDBRANCH   6  21
TORSDOF 6
ENDMDL
