MODEL 1
REMARK VINA RESULT:      -7.9      0.000      0.000
REMARK  Name = 10639_Physcion.pdbqt.pdb
REMARK  3 active torsions:
REMARK  status: ('A' for Active; 'I' for Inactive)
REMARK    1  A    between atoms: C_10  and  O_18
REMARK    2  A    between atoms: C_12  and  O_20
REMARK    3  A    between atoms: C_15  and  O_22
REMARK                            x       y       z     vdW  Elec       q    Type
REMARK                         _______ _______ _______ _____ _____    ______ ____
ROOT
ATOM      1  O   UNL     1      40.322   1.184  12.907  0.00  0.00    +0.000 OA
ATOM      2  O   UNL     1      40.627  -2.646  16.597  0.00  0.00    +0.000 OA
ATOM      3  C   UNL     1      40.069  -0.436  16.080  0.00  0.00    +0.000 A 
ATOM      4  C   UNL     1      39.993   0.559  15.109  0.00  0.00    +0.000 A 
ATOM      5  C   UNL     1      40.913  -1.082  13.366  0.00  0.00    +0.000 A 
ATOM      6  C   UNL     1      40.978  -2.060  14.359  0.00  0.00    +0.000 A 
ATOM      7  C   UNL     1      40.411   0.271  13.720  0.00  0.00    +0.000 C 
ATOM      8  C   UNL     1      40.562  -1.775  15.741  0.00  0.00    +0.000 C 
ATOM      9  C   UNL     1      39.678  -0.182  17.396  0.00  0.00    +0.000 A 
ATOM     10  C   UNL     1      39.515   1.825  15.477  0.00  0.00    +0.000 A 
ATOM     11  C   UNL     1      39.207   1.079  17.745  0.00  0.00    +0.000 A 
ATOM     12  C   UNL     1      41.325  -1.424  12.072  0.00  0.00    +0.000 A 
ATOM     13  C   UNL     1      41.443  -3.348  14.074  0.00  0.00    +0.000 A 
ATOM     14  C   UNL     1      39.123   2.086  16.790  0.00  0.00    +0.000 A 
ATOM     15  C   UNL     1      41.851  -3.681  12.786  0.00  0.00    +0.000 A 
ATOM     16  C   UNL     1      41.789  -2.711  11.788  0.00  0.00    +0.000 A 
ATOM     17  C   UNL     1      38.787   1.350  19.159  0.00  0.00    +0.000 C 
ENDROOT
BRANCH  10  18
ATOM     18  O   UNL     1      39.404   2.866  14.595  0.00  0.00    +0.000 OA
ATOM     19  H   UNL     1      40.242   2.938  14.080  0.00  0.00    +0.000 HD
ENDBRANCH  10  18
BRANCH  12  20
ATOM     20  O   UNL     1      41.290  -0.521  11.049  0.00  0.00    +0.000 OA
ATOM     21  H   UNL     1      42.060   0.073  11.103  0.00  0.00    +0.000 HD
ENDBRANCH  12  20
BRANCH  15  22
ATOM     22  O   UNL     1      42.290  -4.969  12.609  0.00  0.00    +0.000 OA
ATOM     23  C   UNL     1      43.267  -5.394  13.521  0.00  0.00    +0.000 C 
ENDBRANCH  15  22
TORSDOF 3
ENDMDL
MODEL 2
REMARK VINA RESULT:      -7.2      1.626      2.052
REMARK  Name = 10639_Physcion.pdbqt.pdb
REMARK  3 active torsions:
REMARK  status: ('A' for Active; 'I' for Inactive)
REMARK    1  A    between atoms: C_10  and  O_18
REMARK    2  A    between atoms: C_12  and  O_20
REMARK    3  A    between atoms: C_15  and  O_22
REMARK                            x       y       z     vdW  Elec       q    Type
REMARK                         _______ _______ _______ _____ _____    ______ ____
ROOT
ATOM      1  O   UNL     1      39.233   1.989  14.440  0.00  0.00    +0.000 OA
ATOM      2  O   UNL     1      42.386  -0.955  17.568  0.00  0.00    +0.000 OA
ATOM      3  C   UNL     1      40.854   0.802  17.393  0.00  0.00    +0.000 A 
ATOM      4  C   UNL     1      40.033   1.567  16.569  0.00  0.00    +0.000 A 
ATOM      5  C   UNL     1      40.791   0.184  14.546  0.00  0.00    +0.000 A 
ATOM      6  C   UNL     1      41.605  -0.565  15.396  0.00  0.00    +0.000 A 
ATOM      7  C   UNL     1      39.973   1.285  15.118  0.00  0.00    +0.000 C 
ATOM      8  C   UNL     1      41.666  -0.286  16.839  0.00  0.00    +0.000 C 
ATOM      9  C   UNL     1      40.923   1.055  18.765  0.00  0.00    +0.000 A 
ATOM     10  C   UNL     1      39.275   2.598  17.141  0.00  0.00    +0.000 A 
ATOM     11  C   UNL     1      40.164   2.081  19.318  0.00  0.00    +0.000 A 
ATOM     12  C   UNL     1      40.784  -0.138  13.183  0.00  0.00    +0.000 A 
ATOM     13  C   UNL     1      42.393  -1.611  14.904  0.00  0.00    +0.000 A 
ATOM     14  C   UNL     1      39.338   2.856  18.511  0.00  0.00    +0.000 A 
ATOM     15  C   UNL     1      42.380  -1.925  13.549  0.00  0.00    +0.000 A 
ATOM     16  C   UNL     1      41.571  -1.182  12.693  0.00  0.00    +0.000 A 
ATOM     17  C   UNL     1      40.240   2.350  20.791  0.00  0.00    +0.000 C 
ENDROOT
BRANCH  10  18
ATOM     18  O   UNL     1      38.440   3.402  16.413  0.00  0.00    +0.000 OA
ATOM     19  H   UNL     1      38.616   3.259  15.453  0.00  0.00    +0.000 HD
ENDBRANCH  10  18
BRANCH  12  20
ATOM     20  O   UNL     1      40.013   0.551  12.291  0.00  0.00    +0.000 OA
ATOM     21  H   UNL     1      39.973   1.491  12.542  0.00  0.00    +0.000 HD
ENDBRANCH  12  20
BRANCH  15  22
ATOM     22  O   UNL     1      43.188  -2.967  13.166  0.00  0.00    +0.000 OA
ATOM     23  C   UNL     1      44.042  -3.454  14.165  0.00  0.00    +0.000 C 
ENDBRANCH  15  22
TORSDOF 3
ENDMDL
MODEL 3
REMARK VINA RESULT:      -6.6      2.301      6.337
REMARK  Name = 10639_Physcion.pdbqt.pdb
REMARK  3 active torsions:
REMARK  status: ('A' for Active; 'I' for Inactive)
REMARK    1  A    between atoms: C_10  and  O_18
REMARK    2  A    between atoms: C_12  and  O_20
REMARK    3  A    between atoms: C_15  and  O_22
REMARK                            x       y       z     vdW  Elec       q    Type
REMARK                         _______ _______ _______ _____ _____    ______ ____
ROOT
ATOM      1  O   UNL     1      39.284   2.235  14.973  0.00  0.00    +0.000 OA
ATOM      2  O   UNL     1      42.375  -0.883  17.990  0.00  0.00    +0.000 OA
ATOM      3  C   UNL     1      41.581  -0.353  15.857  0.00  0.00    +0.000 A 
ATOM      4  C   UNL     1      40.770   0.466  15.076  0.00  0.00    +0.000 A 
ATOM      5  C   UNL     1      40.053   1.747  17.178  0.00  0.00    +0.000 A 
ATOM      6  C   UNL     1      40.874   0.911  17.936  0.00  0.00    +0.000 A 
ATOM      7  C   UNL     1      39.979   1.544  15.708  0.00  0.00    +0.000 C 
ATOM      8  C   UNL     1      41.662  -0.160  17.308  0.00  0.00    +0.000 C 
ATOM      9  C   UNL     1      42.335  -1.375  15.275  0.00  0.00    +0.000 A 
ATOM     10  C   UNL     1      40.723   0.247  13.692  0.00  0.00    +0.000 A 
ATOM     11  C   UNL     1      42.277  -1.580  13.901  0.00  0.00    +0.000 A 
ATOM     12  C   UNL     1      39.332   2.747  17.844  0.00  0.00    +0.000 A 
ATOM     13  C   UNL     1      40.977   1.065  19.323  0.00  0.00    +0.000 A 
ATOM     14  C   UNL     1      41.473  -0.773  13.104  0.00  0.00    +0.000 A 
ATOM     15  C   UNL     1      40.258   2.060  19.977  0.00  0.00    +0.000 A 
ATOM     16  C   UNL     1      39.435   2.899  19.228  0.00  0.00    +0.000 A 
ATOM     17  C   UNL     1      43.087  -2.678  13.280  0.00  0.00    +0.000 C 
ENDROOT
BRANCH  10  18
ATOM     18  O   UNL     1      39.957   0.999  12.842  0.00  0.00    +0.000 OA
ATOM     19  H   UNL     1      39.014   0.942  13.128  0.00  0.00    +0.000 HD
ENDBRANCH  10  18
BRANCH  12  20
ATOM     20  O   UNL     1      38.509   3.602  17.170  0.00  0.00    +0.000 OA
ATOM     21  H   UNL     1      37.733   3.818  17.717  0.00  0.00    +0.000 HD
ENDBRANCH  12  20
BRANCH  15  22
ATOM     22  O   UNL     1      40.427   2.128  21.337  0.00  0.00    +0.000 OA
ATOM     23  C   UNL     1      41.493   2.932  21.764  0.00  0.00    +0.000 C 
ENDBRANCH  15  22
TORSDOF 3
ENDMDL
MODEL 4
REMARK VINA RESULT:      -6.5     17.205     20.353
REMARK  Name = 10639_Physcion.pdbqt.pdb
REMARK  3 active torsions:
REMARK  status: ('A' for Active; 'I' for Inactive)
REMARK    1  A    between atoms: C_10  and  O_18
REMARK    2  A    between atoms: C_12  and  O_20
REMARK    3  A    between atoms: C_15  and  O_22
REMARK                            x       y       z     vdW  Elec       q    Type
REMARK                         _______ _______ _______ _____ _____    ______ ____
ROOT
ATOM      1  O   UNL     1      38.069  15.485  19.681  0.00  0.00    +0.000 OA
ATOM      2  O   UNL     1      34.277  18.890  21.233  0.00  0.00    +0.000 OA
ATOM      3  C   UNL     1      34.957  16.669  20.974  0.00  0.00    +0.000 A 
ATOM      4  C   UNL     1      35.954  15.786  20.566  0.00  0.00    +0.000 A 
ATOM      5  C   UNL     1      37.438  17.774  19.917  0.00  0.00    +0.000 A 
ATOM      6  C   UNL     1      36.422  18.635  20.334  0.00  0.00    +0.000 A 
ATOM      7  C   UNL     1      37.227  16.307  20.024  0.00  0.00    +0.000 C 
ATOM      8  C   UNL     1      35.155  18.119  20.873  0.00  0.00    +0.000 C 
ATOM      9  C   UNL     1      33.748  16.194  21.488  0.00  0.00    +0.000 A 
ATOM     10  C   UNL     1      35.722  14.408  20.680  0.00  0.00    +0.000 A 
ATOM     11  C   UNL     1      33.534  14.824  21.595  0.00  0.00    +0.000 A 
ATOM     12  C   UNL     1      38.618  18.337  19.414  0.00  0.00    +0.000 A 
ATOM     13  C   UNL     1      36.575  20.023  20.253  0.00  0.00    +0.000 A 
ATOM     14  C   UNL     1      34.517  13.926  21.193  0.00  0.00    +0.000 A 
ATOM     15  C   UNL     1      37.750  20.575  19.752  0.00  0.00    +0.000 A 
ATOM     16  C   UNL     1      38.769  19.723  19.334  0.00  0.00    +0.000 A 
ATOM     17  C   UNL     1      32.236  14.317  22.147  0.00  0.00    +0.000 C 
ENDROOT
BRANCH  10  18
ATOM     18  O   UNL     1      36.640  13.463  20.306  0.00  0.00    +0.000 OA
ATOM     19  H   UNL     1      37.541  13.860  20.351  0.00  0.00    +0.000 HD
ENDBRANCH  10  18
BRANCH  12  20
ATOM     20  O   UNL     1      39.655  17.558  18.988  0.00  0.00    +0.000 OA
ATOM     21  H   UNL     1      40.407  18.119  18.726  0.00  0.00    +0.000 HD
ENDBRANCH  12  20
BRANCH  15  22
ATOM     22  O   UNL     1      37.801  21.946  19.713  0.00  0.00    +0.000 OA
ATOM     23  C   UNL     1      38.054  22.566  20.945  0.00  0.00    +0.000 C 
ENDBRANCH  15  22
TORSDOF 3
ENDMDL
MODEL 5
REMARK VINA RESULT:      -6.5     14.987     18.793
REMARK  Name = 10639_Physcion.pdbqt.pdb
REMARK  3 active torsions:
REMARK  status: ('A' for Active; 'I' for Inactive)
REMARK    1  A    between atoms: C_10  and  O_18
REMARK    2  A    between atoms: C_12  and  O_20
REMARK    3  A    between atoms: C_15  and  O_22
REMARK                            x       y       z     vdW  Elec       q    Type
REMARK                         _______ _______ _______ _____ _____    ______ ____
ROOT
ATOM      1  O   UNL     1      33.790  17.106  21.751  0.00  0.00    +0.000 OA
ATOM      2  O   UNL     1      38.163  14.863  19.695  0.00  0.00    +0.000 OA
ATOM      3  C   UNL     1      36.957  16.819  20.127  0.00  0.00    +0.000 A 
ATOM      4  C   UNL     1      35.811  17.397  20.666  0.00  0.00    +0.000 A 
ATOM      5  C   UNL     1      34.967  15.071  21.341  0.00  0.00    +0.000 A 
ATOM      6  C   UNL     1      36.125  14.520  20.792  0.00  0.00    +0.000 A 
ATOM      7  C   UNL     1      34.777  16.544  21.292  0.00  0.00    +0.000 C 
ATOM      8  C   UNL     1      37.154  15.366  20.170  0.00  0.00    +0.000 C 
ATOM      9  C   UNL     1      37.944  17.609  19.532  0.00  0.00    +0.000 A 
ATOM     10  C   UNL     1      35.664  18.789  20.602  0.00  0.00    +0.000 A 
ATOM     11  C   UNL     1      37.783  18.989  19.477  0.00  0.00    +0.000 A 
ATOM     12  C   UNL     1      34.030  14.204  21.917  0.00  0.00    +0.000 A 
ATOM     13  C   UNL     1      36.348  13.139  20.816  0.00  0.00    +0.000 A 
ATOM     14  C   UNL     1      36.645  19.585  20.010  0.00  0.00    +0.000 A 
ATOM     15  C   UNL     1      35.413  12.283  21.390  0.00  0.00    +0.000 A 
ATOM     16  C   UNL     1      34.253  12.826  21.940  0.00  0.00    +0.000 A 
ATOM     17  C   UNL     1      38.844  19.835  18.838  0.00  0.00    +0.000 C 
ENDROOT
BRANCH  10  18
ATOM     18  O   UNL     1      34.574  19.448  21.105  0.00  0.00    +0.000 OA
ATOM     19  H   UNL     1      34.308  20.154  20.469  0.00  0.00    +0.000 HD
ENDBRANCH  10  18
BRANCH  12  20
ATOM     20  O   UNL     1      32.874  14.670  22.473  0.00  0.00    +0.000 OA
ATOM     21  H   UNL     1      33.012  15.567  22.826  0.00  0.00    +0.000 HD
ENDBRANCH  12  20
BRANCH  15  22
ATOM     22  O   UNL     1      35.724  10.947  21.362  0.00  0.00    +0.000 OA
ATOM     23  C   UNL     1      35.394  10.236  22.524  0.00  0.00    +0.000 C 
ENDBRANCH  15  22
TORSDOF 3
ENDMDL
MODEL 6
REMARK VINA RESULT:      -6.4     14.741     17.830
REMARK  Name = 10639_Physcion.pdbqt.pdb
REMARK  3 active torsions:
REMARK  status: ('A' for Active; 'I' for Inactive)
REMARK    1  A    between atoms: C_10  and  O_18
REMARK    2  A    between atoms: C_12  and  O_20
REMARK    3  A    between atoms: C_15  and  O_22
REMARK                            x       y       z     vdW  Elec       q    Type
REMARK                         _______ _______ _______ _____ _____    ______ ____
ROOT
ATOM      1  O   UNL     1      33.775  15.538  23.557  0.00  0.00    +0.000 OA
ATOM      2  O   UNL     1      36.278  12.210  20.234  0.00  0.00    +0.000 OA
ATOM      3  C   UNL     1      36.040  14.389  21.046  0.00  0.00    +0.000 A 
ATOM      4  C   UNL     1      35.380  15.252  21.918  0.00  0.00    +0.000 A 
ATOM      5  C   UNL     1      33.964  13.292  22.773  0.00  0.00    +0.000 A 
ATOM      6  C   UNL     1      34.642  12.451  21.889  0.00  0.00    +0.000 A 
ATOM      7  C   UNL     1      34.321  14.734  22.810  0.00  0.00    +0.000 C 
ATOM      8  C   UNL     1      35.696  12.964  21.001  0.00  0.00    +0.000 C 
ATOM      9  C   UNL     1      37.043  14.861  20.197  0.00  0.00    +0.000 A 
ATOM     10  C   UNL     1      35.742  16.606  21.928  0.00  0.00    +0.000 A 
ATOM     11  C   UNL     1      37.390  16.207  20.218  0.00  0.00    +0.000 A 
ATOM     12  C   UNL     1      32.972  12.734  23.589  0.00  0.00    +0.000 A 
ATOM     13  C   UNL     1      34.341  11.086  21.818  0.00  0.00    +0.000 A 
ATOM     14  C   UNL     1      36.743  17.085  21.082  0.00  0.00    +0.000 A 
ATOM     15  C   UNL     1      33.354  10.539  22.632  0.00  0.00    +0.000 A 
ATOM     16  C   UNL     1      32.673  11.372  23.517  0.00  0.00    +0.000 A 
ATOM     17  C   UNL     1      38.467  16.711  19.305  0.00  0.00    +0.000 C 
ENDROOT
BRANCH  10  18
ATOM     18  O   UNL     1      35.151  17.530  22.748  0.00  0.00    +0.000 OA
ATOM     19  H   UNL     1      35.847  18.135  23.099  0.00  0.00    +0.000 HD
ENDBRANCH  10  18
BRANCH  12  20
ATOM     20  O   UNL     1      32.267  13.494  24.477  0.00  0.00    +0.000 OA
ATOM     21  H   UNL     1      32.625  13.375  25.375  0.00  0.00    +0.000 HD
ENDBRANCH  12  20
BRANCH  15  22
ATOM     22  O   UNL     1      33.135   9.192  22.487  0.00  0.00    +0.000 OA
ATOM     23  C   UNL     1      32.510   8.818  21.288  0.00  0.00    +0.000 C 
ENDBRANCH  15  22
TORSDOF 3
ENDMDL
MODEL 7
REMARK VINA RESULT:      -6.3     17.607     19.607
REMARK  Name = 10639_Physcion.pdbqt.pdb
REMARK  3 active torsions:
REMARK  status: ('A' for Active; 'I' for Inactive)
REMARK    1  A    between atoms: C_10  and  O_18
REMARK    2  A    between atoms: C_12  and  O_20
REMARK    3  A    between atoms: C_15  and  O_22
REMARK                            x       y       z     vdW  Elec       q    Type
REMARK                         _______ _______ _______ _____ _____    ______ ____
ROOT
ATOM      1  O   UNL     1      36.550  13.817  20.612  0.00  0.00    +0.000 OA
ATOM      2  O   UNL     1      35.113  18.755  22.002  0.00  0.00    +0.000 OA
ATOM      3  C   UNL     1      34.728  16.457  22.183  0.00  0.00    +0.000 A 
ATOM      4  C   UNL     1      35.110  15.170  21.814  0.00  0.00    +0.000 A 
ATOM      5  C   UNL     1      36.998  16.149  20.382  0.00  0.00    +0.000 A 
ATOM      6  C   UNL     1      36.593  17.428  20.768  0.00  0.00    +0.000 A 
ATOM      7  C   UNL     1      36.257  14.971  20.902  0.00  0.00    +0.000 C 
ATOM      8  C   UNL     1      35.453  17.627  21.675  0.00  0.00    +0.000 C 
ATOM      9  C   UNL     1      33.647  16.663  23.044  0.00  0.00    +0.000 A 
ATOM     10  C   UNL     1      34.390  14.081  22.324  0.00  0.00    +0.000 A 
ATOM     11  C   UNL     1      32.943  15.572  23.540  0.00  0.00    +0.000 A 
ATOM     12  C   UNL     1      38.093  16.036  19.515  0.00  0.00    +0.000 A 
ATOM     13  C   UNL     1      37.260  18.567  20.304  0.00  0.00    +0.000 A 
ATOM     14  C   UNL     1      33.309  14.278  23.184  0.00  0.00    +0.000 A 
ATOM     15  C   UNL     1      38.346  18.446  19.443  0.00  0.00    +0.000 A 
ATOM     16  C   UNL     1      38.758  17.174  19.053  0.00  0.00    +0.000 A 
ATOM     17  C   UNL     1      31.783  15.795  24.464  0.00  0.00    +0.000 C 
ENDROOT
BRANCH  10  18
ATOM     18  O   UNL     1      34.689  12.780  22.019  0.00  0.00    +0.000 OA
ATOM     19  H   UNL     1      34.741  12.685  21.039  0.00  0.00    +0.000 HD
ENDBRANCH  10  18
BRANCH  12  20
ATOM     20  O   UNL     1      38.547  14.819  19.094  0.00  0.00    +0.000 OA
ATOM     21  H   UNL     1      38.903  14.317  19.849  0.00  0.00    +0.000 HD
ENDBRANCH  12  20
BRANCH  15  22
ATOM     22  O   UNL     1      38.931  19.622  19.046  0.00  0.00    +0.000 OA
ATOM     23  C   UNL     1      38.466  20.769  19.705  0.00  0.00    +0.000 C 
ENDBRANCH  15  22
TORSDOF 3
ENDMDL
MODEL 8
REMARK VINA RESULT:      -6.1      2.788      6.888
REMARK  Name = 10639_Physcion.pdbqt.pdb
REMARK  3 active torsions:
REMARK  status: ('A' for Active; 'I' for Inactive)
REMARK    1  A    between atoms: C_10  and  O_18
REMARK    2  A    between atoms: C_12  and  O_20
REMARK    3  A    between atoms: C_15  and  O_22
REMARK                            x       y       z     vdW  Elec       q    Type
REMARK                         _______ _______ _______ _____ _____    ______ ____
ROOT
ATOM      1  O   UNL     1      39.544   3.776  16.661  0.00  0.00    +0.000 OA
ATOM      2  O   UNL     1      39.507  -1.253  18.420  0.00  0.00    +0.000 OA
ATOM      3  C   UNL     1      39.536   0.205  16.593  0.00  0.00    +0.000 A 
ATOM      4  C   UNL     1      39.545   1.522  16.142  0.00  0.00    +0.000 A 
ATOM      5  C   UNL     1      39.513   2.345  18.571  0.00  0.00    +0.000 A 
ATOM      6  C   UNL     1      39.505   1.016  18.994  0.00  0.00    +0.000 A 
ATOM      7  C   UNL     1      39.534   2.637  17.114  0.00  0.00    +0.000 C 
ATOM      8  C   UNL     1      39.515  -0.094  18.029  0.00  0.00    +0.000 C 
ATOM      9  C   UNL     1      39.546  -0.860  15.689  0.00  0.00    +0.000 A 
ATOM     10  C   UNL     1      39.565   1.762  14.761  0.00  0.00    +0.000 A 
ATOM     11  C   UNL     1      39.565  -0.606  14.322  0.00  0.00    +0.000 A 
ATOM     12  C   UNL     1      39.502   3.351  19.546  0.00  0.00    +0.000 A 
ATOM     13  C   UNL     1      39.485   0.692  20.355  0.00  0.00    +0.000 A 
ATOM     14  C   UNL     1      39.575   0.703  13.852  0.00  0.00    +0.000 A 
ATOM     15  C   UNL     1      39.474   1.696  21.318  0.00  0.00    +0.000 A 
ATOM     16  C   UNL     1      39.483   3.026  20.904  0.00  0.00    +0.000 A 
ATOM     17  C   UNL     1      39.576  -1.750  13.354  0.00  0.00    +0.000 C 
ENDROOT
BRANCH  10  18
ATOM     18  O   UNL     1      39.575   3.020  14.222  0.00  0.00    +0.000 OA
ATOM     19  H   UNL     1      38.999   3.029  13.422  0.00  0.00    +0.000 HD
ENDBRANCH  10  18
BRANCH  12  20
ATOM     20  O   UNL     1      39.510   4.673  19.208  0.00  0.00    +0.000 OA
ATOM     21  H   UNL     1      38.978   5.182  19.845  0.00  0.00    +0.000 HD
ENDBRANCH  12  20
BRANCH  15  22
ATOM     22  O   UNL     1      39.455   1.275  22.624  0.00  0.00    +0.000 OA
ATOM     23  C   UNL     1      38.764   2.114  23.509  0.00  0.00    +0.000 C 
ENDBRANCH  15  22
TORSDOF 3
ENDMDL
MODEL 9
REMARK VINA RESULT:      -6.0     12.465     14.018
REMARK  Name = 10639_Physcion.pdbqt.pdb
REMARK  3 active torsions:
REMARK  status: ('A' for Active; 'I' for Inactive)
REMARK    1  A    between atoms: C_10  and  O_18
REMARK    2  A    between atoms: C_12  and  O_20
REMARK    3  A    between atoms: C_15  and  O_22
REMARK                            x       y       z     vdW  Elec       q    Type
REMARK                         _______ _______ _______ _____ _____    ______ ____
ROOT
ATOM      1  O   UNL     1      50.589   6.750  11.000  0.00  0.00    +0.000 OA
ATOM      2  O   UNL     1      51.743   3.843   6.687  0.00  0.00    +0.000 OA
ATOM      3  C   UNL     1      51.444   5.964   7.623  0.00  0.00    +0.000 A 
ATOM      4  C   UNL     1      51.141   6.716   8.755  0.00  0.00    +0.000 A 
ATOM      5  C   UNL     1      50.878   4.555  10.110  0.00  0.00    +0.000 A 
ATOM      6  C   UNL     1      51.185   3.827   8.959  0.00  0.00    +0.000 A 
ATOM      7  C   UNL     1      50.848   6.038  10.036  0.00  0.00    +0.000 C 
ATOM      8  C   UNL     1      51.477   4.499   7.685  0.00  0.00    +0.000 C 
ATOM      9  C   UNL     1      51.724   6.588   6.405  0.00  0.00    +0.000 A 
ATOM     10  C   UNL     1      51.121   8.114   8.651  0.00  0.00    +0.000 A 
ATOM     11  C   UNL     1      51.700   7.976   6.318  0.00  0.00    +0.000 A 
ATOM     12  C   UNL     1      50.611   3.847  11.289  0.00  0.00    +0.000 A 
ATOM     13  C   UNL     1      51.225   2.429   8.980  0.00  0.00    +0.000 A 
ATOM     14  C   UNL     1      51.399   8.744   7.437  0.00  0.00    +0.000 A 
ATOM     15  C   UNL     1      50.959   1.733  10.155  0.00  0.00    +0.000 A 
ATOM     16  C   UNL     1      50.652   2.452  11.308  0.00  0.00    +0.000 A 
ATOM     17  C   UNL     1      52.000   8.643   5.009  0.00  0.00    +0.000 C 
ENDROOT
BRANCH  10  18
ATOM     18  O   UNL     1      50.835   8.937   9.707  0.00  0.00    +0.000 OA
ATOM     19  H   UNL     1      50.260   8.450  10.344  0.00  0.00    +0.000 HD
ENDBRANCH  10  18
BRANCH  12  20
ATOM     20  O   UNL     1      50.304   4.490  12.453  0.00  0.00    +0.000 OA
ATOM     21  H   UNL     1      51.106   4.604  12.993  0.00  0.00    +0.000 HD
ENDBRANCH  12  20
BRANCH  15  22
ATOM     22  O   UNL     1      51.024   0.365  10.070  0.00  0.00    +0.000 OA
ATOM     23  C   UNL     1      50.826  -0.161   8.786  0.00  0.00    +0.000 C 
ENDBRANCH  15  22
TORSDOF 3
ENDMDL
