MODEL 1
REMARK VINA RESULT:      -8.1      0.000      0.000
REMARK  Name = 10940649_MilnamideD.pdbqt.pdb
REMARK  7 active torsions:
REMARK  status: ('A' for Active; 'I' for Inactive)
REMARK    1  A    between atoms: C_3  and  C_8
REMARK    2  A    between atoms: C_22  and  C_25
REMARK    3  A    between atoms: C_22  and  C_38
REMARK    4  A    between atoms: N_24  and  C_27
REMARK    5  A    between atoms: C_27  and  C_28
REMARK    6  A    between atoms: C_32  and  C_35
REMARK    7  A    between atoms: C_35  and  O_36
REMARK                            x       y       z     vdW  Elec       q    Type
REMARK                         _______ _______ _______ _____ _____    ______ ____
ROOT
ATOM      1  O   UNL     1      51.360   3.048   9.044  0.00  0.00    +0.000 OA
ATOM      2  N   UNL     1      51.374   4.781   7.576  0.00  0.00    +0.000 N 
ATOM      3  C   UNL     1      51.379   3.433   7.881  0.00  0.00    +0.000 C 
ATOM      4  H   UNL     1      51.494   5.061   6.596  0.00  0.00    +0.000 HD
ATOM      5  C   UNL     1      51.291   5.829   8.525  0.00  0.00    +0.000 C 
ENDROOT
BRANCH   3   9
ATOM      6  N   UNL     1      51.717   2.987   5.368  0.00  0.00    +0.000 NA
ATOM      7  N   UNL     1      51.285  -0.515   3.654  0.00  0.00    +0.000 N 
ATOM      8  C   UNL     1      50.816   1.074   6.998  0.00  0.00    +0.000 C 
ATOM      9  C   UNL     1      51.408   2.487   6.719  0.00  0.00    +0.000 C 
ATOM     10  C   UNL     1      50.903   0.100   5.781  0.00  0.00    +0.000 A 
ATOM     11  C   UNL     1      51.315   0.513   4.530  0.00  0.00    +0.000 A 
ATOM     12  C   UNL     1      49.289   1.188   7.282  0.00  0.00    +0.000 C 
ATOM     13  C   UNL     1      51.639   0.376   8.120  0.00  0.00    +0.000 C 
ATOM     14  C   UNL     1      50.589  -1.298   5.628  0.00  0.00    +0.000 A 
ATOM     15  C   UNL     1      51.657   1.868   4.465  0.00  0.00    +0.000 C 
ATOM     16  C   UNL     1      50.842  -1.652   4.287  0.00  0.00    +0.000 A 
ATOM     17  C   UNL     1      53.067   3.525   5.304  0.00  0.00    +0.000 C 
ATOM     18  C   UNL     1      50.109  -2.291   6.505  0.00  0.00    +0.000 A 
ATOM     19  C   UNL     1      51.643  -0.412   2.280  0.00  0.00    +0.000 C 
ATOM     20  C   UNL     1      50.636  -2.954   3.807  0.00  0.00    +0.000 A 
ATOM     21  C   UNL     1      49.901  -3.588   6.033  0.00  0.00    +0.000 A 
ATOM     22  C   UNL     1      50.163  -3.911   4.707  0.00  0.00    +0.000 A 
ENDBRANCH   3   9
BRANCH   5  25
ATOM     23  O   UNL     1      49.843   5.335  10.279  0.00  0.00    +0.000 OA
ATOM     24  N   UNL     1      52.152   5.408  10.778  0.00  0.00    +0.000 N 
ATOM     25  C   UNL     1      51.010   5.525   9.949  0.00  0.00    +0.000 C 
ATOM     26  C   UNL     1      53.524   5.688  10.341  0.00  0.00    +0.000 C 
BRANCH  24  27
ATOM     27  C   UNL     1      52.023   4.974  12.109  0.00  0.00    +0.000 C 
ATOM     28  C   UNL     1      52.023   3.576  12.441  0.00  0.00    +0.000 C 
ATOM     29  C   UNL     1      52.021   2.312  12.748  0.00  0.00    +0.000 C 
ATOM     30  C   UNL     1      53.224   1.832  13.534  0.00  0.00    +0.000 C 
BRANCH  27  31
ATOM     31  C   UNL     1      51.910   5.918  13.212  0.00  0.00    +0.000 C 
ATOM     32  C   UNL     1      53.098   6.194  14.113  0.00  0.00    +0.000 C 
ATOM     33  C   UNL     1      50.902   7.049  13.127  0.00  0.00    +0.000 C 
ENDBRANCH  27  31
BRANCH  29  35
ATOM     34  O   UNL     1      50.703   0.293  12.686  0.00  0.00    +0.000 OA
ATOM     35  C   UNL     1      50.884   1.448  12.329  0.00  0.00    +0.000 C 
BRANCH  35  36
ATOM     36  O   UNL     1      50.012   2.039  11.484  0.00  0.00    +0.000 OA
ATOM     37  H   UNL     1      50.554   2.345  10.728  0.00  0.00    +0.000 HD
ENDBRANCH  35  36
ENDBRANCH  29  35
ENDBRANCH  24  27
ENDBRANCH   5  25
BRANCH   5  38
ATOM     38  C   UNL     1      51.209   7.302   8.156  0.00  0.00    +0.000 C 
ATOM     39  C   UNL     1      52.523   7.645   7.382  0.00  0.00    +0.000 C 
ATOM     40  C   UNL     1      50.010   7.483   7.183  0.00  0.00    +0.000 C 
ATOM     41  C   UNL     1      51.083   8.241   9.380  0.00  0.00    +0.000 C 
ENDBRANCH   5  38
TORSDOF 7
ENDMDL
MODEL 2
REMARK VINA RESULT:      -7.5      1.802      3.964
REMARK  Name = 10940649_MilnamideD.pdbqt.pdb
REMARK  7 active torsions:
REMARK  status: ('A' for Active; 'I' for Inactive)
REMARK    1  A    between atoms: C_3  and  C_8
REMARK    2  A    between atoms: C_22  and  C_25
REMARK    3  A    between atoms: C_22  and  C_38
REMARK    4  A    between atoms: N_24  and  C_27
REMARK    5  A    between atoms: C_27  and  C_28
REMARK    6  A    between atoms: C_32  and  C_35
REMARK    7  A    between atoms: C_35  and  O_36
REMARK                            x       y       z     vdW  Elec       q    Type
REMARK                         _______ _______ _______ _____ _____    ______ ____
ROOT
ATOM      1  O   UNL     1      50.346   3.555   8.827  0.00  0.00    +0.000 OA
ATOM      2  N   UNL     1      51.404   1.929  10.008  0.00  0.00    +0.000 N 
ATOM      3  C   UNL     1      50.803   2.419   8.863  0.00  0.00    +0.000 C 
ATOM      4  H   UNL     1      51.681   0.941  10.030  0.00  0.00    +0.000 HD
ATOM      5  C   UNL     1      51.606   2.666  11.200  0.00  0.00    +0.000 C 
ENDROOT
BRANCH   3   9
ATOM      6  N   UNL     1      50.626   2.028   6.325  0.00  0.00    +0.000 NA
ATOM      7  N   UNL     1      50.511  -1.503   4.621  0.00  0.00    +0.000 N 
ATOM      8  C   UNL     1      50.531  -0.013   8.043  0.00  0.00    +0.000 C 
ATOM      9  C   UNL     1      50.748   1.488   7.690  0.00  0.00    +0.000 C 
ATOM     10  C   UNL     1      50.523  -0.960   6.802  0.00  0.00    +0.000 A 
ATOM     11  C   UNL     1      50.539  -0.483   5.507  0.00  0.00    +0.000 A 
ATOM     12  C   UNL     1      49.122  -0.209   8.676  0.00  0.00    +0.000 C 
ATOM     13  C   UNL     1      51.715  -0.520   8.917  0.00  0.00    +0.000 C 
ATOM     14  C   UNL     1      50.466  -2.394   6.670  0.00  0.00    +0.000 A 
ATOM     15  C   UNL     1      50.580   0.912   5.417  0.00  0.00    +0.000 C 
ATOM     16  C   UNL     1      50.464  -2.700   5.295  0.00  0.00    +0.000 A 
ATOM     17  C   UNL     1      51.788   2.828   5.972  0.00  0.00    +0.000 C 
ATOM     18  C   UNL     1      50.412  -3.456   7.595  0.00  0.00    +0.000 A 
ATOM     19  C   UNL     1      50.510  -1.341   3.207  0.00  0.00    +0.000 C 
ATOM     20  C   UNL     1      50.414  -4.022   4.825  0.00  0.00    +0.000 A 
ATOM     21  C   UNL     1      50.362  -4.772   7.133  0.00  0.00    +0.000 A 
ATOM     22  C   UNL     1      50.366  -5.046   5.772  0.00  0.00    +0.000 A 
ENDBRANCH   3   9
BRANCH   5  25
ATOM     23  O   UNL     1      50.284   4.507  11.732  0.00  0.00    +0.000 OA
ATOM     24  N   UNL     1      52.381   4.941  10.733  0.00  0.00    +0.000 N 
ATOM     25  C   UNL     1      51.336   4.124  11.229  0.00  0.00    +0.000 C 
ATOM     26  C   UNL     1      53.603   4.430  10.102  0.00  0.00    +0.000 C 
BRANCH  24  27
ATOM     27  C   UNL     1      52.307   6.340  10.848  0.00  0.00    +0.000 C 
ATOM     28  C   UNL     1      52.311   6.983  12.133  0.00  0.00    +0.000 C 
ATOM     29  C   UNL     1      52.313   7.573  13.293  0.00  0.00    +0.000 C 
ATOM     30  C   UNL     1      53.544   8.398  13.601  0.00  0.00    +0.000 C 
BRANCH  27  31
ATOM     31  C   UNL     1      52.249   7.201   9.675  0.00  0.00    +0.000 C 
ATOM     32  C   UNL     1      51.177   8.266   9.555  0.00  0.00    +0.000 C 
ATOM     33  C   UNL     1      53.519   7.488   8.896  0.00  0.00    +0.000 C 
ENDBRANCH  27  31
BRANCH  29  35
ATOM     34  O   UNL     1      51.030   7.945  15.302  0.00  0.00    +0.000 OA
ATOM     35  C   UNL     1      51.152   7.409  14.210  0.00  0.00    +0.000 C 
BRANCH  35  36
ATOM     36  O   UNL     1      50.184   6.588  13.749  0.00  0.00    +0.000 OA
ATOM     37  H   UNL     1      49.426   7.173  13.543  0.00  0.00    +0.000 HD
ENDBRANCH  35  36
ENDBRANCH  29  35
ENDBRANCH  24  27
ENDBRANCH   5  25
BRANCH   5  38
ATOM     38  C   UNL     1      52.340   2.126  12.417  0.00  0.00    +0.000 C 
ATOM     39  C   UNL     1      51.369   1.122  13.118  0.00  0.00    +0.000 C 
ATOM     40  C   UNL     1      53.579   1.333  11.912  0.00  0.00    +0.000 C 
ATOM     41  C   UNL     1      52.752   3.222  13.430  0.00  0.00    +0.000 C 
ENDBRANCH   5  38
TORSDOF 7
ENDMDL
MODEL 3
REMARK VINA RESULT:      -7.2      2.125      4.754
REMARK  Name = 10940649_MilnamideD.pdbqt.pdb
REMARK  7 active torsions:
REMARK  status: ('A' for Active; 'I' for Inactive)
REMARK    1  A    between atoms: C_3  and  C_8
REMARK    2  A    between atoms: C_22  and  C_25
REMARK    3  A    between atoms: C_22  and  C_38
REMARK    4  A    between atoms: N_24  and  C_27
REMARK    5  A    between atoms: C_27  and  C_28
REMARK    6  A    between atoms: C_32  and  C_35
REMARK    7  A    between atoms: C_35  and  O_36
REMARK                            x       y       z     vdW  Elec       q    Type
REMARK                         _______ _______ _______ _____ _____    ______ ____
ROOT
ATOM      1  O   UNL     1      50.397   3.447   9.509  0.00  0.00    +0.000 OA
ATOM      2  N   UNL     1      51.507   1.907  10.753  0.00  0.00    +0.000 N 
ATOM      3  C   UNL     1      50.844   2.311   9.611  0.00  0.00    +0.000 C 
ATOM      4  H   UNL     1      51.776   0.920  10.840  0.00  0.00    +0.000 HD
ATOM      5  C   UNL     1      51.788   2.735  11.867  0.00  0.00    +0.000 C 
ENDROOT
BRANCH   3   9
ATOM      6  N   UNL     1      50.268  -0.079   8.845  0.00  0.00    +0.000 NA
ATOM      7  N   UNL     1      50.552  -1.358   5.148  0.00  0.00    +0.000 N 
ATOM      8  C   UNL     1      51.332   1.692   7.153  0.00  0.00    +0.000 C 
ATOM      9  C   UNL     1      50.708   1.289   8.522  0.00  0.00    +0.000 C 
ATOM     10  C   UNL     1      51.133   0.625   6.030  0.00  0.00    +0.000 A 
ATOM     11  C   UNL     1      50.601  -0.623   6.281  0.00  0.00    +0.000 A 
ATOM     12  C   UNL     1      52.878   1.810   7.292  0.00  0.00    +0.000 C 
ATOM     13  C   UNL     1      50.625   2.968   6.612  0.00  0.00    +0.000 C 
ATOM     14  C   UNL     1      51.439   0.625   4.622  0.00  0.00    +0.000 A 
ATOM     15  C   UNL     1      50.247  -0.831   7.618  0.00  0.00    +0.000 C 
ATOM     16  C   UNL     1      51.059  -0.628   4.099  0.00  0.00    +0.000 A 
ATOM     17  C   UNL     1      48.915  -0.082   9.380  0.00  0.00    +0.000 C 
ATOM     18  C   UNL     1      52.006   1.573   3.747  0.00  0.00    +0.000 A 
ATOM     19  C   UNL     1      50.062  -2.692   5.075  0.00  0.00    +0.000 C 
ATOM     20  C   UNL     1      51.226  -0.953   2.744  0.00  0.00    +0.000 A 
ATOM     21  C   UNL     1      52.175   1.255   2.399  0.00  0.00    +0.000 A 
ATOM     22  C   UNL     1      51.788   0.014   1.909  0.00  0.00    +0.000 A 
ENDBRANCH   3   9
BRANCH   5  25
ATOM     23  O   UNL     1      50.508   4.629  12.303  0.00  0.00    +0.000 OA
ATOM     24  N   UNL     1      52.570   4.955  11.196  0.00  0.00    +0.000 N 
ATOM     25  C   UNL     1      51.537   4.194  11.793  0.00  0.00    +0.000 C 
ATOM     26  C   UNL     1      53.762   4.380  10.562  0.00  0.00    +0.000 C 
BRANCH  24  27
ATOM     27  C   UNL     1      52.516   6.361  11.205  0.00  0.00    +0.000 C 
ATOM     28  C   UNL     1      52.650   7.104  12.427  0.00  0.00    +0.000 C 
ATOM     29  C   UNL     1      52.770   7.783  13.530  0.00  0.00    +0.000 C 
ATOM     30  C   UNL     1      54.031   8.614  13.648  0.00  0.00    +0.000 C 
BRANCH  27  31
ATOM     31  C   UNL     1      52.347   7.126   9.978  0.00  0.00    +0.000 C 
ATOM     32  C   UNL     1      51.233   8.147   9.856  0.00  0.00    +0.000 C 
ATOM     33  C   UNL     1      53.550   7.388   9.090  0.00  0.00    +0.000 C 
ENDBRANCH  27  31
BRANCH  29  35
ATOM     34  O   UNL     1      50.503   7.789  14.354  0.00  0.00    +0.000 OA
ATOM     35  C   UNL     1      51.705   7.709  14.567  0.00  0.00    +0.000 C 
BRANCH  35  36
ATOM     36  O   UNL     1      52.158   7.542  15.827  0.00  0.00    +0.000 OA
ATOM     37  H   UNL     1      52.929   6.942  15.746  0.00  0.00    +0.000 HD
ENDBRANCH  35  36
ENDBRANCH  29  35
ENDBRANCH  24  27
ENDBRANCH   5  25
BRANCH   5  38
ATOM     38  C   UNL     1      52.589   2.284  13.079  0.00  0.00    +0.000 C 
ATOM     39  C   UNL     1      51.629   1.416  13.953  0.00  0.00    +0.000 C 
ATOM     40  C   UNL     1      53.745   1.373  12.573  0.00  0.00    +0.000 C 
ATOM     41  C   UNL     1      53.133   3.455  13.933  0.00  0.00    +0.000 C 
ENDBRANCH   5  38
TORSDOF 7
ENDMDL
MODEL 4
REMARK VINA RESULT:      -7.0      1.646      2.148
REMARK  Name = 10940649_MilnamideD.pdbqt.pdb
REMARK  7 active torsions:
REMARK  status: ('A' for Active; 'I' for Inactive)
REMARK    1  A    between atoms: C_3  and  C_8
REMARK    2  A    between atoms: C_22  and  C_25
REMARK    3  A    between atoms: C_22  and  C_38
REMARK    4  A    between atoms: N_24  and  C_27
REMARK    5  A    between atoms: C_27  and  C_28
REMARK    6  A    between atoms: C_32  and  C_35
REMARK    7  A    between atoms: C_35  and  O_36
REMARK                            x       y       z     vdW  Elec       q    Type
REMARK                         _______ _______ _______ _____ _____    ______ ____
ROOT
ATOM      1  O   UNL     1      52.500   3.526   9.508  0.00  0.00    +0.000 OA
ATOM      2  N   UNL     1      52.288   5.131   7.916  0.00  0.00    +0.000 N 
ATOM      3  C   UNL     1      52.592   3.848   8.329  0.00  0.00    +0.000 C 
ATOM      4  H   UNL     1      52.476   5.387   6.940  0.00  0.00    +0.000 HD
ATOM      5  C   UNL     1      51.801   6.162   8.755  0.00  0.00    +0.000 C 
ENDROOT
BRANCH   3   9
ATOM      6  N   UNL     1      54.466   2.734   6.961  0.00  0.00    +0.000 NA
ATOM      7  N   UNL     1      53.873   0.141   4.078  0.00  0.00    +0.000 N 
ATOM      8  C   UNL     1      51.896   2.343   6.351  0.00  0.00    +0.000 C 
ATOM      9  C   UNL     1      53.033   2.891   7.264  0.00  0.00    +0.000 C 
ATOM     10  C   UNL     1      52.383   1.316   5.281  0.00  0.00    +0.000 A 
ATOM     11  C   UNL     1      53.720   1.052   5.064  0.00  0.00    +0.000 A 
ATOM     12  C   UNL     1      51.288   3.504   5.510  0.00  0.00    +0.000 C 
ATOM     13  C   UNL     1      50.868   1.555   7.214  0.00  0.00    +0.000 C 
ATOM     14  C   UNL     1      51.681   0.495   4.327  0.00  0.00    +0.000 A 
ATOM     15  C   UNL     1      54.583   1.773   5.896  0.00  0.00    +0.000 C 
ATOM     16  C   UNL     1      52.641  -0.229   3.593  0.00  0.00    +0.000 A 
ATOM     17  C   UNL     1      55.189   2.204   8.106  0.00  0.00    +0.000 C 
ATOM     18  C   UNL     1      50.319   0.308   4.019  0.00  0.00    +0.000 A 
ATOM     19  C   UNL     1      55.130  -0.336   3.611  0.00  0.00    +0.000 C 
ATOM     20  C   UNL     1      52.281  -1.128   2.577  0.00  0.00    +0.000 A 
ATOM     21  C   UNL     1      49.956  -0.584   3.009  0.00  0.00    +0.000 A 
ATOM     22  C   UNL     1      50.922  -1.289   2.304  0.00  0.00    +0.000 A 
ENDBRANCH   3   9
BRANCH   5  25
ATOM     23  O   UNL     1      50.273   5.409  10.342  0.00  0.00    +0.000 OA
ATOM     24  N   UNL     1      52.407   6.057  11.125  0.00  0.00    +0.000 N 
ATOM     25  C   UNL     1      51.399   5.861  10.150  0.00  0.00    +0.000 C 
ATOM     26  C   UNL     1      53.724   6.642  10.848  0.00  0.00    +0.000 C 
BRANCH  24  27
ATOM     27  C   UNL     1      52.195   5.663  12.458  0.00  0.00    +0.000 C 
ATOM     28  C   UNL     1      52.283   4.283  12.849  0.00  0.00    +0.000 C 
ATOM     29  C   UNL     1      52.360   3.036  13.211  0.00  0.00    +0.000 C 
ATOM     30  C   UNL     1      53.523   2.693  14.118  0.00  0.00    +0.000 C 
BRANCH  27  31
ATOM     31  C   UNL     1      51.904   6.632  13.504  0.00  0.00    +0.000 C 
ATOM     32  C   UNL     1      50.479   7.082  13.760  0.00  0.00    +0.000 C 
ATOM     33  C   UNL     1      52.828   6.738  14.703  0.00  0.00    +0.000 C 
ENDBRANCH  27  31
BRANCH  29  35
ATOM     34  O   UNL     1      51.200   0.922  13.154  0.00  0.00    +0.000 OA
ATOM     35  C   UNL     1      51.343   2.061  12.733  0.00  0.00    +0.000 C 
BRANCH  35  36
ATOM     36  O   UNL     1      50.540   2.524  11.752  0.00  0.00    +0.000 OA
ATOM     37  H   UNL     1      49.699   2.759  12.196  0.00  0.00    +0.000 HD
ENDBRANCH  35  36
ENDBRANCH  29  35
ENDBRANCH  24  27
ENDBRANCH   5  25
BRANCH   5  38
ATOM     38  C   UNL     1      51.401   7.542   8.258  0.00  0.00    +0.000 C 
ATOM     39  C   UNL     1      52.617   8.098   7.450  0.00  0.00    +0.000 C 
ATOM     40  C   UNL     1      50.205   7.368   7.279  0.00  0.00    +0.000 C 
ATOM     41  C   UNL     1      51.053   8.534   9.395  0.00  0.00    +0.000 C 
ENDBRANCH   5  38
TORSDOF 7
ENDMDL
MODEL 5
REMARK VINA RESULT:      -7.0      1.855      4.282
REMARK  Name = 10940649_MilnamideD.pdbqt.pdb
REMARK  7 active torsions:
REMARK  status: ('A' for Active; 'I' for Inactive)
REMARK    1  A    between atoms: C_3  and  C_8
REMARK    2  A    between atoms: C_22  and  C_25
REMARK    3  A    between atoms: C_22  and  C_38
REMARK    4  A    between atoms: N_24  and  C_27
REMARK    5  A    between atoms: C_27  and  C_28
REMARK    6  A    between atoms: C_32  and  C_35
REMARK    7  A    between atoms: C_35  and  O_36
REMARK                            x       y       z     vdW  Elec       q    Type
REMARK                         _______ _______ _______ _____ _____    ______ ____
ROOT
ATOM      1  O   UNL     1      50.524   3.473   8.917  0.00  0.00    +0.000 OA
ATOM      2  N   UNL     1      51.302   1.670  10.057  0.00  0.00    +0.000 N 
ATOM      3  C   UNL     1      50.834   2.287   8.913  0.00  0.00    +0.000 C 
ATOM      4  H   UNL     1      51.453   0.655  10.038  0.00  0.00    +0.000 HD
ATOM      5  C   UNL     1      51.526   2.316  11.297  0.00  0.00    +0.000 C 
ENDROOT
BRANCH   3   9
ATOM      6  N   UNL     1      50.551   2.052   6.365  0.00  0.00    +0.000 NA
ATOM      7  N   UNL     1      50.365  -1.368   4.455  0.00  0.00    +0.000 N 
ATOM      8  C   UNL     1      50.528  -0.091   7.958  0.00  0.00    +0.000 C 
ATOM      9  C   UNL     1      50.729   1.430   7.688  0.00  0.00    +0.000 C 
ATOM     10  C   UNL     1      50.468  -0.960   6.662  0.00  0.00    +0.000 A 
ATOM     11  C   UNL     1      50.431  -0.404   5.399  0.00  0.00    +0.000 A 
ATOM     12  C   UNL     1      49.145  -0.328   8.635  0.00  0.00    +0.000 C 
ATOM     13  C   UNL     1      51.747  -0.647   8.749  0.00  0.00    +0.000 C 
ATOM     14  C   UNL     1      50.406  -2.383   6.446  0.00  0.00    +0.000 A 
ATOM     15  C   UNL     1      50.468   0.994   5.393  0.00  0.00    +0.000 C 
ATOM     16  C   UNL     1      50.347  -2.605   5.055  0.00  0.00    +0.000 A 
ATOM     17  C   UNL     1      51.698   2.875   6.014  0.00  0.00    +0.000 C 
ATOM     18  C   UNL     1      50.390  -3.500   7.305  0.00  0.00    +0.000 A 
ATOM     19  C   UNL     1      50.306  -1.121   3.055  0.00  0.00    +0.000 C 
ATOM     20  C   UNL     1      50.278  -3.895   4.508  0.00  0.00    +0.000 A 
ATOM     21  C   UNL     1      50.321  -4.785   6.766  0.00  0.00    +0.000 A 
ATOM     22  C   UNL     1      50.268  -4.976   5.391  0.00  0.00    +0.000 A 
ENDBRANCH   3   9
BRANCH   5  25
ATOM     23  O   UNL     1      50.415   4.282  11.864  0.00  0.00    +0.000 OA
ATOM     24  N   UNL     1      52.604   4.494  10.998  0.00  0.00    +0.000 N 
ATOM     25  C   UNL     1      51.439   3.793  11.394  0.00  0.00    +0.000 C 
ATOM     26  C   UNL     1      53.787   3.862  10.402  0.00  0.00    +0.000 C 
BRANCH  24  27
ATOM     27  C   UNL     1      52.698   5.884  11.187  0.00  0.00    +0.000 C 
ATOM     28  C   UNL     1      52.452   6.800  10.108  0.00  0.00    +0.000 C 
ATOM     29  C   UNL     1      52.231   7.636   9.135  0.00  0.00    +0.000 C 
ATOM     30  C   UNL     1      50.990   8.491   9.282  0.00  0.00    +0.000 C 
BRANCH  27  31
ATOM     31  C   UNL     1      53.024   6.458  12.484  0.00  0.00    +0.000 C 
ATOM     32  C   UNL     1      54.406   7.022  12.751  0.00  0.00    +0.000 C 
ATOM     33  C   UNL     1      51.919   7.058  13.334  0.00  0.00    +0.000 C 
ENDBRANCH  27  31
BRANCH  29  35
ATOM     34  O   UNL     1      52.884   8.053   6.851  0.00  0.00    +0.000 OA
ATOM     35  C   UNL     1      53.174   7.701   7.985  0.00  0.00    +0.000 C 
BRANCH  35  36
ATOM     36  O   UNL     1      54.438   7.327   8.274  0.00  0.00    +0.000 OA
ATOM     37  H   UNL     1      54.476   6.369   8.072  0.00  0.00    +0.000 HD
ENDBRANCH  35  36
ENDBRANCH  29  35
ENDBRANCH  24  27
ENDBRANCH   5  25
BRANCH   5  38
ATOM     38  C   UNL     1      52.117   1.628  12.517  0.00  0.00    +0.000 C 
ATOM     39  C   UNL     1      51.000   0.699  13.093  0.00  0.00    +0.000 C 
ATOM     40  C   UNL     1      53.295   0.733  12.036  0.00  0.00    +0.000 C 
ATOM     41  C   UNL     1      52.575   2.611  13.622  0.00  0.00    +0.000 C 
ENDBRANCH   5  38
TORSDOF 7
ENDMDL
MODEL 6
REMARK VINA RESULT:      -6.6      2.822      6.637
REMARK  Name = 10940649_MilnamideD.pdbqt.pdb
REMARK  7 active torsions:
REMARK  status: ('A' for Active; 'I' for Inactive)
REMARK    1  A    between atoms: C_3  and  C_8
REMARK    2  A    between atoms: C_22  and  C_25
REMARK    3  A    between atoms: C_22  and  C_38
REMARK    4  A    between atoms: N_24  and  C_27
REMARK    5  A    between atoms: C_27  and  C_28
REMARK    6  A    between atoms: C_32  and  C_35
REMARK    7  A    between atoms: C_35  and  O_36
REMARK                            x       y       z     vdW  Elec       q    Type
REMARK                         _______ _______ _______ _____ _____    ______ ____
ROOT
ATOM      1  O   UNL     1      53.158   3.207   8.626  0.00  0.00    +0.000 OA
ATOM      2  N   UNL     1      51.646   2.243   7.234  0.00  0.00    +0.000 N 
ATOM      3  C   UNL     1      52.724   3.070   7.489  0.00  0.00    +0.000 C 
ATOM      4  H   UNL     1      51.249   2.235   6.287  0.00  0.00    +0.000 HD
ATOM      5  C   UNL     1      50.984   1.447   8.200  0.00  0.00    +0.000 C 
ENDROOT
BRANCH   3   9
ATOM      6  N   UNL     1      54.429   3.165   5.563  0.00  0.00    +0.000 NA
ATOM      7  N   UNL     1      54.798   6.167   3.066  0.00  0.00    +0.000 N 
ATOM      8  C   UNL     1      52.883   5.264   6.139  0.00  0.00    +0.000 C 
ATOM      9  C   UNL     1      53.316   3.777   6.308  0.00  0.00    +0.000 C 
ATOM     10  C   UNL     1      53.482   5.957   4.875  0.00  0.00    +0.000 A 
ATOM     11  C   UNL     1      54.436   5.353   4.082  0.00  0.00    +0.000 A 
ATOM     12  C   UNL     1      53.427   6.110   7.328  0.00  0.00    +0.000 C 
ATOM     13  C   UNL     1      51.342   5.339   5.936  0.00  0.00    +0.000 C 
ATOM     14  C   UNL     1      53.270   7.253   4.282  0.00  0.00    +0.000 A 
ATOM     15  C   UNL     1      54.796   4.069   4.505  0.00  0.00    +0.000 C 
ATOM     16  C   UNL     1      54.104   7.351   3.151  0.00  0.00    +0.000 A 
ATOM     17  C   UNL     1      54.020   1.914   4.943  0.00  0.00    +0.000 C 
ATOM     18  C   UNL     1      52.448   8.351   4.607  0.00  0.00    +0.000 A 
ATOM     19  C   UNL     1      55.768   5.838   2.078  0.00  0.00    +0.000 C 
ATOM     20  C   UNL     1      54.137   8.499   2.344  0.00  0.00    +0.000 A 
ATOM     21  C   UNL     1      52.477   9.495   3.809  0.00  0.00    +0.000 A 
ATOM     22  C   UNL     1      53.306   9.564   2.697  0.00  0.00    +0.000 A 
ENDBRANCH   3   9
BRANCH   5  25
ATOM     23  O   UNL     1      52.418   0.463   9.748  0.00  0.00    +0.000 OA
ATOM     24  N   UNL     1      51.064   2.243  10.513  0.00  0.00    +0.000 N 
ATOM     25  C   UNL     1      51.547   1.309   9.565  0.00  0.00    +0.000 C 
ATOM     26  C   UNL     1      49.989   3.207  10.253  0.00  0.00    +0.000 C 
BRANCH  24  27
ATOM     27  C   UNL     1      51.632   2.311  11.798  0.00  0.00    +0.000 C 
ATOM     28  C   UNL     1      52.463   3.417  12.187  0.00  0.00    +0.000 C 
ATOM     29  C   UNL     1      53.217   4.415  12.547  0.00  0.00    +0.000 C 
ATOM     30  C   UNL     1      52.634   5.320  13.611  0.00  0.00    +0.000 C 
BRANCH  27  31
ATOM     31  C   UNL     1      51.385   1.282  12.798  0.00  0.00    +0.000 C 
ATOM     32  C   UNL     1      50.206   0.340  12.657  0.00  0.00    +0.000 C 
ATOM     33  C   UNL     1      52.547   0.729  13.603  0.00  0.00    +0.000 C 
ENDBRANCH  27  31
BRANCH  29  35
ATOM     34  O   UNL     1      55.621   4.610  12.512  0.00  0.00    +0.000 OA
ATOM     35  C   UNL     1      54.553   4.599  11.917  0.00  0.00    +0.000 C 
BRANCH  35  36
ATOM     36  O   UNL     1      54.524   4.765  10.578  0.00  0.00    +0.000 OA
ATOM     37  H   UNL     1      54.106   5.639  10.435  0.00  0.00    +0.000 HD
ENDBRANCH  35  36
ENDBRANCH  29  35
ENDBRANCH  24  27
ENDBRANCH   5  25
BRANCH   5  38
ATOM     38  C   UNL     1      49.851   0.486   7.875  0.00  0.00    +0.000 C 
ATOM     39  C   UNL     1      48.750   1.321   7.146  0.00  0.00    +0.000 C 
ATOM     40  C   UNL     1      50.398  -0.575   6.877  0.00  0.00    +0.000 C 
ATOM     41  C   UNL     1      49.232  -0.187   9.124  0.00  0.00    +0.000 C 
ENDBRANCH   5  38
TORSDOF 7
ENDMDL
MODEL 7
REMARK VINA RESULT:      -6.3      3.213      9.770
REMARK  Name = 10940649_MilnamideD.pdbqt.pdb
REMARK  7 active torsions:
REMARK  status: ('A' for Active; 'I' for Inactive)
REMARK    1  A    between atoms: C_3  and  C_8
REMARK    2  A    between atoms: C_22  and  C_25
REMARK    3  A    between atoms: C_22  and  C_38
REMARK    4  A    between atoms: N_24  and  C_27
REMARK    5  A    between atoms: C_27  and  C_28
REMARK    6  A    between atoms: C_32  and  C_35
REMARK    7  A    between atoms: C_35  and  O_36
REMARK                            x       y       z     vdW  Elec       q    Type
REMARK                         _______ _______ _______ _____ _____    ______ ____
ROOT
ATOM      1  O   UNL     1      51.107  -0.215   5.221  0.00  0.00    +0.000 OA
ATOM      2  N   UNL     1      51.295  -1.614   6.999  0.00  0.00    +0.000 N 
ATOM      3  C   UNL     1      51.018  -0.385   6.431  0.00  0.00    +0.000 C 
ATOM      4  H   UNL     1      51.309  -1.688   8.023  0.00  0.00    +0.000 HD
ATOM      5  C   UNL     1      51.641  -2.784   6.280  0.00  0.00    +0.000 C 
ENDROOT
BRANCH   3   9
ATOM      6  N   UNL     1      49.275   0.686   7.994  0.00  0.00    +0.000 NA
ATOM      7  N   UNL     1      49.791   4.066   9.915  0.00  0.00    +0.000 N 
ATOM      8  C   UNL     1      51.549   1.950   7.393  0.00  0.00    +0.000 C 
ATOM      9  C   UNL     1      50.610   0.707   7.373  0.00  0.00    +0.000 C 
ATOM     10  C   UNL     1      51.120   3.049   8.416  0.00  0.00    +0.000 A 
ATOM     11  C   UNL     1      49.929   2.989   9.111  0.00  0.00    +0.000 A 
ATOM     12  C   UNL     1      51.494   2.675   6.015  0.00  0.00    +0.000 C 
ATOM     13  C   UNL     1      52.973   1.522   7.849  0.00  0.00    +0.000 C 
ATOM     14  C   UNL     1      51.738   4.281   8.838  0.00  0.00    +0.000 A 
ATOM     15  C   UNL     1      49.163   1.855   8.825  0.00  0.00    +0.000 C 
ATOM     16  C   UNL     1      50.884   4.890   9.779  0.00  0.00    +0.000 A 
ATOM     17  C   UNL     1      49.115  -0.476   8.854  0.00  0.00    +0.000 C 
ATOM     18  C   UNL     1      52.941   4.933   8.503  0.00  0.00    +0.000 A 
ATOM     19  C   UNL     1      48.668   4.303  10.756  0.00  0.00    +0.000 C 
ATOM     20  C   UNL     1      51.197   6.115  10.388  0.00  0.00    +0.000 A 
ATOM     21  C   UNL     1      53.258   6.151   9.105  0.00  0.00    +0.000 A 
ATOM     22  C   UNL     1      52.400   6.728  10.033  0.00  0.00    +0.000 A 
ENDBRANCH   3   9
BRANCH   5  25
ATOM     23  O   UNL     1      50.445  -3.018   4.296  0.00  0.00    +0.000 OA
ATOM     24  N   UNL     1      52.742  -2.492   4.113  0.00  0.00    +0.000 N 
ATOM     25  C   UNL     1      51.544  -2.805   4.800  0.00  0.00    +0.000 C 
ATOM     26  C   UNL     1      54.041  -2.287   4.763  0.00  0.00    +0.000 C 
BRANCH  24  27
ATOM     27  C   UNL     1      52.740  -2.331   2.716  0.00  0.00    +0.000 C 
ATOM     28  C   UNL     1      52.817  -1.027   2.116  0.00  0.00    +0.000 C 
ATOM     29  C   UNL     1      52.886   0.150   1.566  0.00  0.00    +0.000 C 
ATOM     30  C   UNL     1      54.166   0.440   0.811  0.00  0.00    +0.000 C 
BRANCH  27  31
ATOM     31  C   UNL     1      52.685  -3.473   1.815  0.00  0.00    +0.000 C 
ATOM     32  C   UNL     1      52.712  -3.271   0.313  0.00  0.00    +0.000 C 
ATOM     33  C   UNL     1      53.206  -4.819   2.284  0.00  0.00    +0.000 C 
ENDBRANCH  27  31
BRANCH  29  35
ATOM     34  O   UNL     1      51.687   2.017   2.511  0.00  0.00    +0.000 OA
ATOM     35  C   UNL     1      51.750   1.101   1.704  0.00  0.00    +0.000 C 
BRANCH  35  36
ATOM     36  O   UNL     1      50.731   0.886   0.845  0.00  0.00    +0.000 OA
ATOM     37  H   UNL     1      50.937   1.433   0.059  0.00  0.00    +0.000 HD
ENDBRANCH  35  36
ENDBRANCH  29  35
ENDBRANCH  24  27
ENDBRANCH   5  25
BRANCH   5  38
ATOM     38  C   UNL     1      51.864  -4.142   6.926  0.00  0.00    +0.000 C 
ATOM     39  C   UNL     1      52.985  -3.951   7.997  0.00  0.00    +0.000 C 
ATOM     40  C   UNL     1      50.552  -4.542   7.660  0.00  0.00    +0.000 C 
ATOM     41  C   UNL     1      52.302  -5.240   5.926  0.00  0.00    +0.000 C 
ENDBRANCH   5  38
TORSDOF 7
ENDMDL
MODEL 8
REMARK VINA RESULT:      -6.2      3.915      8.573
REMARK  Name = 10940649_MilnamideD.pdbqt.pdb
REMARK  7 active torsions:
REMARK  status: ('A' for Active; 'I' for Inactive)
REMARK    1  A    between atoms: C_3  and  C_8
REMARK    2  A    between atoms: C_22  and  C_25
REMARK    3  A    between atoms: C_22  and  C_38
REMARK    4  A    between atoms: N_24  and  C_27
REMARK    5  A    between atoms: C_27  and  C_28
REMARK    6  A    between atoms: C_32  and  C_35
REMARK    7  A    between atoms: C_35  and  O_36
REMARK                            x       y       z     vdW  Elec       q    Type
REMARK                         _______ _______ _______ _____ _____    ______ ____
ROOT
ATOM      1  O   UNL     1      53.512   3.131  12.445  0.00  0.00    +0.000 OA
ATOM      2  N   UNL     1      52.128   1.474  11.743  0.00  0.00    +0.000 N 
ATOM      3  C   UNL     1      53.231   1.939  12.434  0.00  0.00    +0.000 C 
ATOM      4  H   UNL     1      51.986   0.460  11.674  0.00  0.00    +0.000 HD
ATOM      5  C   UNL     1      51.202   2.288  11.047  0.00  0.00    +0.000 C 
ENDROOT
BRANCH   3   9
ATOM      6  N   UNL     1      54.607  -0.236  12.422  0.00  0.00    +0.000 NA
ATOM      7  N   UNL     1      56.226  -1.861  15.604  0.00  0.00    +0.000 N 
ATOM      8  C   UNL     1      53.992   0.992  14.711  0.00  0.00    +0.000 C 
ATOM      9  C   UNL     1      54.047   0.910  13.157  0.00  0.00    +0.000 C 
ATOM     10  C   UNL     1      54.888  -0.064  15.432  0.00  0.00    +0.000 A 
ATOM     11  C   UNL     1      55.532  -1.077  14.750  0.00  0.00    +0.000 A 
ATOM     12  C   UNL     1      52.552   0.666  15.207  0.00  0.00    +0.000 C 
ATOM     13  C   UNL     1      54.549   2.367  15.182  0.00  0.00    +0.000 C 
ATOM     14  C   UNL     1      55.220  -0.277  16.818  0.00  0.00    +0.000 A 
ATOM     15  C   UNL     1      55.320  -1.054  13.368  0.00  0.00    +0.000 C 
ATOM     16  C   UNL     1      56.061  -1.405  16.891  0.00  0.00    +0.000 A 
ATOM     17  C   UNL     1      55.565   0.201  11.418  0.00  0.00    +0.000 C 
ATOM     18  C   UNL     1      54.879   0.384  18.015  0.00  0.00    +0.000 A 
ATOM     19  C   UNL     1      56.991  -2.996  15.214  0.00  0.00    +0.000 C 
ATOM     20  C   UNL     1      56.567  -1.882  18.110  0.00  0.00    +0.000 A 
ATOM     21  C   UNL     1      55.378  -0.085  19.230  0.00  0.00    +0.000 A 
ATOM     22  C   UNL     1      56.209  -1.198  19.273  0.00  0.00    +0.000 A 
ENDBRANCH   3   9
BRANCH   5  25
ATOM     23  O   UNL     1      50.735   4.280  12.157  0.00  0.00    +0.000 OA
ATOM     24  N   UNL     1      52.005   4.428  10.170  0.00  0.00    +0.000 N 
ATOM     25  C   UNL     1      51.262   3.763  11.176  0.00  0.00    +0.000 C 
ATOM     26  C   UNL     1      52.579   3.767   8.993  0.00  0.00    +0.000 C 
BRANCH  24  27
ATOM     27  C   UNL     1      52.261   5.807  10.267  0.00  0.00    +0.000 C 
ATOM     28  C   UNL     1      53.116   6.335  11.294  0.00  0.00    +0.000 C 
ATOM     29  C   UNL     1      53.889   6.821  12.221  0.00  0.00    +0.000 C 
ATOM     30  C   UNL     1      55.197   7.409  11.735  0.00  0.00    +0.000 C 
BRANCH  27  31
ATOM     31  C   UNL     1      51.694   6.757   9.321  0.00  0.00    +0.000 C 
ATOM     32  C   UNL     1      52.582   7.468   8.319  0.00  0.00    +0.000 C 
ATOM     33  C   UNL     1      50.245   6.612   8.895  0.00  0.00    +0.000 C 
ENDBRANCH  27  31
BRANCH  29  35
ATOM     34  O   UNL     1      53.681   7.637  14.481  0.00  0.00    +0.000 OA
ATOM     35  C   UNL     1      53.459   6.773  13.645  0.00  0.00    +0.000 C 
BRANCH  35  36
ATOM     36  O   UNL     1      52.774   5.662  13.987  0.00  0.00    +0.000 OA
ATOM     37  H   UNL     1      53.272   4.919  13.589  0.00  0.00    +0.000 HD
ENDBRANCH  35  36
ENDBRANCH  29  35
ENDBRANCH  24  27
ENDBRANCH   5  25
BRANCH   5  38
ATOM     38  C   UNL     1      49.953   1.755  10.361  0.00  0.00    +0.000 C 
ATOM     39  C   UNL     1      50.439   0.903   9.144  0.00  0.00    +0.000 C 
ATOM     40  C   UNL     1      49.228   0.809  11.360  0.00  0.00    +0.000 C 
ATOM     41  C   UNL     1      49.003   2.867   9.853  0.00  0.00    +0.000 C 
ENDBRANCH   5  38
TORSDOF 7
ENDMDL
MODEL 9
REMARK VINA RESULT:      -6.1      4.741      8.300
REMARK  Name = 10940649_MilnamideD.pdbqt.pdb
REMARK  7 active torsions:
REMARK  status: ('A' for Active; 'I' for Inactive)
REMARK    1  A    between atoms: C_3  and  C_8
REMARK    2  A    between atoms: C_22  and  C_25
REMARK    3  A    between atoms: C_22  and  C_38
REMARK    4  A    between atoms: N_24  and  C_27
REMARK    5  A    between atoms: C_27  and  C_28
REMARK    6  A    between atoms: C_32  and  C_35
REMARK    7  A    between atoms: C_35  and  O_36
REMARK                            x       y       z     vdW  Elec       q    Type
REMARK                         _______ _______ _______ _____ _____    ______ ____
ROOT
ATOM      1  O   UNL     1      52.727   8.116   6.903  0.00  0.00    +0.000 OA
ATOM      2  N   UNL     1      53.411   6.323   5.691  0.00  0.00    +0.000 N 
ATOM      3  C   UNL     1      53.446   7.664   6.020  0.00  0.00    +0.000 C 
ATOM      4  H   UNL     1      53.952   6.004   4.879  0.00  0.00    +0.000 HD
ATOM      5  C   UNL     1      52.621   5.345   6.343  0.00  0.00    +0.000 C 
ENDROOT
BRANCH   3   9
ATOM      6  N   UNL     1      55.398   9.341   5.947  0.00  0.00    +0.000 NA
ATOM      7  N   UNL     1      56.874  10.893   2.661  0.00  0.00    +0.000 N 
ATOM      8  C   UNL     1      54.064   8.681   3.730  0.00  0.00    +0.000 C 
ATOM      9  C   UNL     1      54.402   8.517   5.242  0.00  0.00    +0.000 C 
ATOM     10  C   UNL     1      55.104   9.538   2.940  0.00  0.00    +0.000 A 
ATOM     11  C   UNL     1      56.129  10.218   3.564  0.00  0.00    +0.000 A 
ATOM     12  C   UNL     1      52.729   9.466   3.569  0.00  0.00    +0.000 C 
ATOM     13  C   UNL     1      54.092   7.289   3.035  0.00  0.00    +0.000 C 
ATOM     14  C   UNL     1      55.247   9.848   1.540  0.00  0.00    +0.000 A 
ATOM     15  C   UNL     1      56.156  10.055   4.953  0.00  0.00    +0.000 C 
ATOM     16  C   UNL     1      56.365  10.694   1.399  0.00  0.00    +0.000 A 
ATOM     17  C   UNL     1      56.332   8.511   6.692  0.00  0.00    +0.000 C 
ATOM     18  C   UNL     1      54.526   9.491   0.383  0.00  0.00    +0.000 A 
ATOM     19  C   UNL     1      58.001  11.699   2.988  0.00  0.00    +0.000 C 
ATOM     20  C   UNL     1      56.779  11.182   0.150  0.00  0.00    +0.000 A 
ATOM     21  C   UNL     1      54.933   9.974  -0.861  0.00  0.00    +0.000 A 
ATOM     22  C   UNL     1      56.041  10.803  -0.972  0.00  0.00    +0.000 A 
ENDBRANCH   3   9
BRANCH   5  25
ATOM     23  O   UNL     1      50.693   5.940   7.504  0.00  0.00    +0.000 OA
ATOM     24  N   UNL     1      52.655   5.603   8.777  0.00  0.00    +0.000 N 
ATOM     25  C   UNL     1      51.891   5.686   7.588  0.00  0.00    +0.000 C 
ATOM     26  C   UNL     1      54.097   5.336   8.818  0.00  0.00    +0.000 C 
BRANCH  24  27
ATOM     27  C   UNL     1      52.038   5.754  10.032  0.00  0.00    +0.000 C 
ATOM     28  C   UNL     1      51.398   4.646  10.686  0.00  0.00    +0.000 C 
ATOM     29  C   UNL     1      50.816   3.648  11.284  0.00  0.00    +0.000 C 
ATOM     30  C   UNL     1      51.492   3.166  12.550  0.00  0.00    +0.000 C 
BRANCH  27  31
ATOM     31  C   UNL     1      52.041   7.029  10.735  0.00  0.00    +0.000 C 
ATOM     32  C   UNL     1      53.144   7.361  11.721  0.00  0.00    +0.000 C 
ATOM     33  C   UNL     1      51.374   8.234  10.099  0.00  0.00    +0.000 C 
ENDBRANCH  27  31
BRANCH  29  35
ATOM     34  O   UNL     1      49.033   3.424   9.675  0.00  0.00    +0.000 OA
ATOM     35  C   UNL     1      49.572   3.065  10.712  0.00  0.00    +0.000 C 
BRANCH  35  36
ATOM     36  O   UNL     1      49.036   2.063  11.441  0.00  0.00    +0.000 OA
ATOM     37  H   UNL     1      48.727   1.405  10.785  0.00  0.00    +0.000 HD
ENDBRANCH  35  36
ENDBRANCH  29  35
ENDBRANCH  24  27
ENDBRANCH   5  25
BRANCH   5  38
ATOM     38  C   UNL     1      52.662   3.862   6.011  0.00  0.00    +0.000 C 
ATOM     39  C   UNL     1      52.012   3.700   4.599  0.00  0.00    +0.000 C 
ATOM     40  C   UNL     1      54.155   3.437   5.911  0.00  0.00    +0.000 C 
ATOM     41  C   UNL     1      51.896   2.978   7.025  0.00  0.00    +0.000 C 
ENDBRANCH   5  38
TORSDOF 7
ENDMDL
