MODEL 1
REMARK VINA RESULT:      -7.9      0.000      0.000
REMARK  Name = 11167602_Regorafenib.pdbqt.pdb
REMARK  6 active torsions:
REMARK  status: ('A' for Active; 'I' for Inactive)
REMARK    1  A    between atoms: C_2  and  N_10
REMARK    2  A    between atoms: C_3  and  O_25
REMARK    3  A    between atoms: N_9  and  C_15
REMARK    4  A    between atoms: C_16  and  C_24
REMARK    5  A    between atoms: O_25  and  C_27
REMARK    6  A    between atoms: C_29  and  C_34
REMARK                            x       y       z     vdW  Elec       q    Type
REMARK                         _______ _______ _______ _____ _____    ______ ____
ROOT
ATOM      1  F   UNL     1      35.096  17.294  22.125  0.00  0.00    +0.000 F 
ATOM      2  C   UNL     1      36.904  16.230  21.029  0.00  0.00    +0.000 A 
ATOM      3  C   UNL     1      37.342  18.589  19.595  0.00  0.00    +0.000 A 
ATOM      4  C   UNL     1      36.093  17.351  21.229  0.00  0.00    +0.000 A 
ATOM      5  C   UNL     1      37.926  16.301  20.084  0.00  0.00    +0.000 A 
ATOM      6  C   UNL     1      36.292  18.526  20.511  0.00  0.00    +0.000 A 
ATOM      7  C   UNL     1      38.139  17.471  19.358  0.00  0.00    +0.000 A 
ENDROOT
BRANCH   2  10
ATOM      8  O   UNL     1      35.491  13.816  20.248  0.00  0.00    +0.000 OA
ATOM      9  N   UNL     1      35.928  12.984  22.361  0.00  0.00    +0.000 N 
ATOM     10  N   UNL     1      36.650  15.075  21.799  0.00  0.00    +0.000 N 
ATOM     11  C   UNL     1      35.977  13.945  21.363  0.00  0.00    +0.000 C 
ATOM     12  H   UNL     1      36.390  13.186  23.235  0.00  0.00    +0.000 HD
ATOM     13  H   UNL     1      36.985  15.102  22.752  0.00  0.00    +0.000 HD
BRANCH   9  15
ATOM     14 CL   UNL     1      33.210   7.748  21.845  0.00  0.00    +0.000 Cl
ATOM     15  C   UNL     1      35.309  11.724  22.251  0.00  0.00    +0.000 A 
ATOM     16  C   UNL     1      33.320  10.472  21.601  0.00  0.00    +0.000 A 
ATOM     17  C   UNL     1      34.010  11.681  21.745  0.00  0.00    +0.000 A 
ATOM     18  C   UNL     1      35.931  10.536  22.620  0.00  0.00    +0.000 A 
ATOM     19  C   UNL     1      33.962   9.291  21.978  0.00  0.00    +0.000 A 
ATOM     20  C   UNL     1      35.261   9.324  22.485  0.00  0.00    +0.000 A 
BRANCH  16  24
ATOM     21  F   UNL     1      31.430  11.760  20.923  0.00  0.00    +0.000 F 
ATOM     22  F   UNL     1      31.839   9.946  19.809  0.00  0.00    +0.000 F 
ATOM     23  F   UNL     1      31.034   9.834  21.833  0.00  0.00    +0.000 F 
ATOM     24  C   UNL     1      31.929  10.496  21.050  0.00  0.00    +0.000 C 
ENDBRANCH  16  24
ENDBRANCH   9  15
ENDBRANCH   2  10
BRANCH   3  25
ATOM     25  O   UNL     1      37.550  19.690  18.799  0.00  0.00    +0.000 OA
BRANCH  25  27
ATOM     26  N   UNL     1      37.025  23.527  20.352  0.00  0.00    +0.000 NA
ATOM     27  C   UNL     1      37.419  20.934  19.374  0.00  0.00    +0.000 A 
ATOM     28  C   UNL     1      38.457  21.586  20.031  0.00  0.00    +0.000 A 
ATOM     29  C   UNL     1      38.206  22.863  20.504  0.00  0.00    +0.000 A 
ATOM     30  C   UNL     1      36.203  21.579  19.174  0.00  0.00    +0.000 A 
ATOM     31  C   UNL     1      36.056  22.859  19.683  0.00  0.00    +0.000 A 
BRANCH  29  34
ATOM     32  O   UNL     1      39.829  24.558  20.737  0.00  0.00    +0.000 OA
ATOM     33  N   UNL     1      39.524  23.037  22.487  0.00  0.00    +0.000 N 
ATOM     34  C   UNL     1      39.273  23.588  21.242  0.00  0.00    +0.000 C 
ATOM     35  C   UNL     1      40.456  23.401  23.520  0.00  0.00    +0.000 C 
ATOM     36  H   UNL     1      38.948  22.226  22.712  0.00  0.00    +0.000 HD
ENDBRANCH  29  34
ENDBRANCH  25  27
ENDBRANCH   3  25
TORSDOF 6
ENDMDL
MODEL 2
REMARK VINA RESULT:      -7.6      4.608     12.386
REMARK  Name = 11167602_Regorafenib.pdbqt.pdb
REMARK  6 active torsions:
REMARK  status: ('A' for Active; 'I' for Inactive)
REMARK    1  A    between atoms: C_2  and  N_10
REMARK    2  A    between atoms: C_3  and  O_25
REMARK    3  A    between atoms: N_9  and  C_15
REMARK    4  A    between atoms: C_16  and  C_24
REMARK    5  A    between atoms: O_25  and  C_27
REMARK    6  A    between atoms: C_29  and  C_34
REMARK                            x       y       z     vdW  Elec       q    Type
REMARK                         _______ _______ _______ _____ _____    ______ ____
ROOT
ATOM      1  F   UNL     1      32.762  12.244  21.288  0.00  0.00    +0.000 F 
ATOM      2  C   UNL     1      34.867  11.704  22.225  0.00  0.00    +0.000 A 
ATOM      3  C   UNL     1      34.191   8.999  22.027  0.00  0.00    +0.000 A 
ATOM      4  C   UNL     1      33.631  11.310  21.704  0.00  0.00    +0.000 A 
ATOM      5  C   UNL     1      35.753  10.722  22.666  0.00  0.00    +0.000 A 
ATOM      6  C   UNL     1      33.278   9.967  21.613  0.00  0.00    +0.000 A 
ATOM      7  C   UNL     1      35.414   9.372  22.581  0.00  0.00    +0.000 A 
ENDROOT
BRANCH   2  10
ATOM      8  O   UNL     1      36.397  13.297  20.338  0.00  0.00    +0.000 OA
ATOM      9  N   UNL     1      35.969  15.131  21.679  0.00  0.00    +0.000 N 
ATOM     10  N   UNL     1      35.162  13.083  22.278  0.00  0.00    +0.000 N 
ATOM     11  C   UNL     1      35.890  13.791  21.337  0.00  0.00    +0.000 C 
ATOM     12  H   UNL     1      35.487  15.435  22.512  0.00  0.00    +0.000 HD
ATOM     13  H   UNL     1      34.813  13.573  23.090  0.00  0.00    +0.000 HD
BRANCH   9  15
ATOM     14 CL   UNL     1      38.716  19.400  18.629  0.00  0.00    +0.000 Cl
ATOM     15  C   UNL     1      36.645  16.123  20.943  0.00  0.00    +0.000 A 
ATOM     16  C   UNL     1      36.730  18.465  20.264  0.00  0.00    +0.000 A 
ATOM     17  C   UNL     1      36.123  17.417  20.965  0.00  0.00    +0.000 A 
ATOM     18  C   UNL     1      37.797  15.872  20.206  0.00  0.00    +0.000 A 
ATOM     19  C   UNL     1      37.885  18.190  19.529  0.00  0.00    +0.000 A 
ATOM     20  C   UNL     1      38.415  16.900  19.501  0.00  0.00    +0.000 A 
BRANCH  16  24
ATOM     21  F   UNL     1      36.967  20.765  20.845  0.00  0.00    +0.000 F 
ATOM     22  F   UNL     1      35.750  20.306  19.111  0.00  0.00    +0.000 F 
ATOM     23  F   UNL     1      35.010  19.876  21.118  0.00  0.00    +0.000 F 
ATOM     24  C   UNL     1      36.119  19.828  20.331  0.00  0.00    +0.000 C 
ENDBRANCH  16  24
ENDBRANCH   9  15
ENDBRANCH   2  10
BRANCH   3  25
ATOM     25  O   UNL     1      33.881   7.659  22.037  0.00  0.00    +0.000 OA
BRANCH  25  27
ATOM     26  N   UNL     1      30.572   6.354  24.218  0.00  0.00    +0.000 NA
ATOM     27  C   UNL     1      32.742   7.268  22.705  0.00  0.00    +0.000 A 
ATOM     28  C   UNL     1      31.576   6.869  22.062  0.00  0.00    +0.000 A 
ATOM     29  C   UNL     1      30.528   6.436  22.858  0.00  0.00    +0.000 A 
ATOM     30  C   UNL     1      32.843   7.181  24.090  0.00  0.00    +0.000 A 
ATOM     31  C   UNL     1      31.738   6.729  24.793  0.00  0.00    +0.000 A 
BRANCH  29  34
ATOM     32  O   UNL     1      29.215   5.077  21.448  0.00  0.00    +0.000 OA
ATOM     33  N   UNL     1      28.190   6.839  22.594  0.00  0.00    +0.000 N 
ATOM     34  C   UNL     1      29.250   6.031  22.218  0.00  0.00    +0.000 C 
ATOM     35  C   UNL     1      26.800   6.820  22.227  0.00  0.00    +0.000 C 
ATOM     36  H   UNL     1      28.439   7.583  23.245  0.00  0.00    +0.000 HD
ENDBRANCH  29  34
ENDBRANCH  25  27
ENDBRANCH   3  25
TORSDOF 6
ENDMDL
MODEL 3
REMARK VINA RESULT:      -6.8     32.592     34.375
REMARK  Name = 11167602_Regorafenib.pdbqt.pdb
REMARK  6 active torsions:
REMARK  status: ('A' for Active; 'I' for Inactive)
REMARK    1  A    between atoms: C_2  and  N_10
REMARK    2  A    between atoms: C_3  and  O_25
REMARK    3  A    between atoms: N_9  and  C_15
REMARK    4  A    between atoms: C_16  and  C_24
REMARK    5  A    between atoms: O_25  and  C_27
REMARK    6  A    between atoms: C_29  and  C_34
REMARK                            x       y       z     vdW  Elec       q    Type
REMARK                         _______ _______ _______ _____ _____    ______ ____
ROOT
ATOM      1  F   UNL     1      42.754   2.743  -8.111  0.00  0.00    +0.000 F 
ATOM      2  C   UNL     1      41.918   0.541  -8.337  0.00  0.00    +0.000 A 
ATOM      3  C   UNL     1      44.287  -0.158  -9.646  0.00  0.00    +0.000 A 
ATOM      4  C   UNL     1      42.926   1.486  -8.548  0.00  0.00    +0.000 A 
ATOM      5  C   UNL     1      42.105  -0.757  -8.811  0.00  0.00    +0.000 A 
ATOM      6  C   UNL     1      44.103   1.154  -9.210  0.00  0.00    +0.000 A 
ATOM      7  C   UNL     1      43.280  -1.106  -9.475  0.00  0.00    +0.000 A 
ENDROOT
BRANCH   2  10
ATOM      8  O   UNL     1      39.706   2.144  -9.323  0.00  0.00    +0.000 OA
ATOM      9  N   UNL     1      38.719   1.897  -7.247  0.00  0.00    +0.000 N 
ATOM     10  N   UNL     1      40.754   0.945  -7.650  0.00  0.00    +0.000 N 
ATOM     11  C   UNL     1      39.723   1.703  -8.181  0.00  0.00    +0.000 C 
ATOM     12  H   UNL     1      38.825   1.461  -6.342  0.00  0.00    +0.000 HD
ATOM     13  H   UNL     1      40.694   0.657  -6.684  0.00  0.00    +0.000 HD
BRANCH   9  15
ATOM     14 CL   UNL     1      33.818   5.103  -8.123  0.00  0.00    +0.000 Cl
ATOM     15  C   UNL     1      37.536   2.630  -7.459  0.00  0.00    +0.000 A 
ATOM     16  C   UNL     1      36.492   4.830  -7.606  0.00  0.00    +0.000 A 
ATOM     17  C   UNL     1      37.617   4.022  -7.407  0.00  0.00    +0.000 A 
ATOM     18  C   UNL     1      36.306   2.034  -7.716  0.00  0.00    +0.000 A 
ATOM     19  C   UNL     1      35.267   4.211  -7.862  0.00  0.00    +0.000 A 
ATOM     20  C   UNL     1      35.176   2.820  -7.916  0.00  0.00    +0.000 A 
BRANCH  16  24
ATOM     21  F   UNL     1      36.764   6.894  -8.769  0.00  0.00    +0.000 F 
ATOM     22  F   UNL     1      35.591   6.935  -6.947  0.00  0.00    +0.000 F 
ATOM     23  F   UNL     1      37.758   6.703  -6.853  0.00  0.00    +0.000 F 
ATOM     24  C   UNL     1      36.649   6.316  -7.539  0.00  0.00    +0.000 C 
ENDBRANCH  16  24
ENDBRANCH   9  15
ENDBRANCH   2  10
BRANCH   3  25
ATOM     25  O   UNL     1      45.391  -0.538 -10.372  0.00  0.00    +0.000 OA
BRANCH  25  27
ATOM     26  N   UNL     1      48.855   1.784 -10.232  0.00  0.00    +0.000 NA
ATOM     27  C   UNL     1      46.534   0.219 -10.247  0.00  0.00    +0.000 A 
ATOM     28  C   UNL     1      47.577  -0.106  -9.385  0.00  0.00    +0.000 A 
ATOM     29  C   UNL     1      48.697   0.708  -9.410  0.00  0.00    +0.000 A 
ATOM     30  C   UNL     1      46.658   1.294 -11.121  0.00  0.00    +0.000 A 
ATOM     31  C   UNL     1      47.824   2.041 -11.069  0.00  0.00    +0.000 A 
BRANCH  29  34
ATOM     32  O   UNL     1      50.208   1.275  -7.691  0.00  0.00    +0.000 OA
ATOM     33  N   UNL     1      50.331  -0.856  -8.645  0.00  0.00    +0.000 N 
ATOM     34  C   UNL     1      49.823   0.421  -8.483  0.00  0.00    +0.000 C 
ATOM     35  C   UNL     1      51.403  -1.547  -7.980  0.00  0.00    +0.000 C 
ATOM     36  H   UNL     1      49.866  -1.405  -9.367  0.00  0.00    +0.000 HD
ENDBRANCH  29  34
ENDBRANCH  25  27
ENDBRANCH   3  25
TORSDOF 6
ENDMDL
MODEL 4
REMARK VINA RESULT:      -6.6     32.671     34.444
REMARK  Name = 11167602_Regorafenib.pdbqt.pdb
REMARK  6 active torsions:
REMARK  status: ('A' for Active; 'I' for Inactive)
REMARK    1  A    between atoms: C_2  and  N_10
REMARK    2  A    between atoms: C_3  and  O_25
REMARK    3  A    between atoms: N_9  and  C_15
REMARK    4  A    between atoms: C_16  and  C_24
REMARK    5  A    between atoms: O_25  and  C_27
REMARK    6  A    between atoms: C_29  and  C_34
REMARK                            x       y       z     vdW  Elec       q    Type
REMARK                         _______ _______ _______ _____ _____    ______ ____
ROOT
ATOM      1  F   UNL     1      42.893   2.743  -8.039  0.00  0.00    +0.000 F 
ATOM      2  C   UNL     1      41.902   0.607  -8.279  0.00  0.00    +0.000 A 
ATOM      3  C   UNL     1      44.188  -0.230  -9.653  0.00  0.00    +0.000 A 
ATOM      4  C   UNL     1      42.968   1.485  -8.500  0.00  0.00    +0.000 A 
ATOM      5  C   UNL     1      41.989  -0.692  -8.776  0.00  0.00    +0.000 A 
ATOM      6  C   UNL     1      44.105   1.084  -9.193  0.00  0.00    +0.000 A 
ATOM      7  C   UNL     1      43.123  -1.110  -9.473  0.00  0.00    +0.000 A 
ENDROOT
BRANCH   2  10
ATOM      8  O   UNL     1      39.456   1.785  -9.313  0.00  0.00    +0.000 OA
ATOM      9  N   UNL     1      38.722   1.957  -7.127  0.00  0.00    +0.000 N 
ATOM     10  N   UNL     1      40.784   1.079  -7.560  0.00  0.00    +0.000 N 
ATOM     11  C   UNL     1      39.636   1.622  -8.114  0.00  0.00    +0.000 C 
ATOM     12  H   UNL     1      38.964   1.751  -6.169  0.00  0.00    +0.000 HD
ATOM     13  H   UNL     1      40.854   1.019  -6.554  0.00  0.00    +0.000 HD
BRANCH   9  15
ATOM     14 CL   UNL     1      33.350   4.287  -8.006  0.00  0.00    +0.000 Cl
ATOM     15  C   UNL     1      37.460   2.539  -7.348  0.00  0.00    +0.000 A 
ATOM     16  C   UNL     1      35.037   2.279  -7.227  0.00  0.00    +0.000 A 
ATOM     17  C   UNL     1      36.332   1.779  -7.040  0.00  0.00    +0.000 A 
ATOM     18  C   UNL     1      37.292   3.825  -7.852  0.00  0.00    +0.000 A 
ATOM     19  C   UNL     1      34.891   3.571  -7.735  0.00  0.00    +0.000 A 
ATOM     20  C   UNL     1      36.013   4.338  -8.046  0.00  0.00    +0.000 A 
BRANCH  16  24
ATOM     21  F   UNL     1      34.243   0.209  -6.346  0.00  0.00    +0.000 F 
ATOM     22  F   UNL     1      33.050   1.974  -5.947  0.00  0.00    +0.000 F 
ATOM     23  F   UNL     1      33.091   1.106  -7.948  0.00  0.00    +0.000 F 
ATOM     24  C   UNL     1      33.871   1.411  -6.875  0.00  0.00    +0.000 C 
ENDBRANCH  16  24
ENDBRANCH   9  15
ENDBRANCH   2  10
BRANCH   3  25
ATOM     25  O   UNL     1      45.248  -0.673 -10.410  0.00  0.00    +0.000 OA
BRANCH  25  27
ATOM     26  N   UNL     1      48.578   1.782 -10.947  0.00  0.00    +0.000 NA
ATOM     27  C   UNL     1      46.353   0.142 -10.508  0.00  0.00    +0.000 A 
ATOM     28  C   UNL     1      47.467   0.023  -9.685  0.00  0.00    +0.000 A 
ATOM     29  C   UNL     1      48.537   0.866  -9.939  0.00  0.00    +0.000 A 
ATOM     30  C   UNL     1      46.356   1.047 -11.565  0.00  0.00    +0.000 A 
ATOM     31  C   UNL     1      47.479   1.840 -11.735  0.00  0.00    +0.000 A 
BRANCH  29  34
ATOM     32  O   UNL     1      50.320   1.825  -8.731  0.00  0.00    +0.000 OA
ATOM     33  N   UNL     1      50.069  -0.500  -8.719  0.00  0.00    +0.000 N 
ATOM     34  C   UNL     1      49.737   0.799  -9.066  0.00  0.00    +0.000 C 
ATOM     35  C   UNL     1      51.135  -1.027  -7.911  0.00  0.00    +0.000 C 
ATOM     36  H   UNL     1      49.451  -1.210  -9.110  0.00  0.00    +0.000 HD
ENDBRANCH  29  34
ENDBRANCH  25  27
ENDBRANCH   3  25
TORSDOF 6
ENDMDL
MODEL 5
REMARK VINA RESULT:      -6.5     23.908     25.749
REMARK  Name = 11167602_Regorafenib.pdbqt.pdb
REMARK  6 active torsions:
REMARK  status: ('A' for Active; 'I' for Inactive)
REMARK    1  A    between atoms: C_2  and  N_10
REMARK    2  A    between atoms: C_3  and  O_25
REMARK    3  A    between atoms: N_9  and  C_15
REMARK    4  A    between atoms: C_16  and  C_24
REMARK    5  A    between atoms: O_25  and  C_27
REMARK    6  A    between atoms: C_29  and  C_34
REMARK                            x       y       z     vdW  Elec       q    Type
REMARK                         _______ _______ _______ _____ _____    ______ ____
ROOT
ATOM      1  F   UNL     1      54.849   4.973   6.707  0.00  0.00    +0.000 F 
ATOM      2  C   UNL     1      52.843   5.890   5.847  0.00  0.00    +0.000 A 
ATOM      3  C   UNL     1      52.454   7.177   8.298  0.00  0.00    +0.000 A 
ATOM      4  C   UNL     1      53.763   5.740   6.890  0.00  0.00    +0.000 A 
ATOM      5  C   UNL     1      51.713   6.679   6.057  0.00  0.00    +0.000 A 
ATOM      6  C   UNL     1      53.573   6.364   8.118  0.00  0.00    +0.000 A 
ATOM      7  C   UNL     1      51.509   7.312   7.283  0.00  0.00    +0.000 A 
ENDROOT
BRANCH   2  10
ATOM      8  O   UNL     1      52.234   3.151   5.101  0.00  0.00    +0.000 OA
ATOM      9  N   UNL     1      53.149   3.607   3.027  0.00  0.00    +0.000 N 
ATOM     10  N   UNL     1      53.105   5.236   4.625  0.00  0.00    +0.000 N 
ATOM     11  C   UNL     1      52.777   3.924   4.324  0.00  0.00    +0.000 C 
ATOM     12  H   UNL     1      53.565   4.334   2.464  0.00  0.00    +0.000 HD
ATOM     13  H   UNL     1      53.586   5.787   3.928  0.00  0.00    +0.000 HD
BRANCH   9  15
ATOM     14 CL   UNL     1      52.275  -1.679   0.504  0.00  0.00    +0.000 Cl
ATOM     15  C   UNL     1      52.970   2.355   2.410  0.00  0.00    +0.000 A 
ATOM     16  C   UNL     1      51.602   0.344   2.221  0.00  0.00    +0.000 A 
ATOM     17  C   UNL     1      51.858   1.599   2.784  0.00  0.00    +0.000 A 
ATOM     18  C   UNL     1      53.841   1.846   1.453  0.00  0.00    +0.000 A 
ATOM     19  C   UNL     1      52.490  -0.149   1.263  0.00  0.00    +0.000 A 
ATOM     20  C   UNL     1      53.604   0.599   0.882  0.00  0.00    +0.000 A 
BRANCH  16  24
ATOM     21  F   UNL     1      49.476  -0.586   1.670  0.00  0.00    +0.000 F 
ATOM     22  F   UNL     1      50.682  -1.668   3.110  0.00  0.00    +0.000 F 
ATOM     23  F   UNL     1      49.716   0.206   3.673  0.00  0.00    +0.000 F 
ATOM     24  C   UNL     1      50.391  -0.414   2.667  0.00  0.00    +0.000 C 
ENDBRANCH  16  24
ENDBRANCH   9  15
ENDBRANCH   2  10
BRANCH   3  25
ATOM     25  O   UNL     1      52.164   7.763   9.508  0.00  0.00    +0.000 OA
BRANCH  25  27
ATOM     26  N   UNL     1      50.240   5.523  12.456  0.00  0.00    +0.000 NA
ATOM     27  C   UNL     1      51.466   7.017  10.432  0.00  0.00    +0.000 A 
ATOM     28  C   UNL     1      50.695   5.910  10.097  0.00  0.00    +0.000 A 
ATOM     29  C   UNL     1      50.102   5.212  11.136  0.00  0.00    +0.000 A 
ATOM     30  C   UNL     1      51.656   7.361  11.767  0.00  0.00    +0.000 A 
ATOM     31  C   UNL     1      51.021   6.593  12.730  0.00  0.00    +0.000 A 
BRANCH  29  34
ATOM     32  O   UNL     1      48.145   4.200  10.297  0.00  0.00    +0.000 OA
ATOM     33  N   UNL     1      49.820   2.842  11.201  0.00  0.00    +0.000 N 
ATOM     34  C   UNL     1      49.240   4.042  10.826  0.00  0.00    +0.000 C 
ATOM     35  C   UNL     1      49.355   1.486  11.098  0.00  0.00    +0.000 C 
ATOM     36  H   UNL     1      50.740   2.937  11.630  0.00  0.00    +0.000 HD
ENDBRANCH  29  34
ENDBRANCH  25  27
ENDBRANCH   3  25
TORSDOF 6
ENDMDL
MODEL 6
REMARK VINA RESULT:      -6.1      2.787      4.189
REMARK  Name = 11167602_Regorafenib.pdbqt.pdb
REMARK  6 active torsions:
REMARK  status: ('A' for Active; 'I' for Inactive)
REMARK    1  A    between atoms: C_2  and  N_10
REMARK    2  A    between atoms: C_3  and  O_25
REMARK    3  A    between atoms: N_9  and  C_15
REMARK    4  A    between atoms: C_16  and  C_24
REMARK    5  A    between atoms: O_25  and  C_27
REMARK    6  A    between atoms: C_29  and  C_34
REMARK                            x       y       z     vdW  Elec       q    Type
REMARK                         _______ _______ _______ _____ _____    ______ ____
ROOT
ATOM      1  F   UNL     1      34.673  20.241  20.987  0.00  0.00    +0.000 F 
ATOM      2  C   UNL     1      36.773  19.748  20.013  0.00  0.00    +0.000 A 
ATOM      3  C   UNL     1      37.648  22.295  20.761  0.00  0.00    +0.000 A 
ATOM      4  C   UNL     1      35.923  20.628  20.689  0.00  0.00    +0.000 A 
ATOM      5  C   UNL     1      38.063  20.170  19.698  0.00  0.00    +0.000 A 
ATOM      6  C   UNL     1      36.342  21.903  21.054  0.00  0.00    +0.000 A 
ATOM      7  C   UNL     1      38.499  21.445  20.057  0.00  0.00    +0.000 A 
ENDROOT
BRANCH   2  10
ATOM      8  O   UNL     1      36.332  17.475  21.766  0.00  0.00    +0.000 OA
ATOM      9  N   UNL     1      35.565  16.313  19.920  0.00  0.00    +0.000 N 
ATOM     10  N   UNL     1      36.284  18.466  19.681  0.00  0.00    +0.000 N 
ATOM     11  C   UNL     1      36.083  17.423  20.570  0.00  0.00    +0.000 C 
ATOM     12  H   UNL     1      35.371  16.392  18.933  0.00  0.00    +0.000 HD
ATOM     13  H   UNL     1      36.082  18.315  18.703  0.00  0.00    +0.000 HD
BRANCH   9  15
ATOM     14 CL   UNL     1      34.125  11.166  22.468  0.00  0.00    +0.000 Cl
ATOM     15  C   UNL     1      35.256  15.082  20.528  0.00  0.00    +0.000 A 
ATOM     16  C   UNL     1      33.512  13.588  21.351  0.00  0.00    +0.000 A 
ATOM     17  C   UNL     1      33.911  14.789  20.752  0.00  0.00    +0.000 A 
ATOM     18  C   UNL     1      36.222  14.157  20.908  0.00  0.00    +0.000 A 
ATOM     19  C   UNL     1      34.498  12.673  21.725  0.00  0.00    +0.000 A 
ATOM     20  C   UNL     1      35.846  12.958  21.505  0.00  0.00    +0.000 A 
BRANCH  16  24
ATOM     21  F   UNL     1      31.265  14.336  21.072  0.00  0.00    +0.000 F 
ATOM     22  F   UNL     1      31.616  12.201  20.949  0.00  0.00    +0.000 F 
ATOM     23  F   UNL     1      31.716  13.222  22.874  0.00  0.00    +0.000 F 
ATOM     24  C   UNL     1      32.053  13.335  21.561  0.00  0.00    +0.000 C 
ENDBRANCH  16  24
ENDBRANCH   9  15
ENDBRANCH   2  10
BRANCH   3  25
ATOM     25  O   UNL     1      38.106  23.565  21.024  0.00  0.00    +0.000 OA
BRANCH  25  27
ATOM     26  N   UNL     1      39.460  24.237  24.913  0.00  0.00    +0.000 NA
ATOM     27  C   UNL     1      38.505  23.850  22.311  0.00  0.00    +0.000 A 
ATOM     28  C   UNL     1      37.629  24.259  23.311  0.00  0.00    +0.000 A 
ATOM     29  C   UNL     1      38.156  24.446  24.578  0.00  0.00    +0.000 A 
ATOM     30  C   UNL     1      39.841  23.601  22.609  0.00  0.00    +0.000 A 
ATOM     31  C   UNL     1      40.265  23.814  23.911  0.00  0.00    +0.000 A 
BRANCH  29  34
ATOM     32  O   UNL     1      36.277  24.264  25.991  0.00  0.00    +0.000 OA
ATOM     33  N   UNL     1      37.693  26.109  26.227  0.00  0.00    +0.000 N 
ATOM     34  C   UNL     1      37.266  24.915  25.672  0.00  0.00    +0.000 C 
ATOM     35  C   UNL     1      37.149  26.917  27.285  0.00  0.00    +0.000 C 
ATOM     36  H   UNL     1      38.542  26.487  25.809  0.00  0.00    +0.000 HD
ENDBRANCH  29  34
ENDBRANCH  25  27
ENDBRANCH   3  25
TORSDOF 6
ENDMDL
MODEL 7
REMARK VINA RESULT:      -6.1      2.629      3.738
REMARK  Name = 11167602_Regorafenib.pdbqt.pdb
REMARK  6 active torsions:
REMARK  status: ('A' for Active; 'I' for Inactive)
REMARK    1  A    between atoms: C_2  and  N_10
REMARK    2  A    between atoms: C_3  and  O_25
REMARK    3  A    between atoms: N_9  and  C_15
REMARK    4  A    between atoms: C_16  and  C_24
REMARK    5  A    between atoms: O_25  and  C_27
REMARK    6  A    between atoms: C_29  and  C_34
REMARK                            x       y       z     vdW  Elec       q    Type
REMARK                         _______ _______ _______ _____ _____    ______ ____
ROOT
ATOM      1  F   UNL     1      34.064  20.023  20.866  0.00  0.00    +0.000 F 
ATOM      2  C   UNL     1      36.193  19.369  20.066  0.00  0.00    +0.000 A 
ATOM      3  C   UNL     1      37.071  21.996  20.439  0.00  0.00    +0.000 A 
ATOM      4  C   UNL     1      35.329  20.350  20.561  0.00  0.00    +0.000 A 
ATOM      5  C   UNL     1      37.500  19.728  19.741  0.00  0.00    +0.000 A 
ATOM      6  C   UNL     1      35.750  21.664  20.737  0.00  0.00    +0.000 A 
ATOM      7  C   UNL     1      37.938  21.040  19.913  0.00  0.00    +0.000 A 
ENDROOT
BRANCH   2  10
ATOM      8  O   UNL     1      36.628  17.077  21.796  0.00  0.00    +0.000 OA
ATOM      9  N   UNL     1      35.280  15.857  20.369  0.00  0.00    +0.000 N 
ATOM     10  N   UNL     1      35.700  18.055  19.921  0.00  0.00    +0.000 N 
ATOM     11  C   UNL     1      35.934  17.003  20.791  0.00  0.00    +0.000 C 
ATOM     12  H   UNL     1      34.709  15.917  19.539  0.00  0.00    +0.000 HD
ATOM     13  H   UNL     1      35.141  17.886  19.096  0.00  0.00    +0.000 HD
BRANCH   9  15
ATOM     14 CL   UNL     1      35.347  10.657  23.202  0.00  0.00    +0.000 Cl
ATOM     15  C   UNL     1      35.317  14.609  21.019  0.00  0.00    +0.000 A 
ATOM     16  C   UNL     1      34.558  13.261  22.905  0.00  0.00    +0.000 A 
ATOM     17  C   UNL     1      34.579  14.467  22.194  0.00  0.00    +0.000 A 
ATOM     18  C   UNL     1      36.047  13.524  20.544  0.00  0.00    +0.000 A 
ATOM     19  C   UNL     1      35.299  12.186  22.412  0.00  0.00    +0.000 A 
ATOM     20  C   UNL     1      36.040  12.318  21.237  0.00  0.00    +0.000 A 
BRANCH  16  24
ATOM     21  F   UNL     1      33.166  14.364  24.497  0.00  0.00    +0.000 F 
ATOM     22  F   UNL     1      32.719  12.287  24.067  0.00  0.00    +0.000 F 
ATOM     23  F   UNL     1      34.478  12.811  25.245  0.00  0.00    +0.000 F 
ATOM     24  C   UNL     1      33.745  13.176  24.159  0.00  0.00    +0.000 C 
ENDBRANCH  16  24
ENDBRANCH   9  15
ENDBRANCH   2  10
BRANCH   3  25
ATOM     25  O   UNL     1      37.535  23.289  20.517  0.00  0.00    +0.000 OA
BRANCH  25  27
ATOM     26  N   UNL     1      39.126  24.673  24.117  0.00  0.00    +0.000 NA
ATOM     27  C   UNL     1      38.118  23.691  21.698  0.00  0.00    +0.000 A 
ATOM     28  C   UNL     1      39.492  23.818  21.868  0.00  0.00    +0.000 A 
ATOM     29  C   UNL     1      39.939  24.299  23.088  0.00  0.00    +0.000 A 
ATOM     30  C   UNL     1      37.247  24.082  22.711  0.00  0.00    +0.000 A 
ATOM     31  C   UNL     1      37.798  24.555  23.891  0.00  0.00    +0.000 A 
BRANCH  29  34
ATOM     32  O   UNL     1      42.175  24.561  22.390  0.00  0.00    +0.000 OA
ATOM     33  N   UNL     1      41.723  24.352  24.674  0.00  0.00    +0.000 N 
ATOM     34  C   UNL     1      41.399  24.421  23.330  0.00  0.00    +0.000 C 
ATOM     35  C   UNL     1      42.987  24.418  25.355  0.00  0.00    +0.000 C 
ATOM     36  H   UNL     1      40.922  24.229  25.292  0.00  0.00    +0.000 HD
ENDBRANCH  29  34
ENDBRANCH  25  27
ENDBRANCH   3  25
TORSDOF 6
ENDMDL
MODEL 8
REMARK VINA RESULT:      -5.9     32.192     34.438
REMARK  Name = 11167602_Regorafenib.pdbqt.pdb
REMARK  6 active torsions:
REMARK  status: ('A' for Active; 'I' for Inactive)
REMARK    1  A    between atoms: C_2  and  N_10
REMARK    2  A    between atoms: C_3  and  O_25
REMARK    3  A    between atoms: N_9  and  C_15
REMARK    4  A    between atoms: C_16  and  C_24
REMARK    5  A    between atoms: O_25  and  C_27
REMARK    6  A    between atoms: C_29  and  C_34
REMARK                            x       y       z     vdW  Elec       q    Type
REMARK                         _______ _______ _______ _____ _____    ______ ____
ROOT
ATOM      1  F   UNL     1      40.529 -14.288   3.268  0.00  0.00    +0.000 F 
ATOM      2  C   UNL     1      40.137 -11.959   3.418  0.00  0.00    +0.000 A 
ATOM      3  C   UNL     1      40.133 -11.844   0.625  0.00  0.00    +0.000 A 
ATOM      4  C   UNL     1      40.338 -13.112   2.652  0.00  0.00    +0.000 A 
ATOM      5  C   UNL     1      39.954 -10.742   2.763  0.00  0.00    +0.000 A 
ATOM      6  C   UNL     1      40.352 -13.065   1.262  0.00  0.00    +0.000 A 
ATOM      7  C   UNL     1      39.965 -10.679   1.370  0.00  0.00    +0.000 A 
ENDROOT
BRANCH   2  10
ATOM      8  O   UNL     1      42.332 -12.661   5.185  0.00  0.00    +0.000 OA
ATOM      9  N   UNL     1      40.866 -12.418   6.956  0.00  0.00    +0.000 N 
ATOM     10  N   UNL     1      40.126 -12.083   4.823  0.00  0.00    +0.000 N 
ATOM     11  C   UNL     1      41.214 -12.410   5.615  0.00  0.00    +0.000 C 
ATOM     12  H   UNL     1      39.919 -12.166   7.200  0.00  0.00    +0.000 HD
ATOM     13  H   UNL     1      39.232 -11.927   5.269  0.00  0.00    +0.000 HD
BRANCH   9  15
ATOM     14 CL   UNL     1      44.598 -13.585  11.402  0.00  0.00    +0.000 Cl
ATOM     15  C   UNL     1      41.733 -12.720   8.023  0.00  0.00    +0.000 A 
ATOM     16  C   UNL     1      43.816 -12.195   9.179  0.00  0.00    +0.000 A 
ATOM     17  C   UNL     1      42.898 -11.963   8.147  0.00  0.00    +0.000 A 
ATOM     18  C   UNL     1      41.479 -13.728   8.948  0.00  0.00    +0.000 A 
ATOM     19  C   UNL     1      43.542 -13.212  10.095  0.00  0.00    +0.000 A 
ATOM     20  C   UNL     1      42.380 -13.974   9.979  0.00  0.00    +0.000 A 
BRANCH  16  24
ATOM     21  F   UNL     1      45.104 -10.406   8.267  0.00  0.00    +0.000 F 
ATOM     22  F   UNL     1      45.139 -10.650  10.421  0.00  0.00    +0.000 F 
ATOM     23  F   UNL     1      46.196 -12.063   9.138  0.00  0.00    +0.000 F 
ATOM     24  C   UNL     1      45.045 -11.346   9.255  0.00  0.00    +0.000 C 
ENDBRANCH  16  24
ENDBRANCH   9  15
ENDBRANCH   2  10
BRANCH   3  25
ATOM     25  O   UNL     1      40.208 -11.710  -0.742  0.00  0.00    +0.000 OA
BRANCH  25  27
ATOM     26  N   UNL     1      44.019 -11.847  -2.434  0.00  0.00    +0.000 NA
ATOM     27  C   UNL     1      41.458 -11.678  -1.317  0.00  0.00    +0.000 A 
ATOM     28  C   UNL     1      42.359 -10.634  -1.132  0.00  0.00    +0.000 A 
ATOM     29  C   UNL     1      43.609 -10.764  -1.715  0.00  0.00    +0.000 A 
ATOM     30  C   UNL     1      41.838 -12.814  -2.024  0.00  0.00    +0.000 A 
ATOM     31  C   UNL     1      43.115 -12.845  -2.563  0.00  0.00    +0.000 A 
BRANCH  29  34
ATOM     32  O   UNL     1      44.338  -8.541  -2.003  0.00  0.00    +0.000 OA
ATOM     33  N   UNL     1      45.754 -10.064  -0.935  0.00  0.00    +0.000 N 
ATOM     34  C   UNL     1      44.593  -9.661  -1.573  0.00  0.00    +0.000 C 
ATOM     35  C   UNL     1      46.953  -9.347  -0.595  0.00  0.00    +0.000 C 
ATOM     36  H   UNL     1      45.763 -11.046  -0.661  0.00  0.00    +0.000 HD
ENDBRANCH  29  34
ENDBRANCH  25  27
ENDBRANCH   3  25
TORSDOF 6
ENDMDL
MODEL 9
REMARK VINA RESULT:      -5.9     29.182     30.545
REMARK  Name = 11167602_Regorafenib.pdbqt.pdb
REMARK  6 active torsions:
REMARK  status: ('A' for Active; 'I' for Inactive)
REMARK    1  A    between atoms: C_2  and  N_10
REMARK    2  A    between atoms: C_3  and  O_25
REMARK    3  A    between atoms: N_9  and  C_15
REMARK    4  A    between atoms: C_16  and  C_24
REMARK    5  A    between atoms: O_25  and  C_27
REMARK    6  A    between atoms: C_29  and  C_34
REMARK                            x       y       z     vdW  Elec       q    Type
REMARK                         _______ _______ _______ _____ _____    ______ ____
ROOT
ATOM      1  F   UNL     1      30.504   1.428  -6.809  0.00  0.00    +0.000 F 
ATOM      2  C   UNL     1      32.121   0.963  -5.146  0.00  0.00    +0.000 A 
ATOM      3  C   UNL     1      34.119   1.436  -7.043  0.00  0.00    +0.000 A 
ATOM      4  C   UNL     1      31.794   1.313  -6.459  0.00  0.00    +0.000 A 
ATOM      5  C   UNL     1      33.466   0.832  -4.801  0.00  0.00    +0.000 A 
ATOM      6  C   UNL     1      32.779   1.537  -7.415  0.00  0.00    +0.000 A 
ATOM      7  C   UNL     1      34.464   1.055  -5.748  0.00  0.00    +0.000 A 
ENDROOT
BRANCH   2  10
ATOM      8  O   UNL     1      31.510  -1.422  -3.605  0.00  0.00    +0.000 OA
ATOM      9  N   UNL     1      29.742  -0.259  -2.674  0.00  0.00    +0.000 N 
ATOM     10  N   UNL     1      31.071   0.758  -4.226  0.00  0.00    +0.000 N 
ATOM     11  C   UNL     1      30.838  -0.404  -3.510  0.00  0.00    +0.000 C 
ATOM     12  H   UNL     1      29.279   0.638  -2.654  0.00  0.00    +0.000 HD
ATOM     13  H   UNL     1      30.438   1.537  -4.105  0.00  0.00    +0.000 HD
BRANCH   9  15
ATOM     14 CL   UNL     1      27.500  -4.481   0.820  0.00  0.00    +0.000 Cl
ATOM     15  C   UNL     1      29.230  -1.252  -1.818  0.00  0.00    +0.000 A 
ATOM     16  C   UNL     1      27.656  -3.094  -1.534  0.00  0.00    +0.000 A 
ATOM     17  C   UNL     1      28.222  -2.080  -2.315  0.00  0.00    +0.000 A 
ATOM     18  C   UNL     1      29.681  -1.443  -0.516  0.00  0.00    +0.000 A 
ATOM     19  C   UNL     1      28.123  -3.267  -0.230  0.00  0.00    +0.000 A 
ATOM     20  C   UNL     1      29.130  -2.445   0.275  0.00  0.00    +0.000 A 
BRANCH  16  24
ATOM     21  F   UNL     1      25.406  -3.880  -1.435  0.00  0.00    +0.000 F 
ATOM     22  F   UNL     1      26.265  -3.592  -3.404  0.00  0.00    +0.000 F 
ATOM     23  F   UNL     1      26.904  -5.267  -2.161  0.00  0.00    +0.000 F 
ATOM     24  C   UNL     1      26.580  -3.946  -2.128  0.00  0.00    +0.000 C 
ENDBRANCH  16  24
ENDBRANCH   9  15
ENDBRANCH   2  10
BRANCH   3  25
ATOM     25  O   UNL     1      35.141   1.571  -7.952  0.00  0.00    +0.000 OA
BRANCH  25  27
ATOM     26  N   UNL     1      38.345   4.011  -6.860  0.00  0.00    +0.000 NA
ATOM     27  C   UNL     1      36.170   2.432  -7.641  0.00  0.00    +0.000 A 
ATOM     28  C   UNL     1      35.990   3.796  -7.436  0.00  0.00    +0.000 A 
ATOM     29  C   UNL     1      37.102   4.533  -7.061  0.00  0.00    +0.000 A 
ATOM     30  C   UNL     1      37.415   1.849  -7.426  0.00  0.00    +0.000 A 
ATOM     31  C   UNL     1      38.460   2.676  -7.047  0.00  0.00    +0.000 A 
BRANCH  29  34
ATOM     32  O   UNL     1      37.783   6.612  -6.182  0.00  0.00    +0.000 OA
ATOM     33  N   UNL     1      35.863   6.523  -7.514  0.00  0.00    +0.000 N 
ATOM     34  C   UNL     1      36.967   5.999  -6.864  0.00  0.00    +0.000 C 
ATOM     35  C   UNL     1      35.351   7.864  -7.593  0.00  0.00    +0.000 C 
ATOM     36  H   UNL     1      35.311   5.835  -8.024  0.00  0.00    +0.000 HD
ENDBRANCH  29  34
ENDBRANCH  25  27
ENDBRANCH   3  25
TORSDOF 6
ENDMDL
