MODEL 1
REMARK VINA RESULT:      -6.4      0.000      0.000
REMARK  Name = 114778_Kahweol.pdbqt.pdb
REMARK  3 active torsions:
REMARK  status: ('A' for Active; 'I' for Inactive)
REMARK    1  A    between atoms: C_8  and  O_21
REMARK    2  A    between atoms: C_8  and  C_23
REMARK    3  A    between atoms: C_23  and  O_24
REMARK                            x       y       z     vdW  Elec       q    Type
REMARK                         _______ _______ _______ _____ _____    ______ ____
ROOT
ATOM      1  O   UNL     1      55.430   8.032  12.813  0.00  0.00    +0.000 OA
ATOM      2  C   UNL     1      50.365   4.625  11.416  0.00  0.00    +0.000 C 
ATOM      3  C   UNL     1      51.470   5.222  10.440  0.00  0.00    +0.000 C 
ATOM      4  C   UNL     1      49.587   3.003   9.836  0.00  0.00    +0.000 C 
ATOM      5  C   UNL     1      49.213   4.229  10.562  0.00  0.00    +0.000 C 
ATOM      6  C   UNL     1      50.769   3.252  11.793  0.00  0.00    +0.000 C 
ATOM      7  C   UNL     1      52.040   6.633  10.624  0.00  0.00    +0.000 C 
ATOM      8  C   UNL     1      50.248   2.132  10.984  0.00  0.00    +0.000 C 
ATOM      9  C   UNL     1      50.153   5.539  12.508  0.00  0.00    +0.000 C 
ATOM     10  C   UNL     1      51.498   4.522   9.165  0.00  0.00    +0.000 C 
ATOM     11  C   UNL     1      50.511   3.410   8.787  0.00  0.00    +0.000 C 
ATOM     12  C   UNL     1      51.957   7.237  12.130  0.00  0.00    +0.000 C 
ATOM     13  C   UNL     1      50.878   6.781  12.920  0.00  0.00    +0.000 C 
ATOM     14  C   UNL     1      51.252   7.625   9.709  0.00  0.00    +0.000 C 
ATOM     15  C   UNL     1      53.490   6.622  10.284  0.00  0.00    +0.000 C 
ATOM     16  C   UNL     1      53.186   7.703  12.733  0.00  0.00    +0.000 A 
ATOM     17  C   UNL     1      54.499   6.994  10.813  0.00  0.00    +0.000 C 
ATOM     18  C   UNL     1      54.398   7.581  12.087  0.00  0.00    +0.000 A 
ATOM     19  C   UNL     1      53.495   8.284  13.979  0.00  0.00    +0.000 A 
ATOM     20  C   UNL     1      54.870   8.479  13.984  0.00  0.00    +0.000 A 
ENDROOT
BRANCH   8  21
ATOM     21  O   UNL     1      49.247   1.449  11.718  0.00  0.00    +0.000 OA
ATOM     22  H   UNL     1      49.093   0.614  11.245  0.00  0.00    +0.000 HD
ENDBRANCH   8  21
BRANCH   8  23
ATOM     23  C   UNL     1      51.254   1.173  10.510  0.00  0.00    +0.000 C 
BRANCH  23  24
ATOM     24  O   UNL     1      52.155   0.289  10.080  0.00  0.00    +0.000 OA
ATOM     25  H   UNL     1      51.830  -0.185   9.294  0.00  0.00    +0.000 HD
ENDBRANCH  23  24
ENDBRANCH   8  23
TORSDOF 3
ENDMDL
MODEL 2
REMARK VINA RESULT:      -5.8      2.901      4.803
REMARK  Name = 114778_Kahweol.pdbqt.pdb
REMARK  3 active torsions:
REMARK  status: ('A' for Active; 'I' for Inactive)
REMARK    1  A    between atoms: C_8  and  O_21
REMARK    2  A    between atoms: C_8  and  C_23
REMARK    3  A    between atoms: C_23  and  O_24
REMARK                            x       y       z     vdW  Elec       q    Type
REMARK                         _______ _______ _______ _____ _____    ______ ____
ROOT
ATOM      1  O   UNL     1      54.253   2.823  14.182  0.00  0.00    +0.000 OA
ATOM      2  C   UNL     1      50.792   5.395   9.641  0.00  0.00    +0.000 C 
ATOM      3  C   UNL     1      51.517   6.101  10.869  0.00  0.00    +0.000 C 
ATOM      4  C   UNL     1      50.588   7.412   8.369  0.00  0.00    +0.000 C 
ATOM      5  C   UNL     1      49.824   6.384   9.094  0.00  0.00    +0.000 C 
ATOM      6  C   UNL     1      51.713   5.411   8.484  0.00  0.00    +0.000 C 
ATOM      7  C   UNL     1      51.515   5.489  12.274  0.00  0.00    +0.000 C 
ATOM      8  C   UNL     1      51.607   6.534   7.530  0.00  0.00    +0.000 C 
ATOM      9  C   UNL     1      50.320   4.098  10.051  0.00  0.00    +0.000 C 
ATOM     10  C   UNL     1      51.723   7.520  10.628  0.00  0.00    +0.000 C 
ATOM     11  C   UNL     1      51.213   8.252   9.380  0.00  0.00    +0.000 C 
ATOM     12  C   UNL     1      51.310   3.878  12.343  0.00  0.00    +0.000 C 
ATOM     13  C   UNL     1      50.542   3.309  11.302  0.00  0.00    +0.000 C 
ATOM     14  C   UNL     1      50.348   6.117  13.103  0.00  0.00    +0.000 C 
ATOM     15  C   UNL     1      52.833   5.744  12.919  0.00  0.00    +0.000 C 
ATOM     16  C   UNL     1      52.304   3.106  13.052  0.00  0.00    +0.000 A 
ATOM     17  C   UNL     1      53.657   5.081  13.483  0.00  0.00    +0.000 C 
ATOM     18  C   UNL     1      53.425   3.698  13.596  0.00  0.00    +0.000 A 
ATOM     19  C   UNL     1      52.452   1.732  13.326  0.00  0.00    +0.000 A 
ATOM     20  C   UNL     1      53.645   1.602  14.025  0.00  0.00    +0.000 A 
ENDROOT
BRANCH   8  21
ATOM     21  O   UNL     1      50.994   6.079   6.337  0.00  0.00    +0.000 OA
ATOM     22  H   UNL     1      50.074   5.873   6.572  0.00  0.00    +0.000 HD
ENDBRANCH   8  21
BRANCH   8  23
ATOM     23  C   UNL     1      52.868   7.214   7.211  0.00  0.00    +0.000 C 
BRANCH  23  24
ATOM     24  O   UNL     1      54.022   7.824   6.936  0.00  0.00    +0.000 OA
ATOM     25  H   UNL     1      53.913   8.462   6.209  0.00  0.00    +0.000 HD
ENDBRANCH  23  24
ENDBRANCH   8  23
TORSDOF 3
ENDMDL
MODEL 3
REMARK VINA RESULT:      -5.6      2.641      6.577
REMARK  Name = 114778_Kahweol.pdbqt.pdb
REMARK  3 active torsions:
REMARK  status: ('A' for Active; 'I' for Inactive)
REMARK    1  A    between atoms: C_8  and  O_21
REMARK    2  A    between atoms: C_8  and  C_23
REMARK    3  A    between atoms: C_23  and  O_24
REMARK                            x       y       z     vdW  Elec       q    Type
REMARK                         _______ _______ _______ _____ _____    ______ ____
ROOT
ATOM      1  O   UNL     1      54.627  -1.207   9.252  0.00  0.00    +0.000 OA
ATOM      2  C   UNL     1      50.279   3.285   9.615  0.00  0.00    +0.000 C 
ATOM      3  C   UNL     1      51.199   2.687  10.767  0.00  0.00    +0.000 C 
ATOM      4  C   UNL     1      49.767   5.291  10.818  0.00  0.00    +0.000 C 
ATOM      5  C   UNL     1      49.191   4.042  10.291  0.00  0.00    +0.000 C 
ATOM      6  C   UNL     1      50.963   4.463   9.037  0.00  0.00    +0.000 C 
ATOM      7  C   UNL     1      51.486   1.186  10.881  0.00  0.00    +0.000 C 
ATOM      8  C   UNL     1      50.638   5.793   9.592  0.00  0.00    +0.000 C 
ATOM      9  C   UNL     1      49.939   2.238   8.688  0.00  0.00    +0.000 C 
ATOM     10  C   UNL     1      51.307   3.597  11.897  0.00  0.00    +0.000 C 
ATOM     11  C   UNL     1      50.543   4.924  11.993  0.00  0.00    +0.000 C 
ATOM     12  C   UNL     1      51.353   0.335   9.502  0.00  0.00    +0.000 C 
ATOM     13  C   UNL     1      50.422   0.828   8.560  0.00  0.00    +0.000 C 
ATOM     14  C   UNL     1      50.477   0.547  11.889  0.00  0.00    +0.000 C 
ATOM     15  C   UNL     1      52.893   0.990  11.328  0.00  0.00    +0.000 C 
ATOM     16  C   UNL     1      52.491  -0.456   9.091  0.00  0.00    +0.000 A 
ATOM     17  C   UNL     1      53.831   0.344  10.956  0.00  0.00    +0.000 C 
ATOM     18  C   UNL     1      53.673  -0.443   9.801  0.00  0.00    +0.000 A 
ATOM     19  C   UNL     1      52.735  -1.308   7.995  0.00  0.00    +0.000 A 
ATOM     20  C   UNL     1      54.043  -1.753   8.136  0.00  0.00    +0.000 A 
ENDROOT
BRANCH   8  21
ATOM     21  O   UNL     1      49.826   6.500   8.671  0.00  0.00    +0.000 OA
ATOM     22  H   UNL     1      50.428   7.079   8.176  0.00  0.00    +0.000 HD
ENDBRANCH   8  21
BRANCH   8  23
ATOM     23  C   UNL     1      51.791   6.619   9.970  0.00  0.00    +0.000 C 
BRANCH  23  24
ATOM     24  O   UNL     1      52.839   7.362  10.331  0.00  0.00    +0.000 OA
ATOM     25  H   UNL     1      52.640   8.311  10.238  0.00  0.00    +0.000 HD
ENDBRANCH  23  24
ENDBRANCH   8  23
TORSDOF 3
ENDMDL
MODEL 4
REMARK VINA RESULT:      -5.0     23.835     27.267
REMARK  Name = 114778_Kahweol.pdbqt.pdb
REMARK  3 active torsions:
REMARK  status: ('A' for Active; 'I' for Inactive)
REMARK    1  A    between atoms: C_8  and  O_21
REMARK    2  A    between atoms: C_8  and  C_23
REMARK    3  A    between atoms: C_23  and  O_24
REMARK                            x       y       z     vdW  Elec       q    Type
REMARK                         _______ _______ _______ _____ _____    ______ ____
ROOT
ATOM      1  O   UNL     1      26.616  -4.774   2.882  0.00  0.00    +0.000 OA
ATOM      2  C   UNL     1      26.722  -3.579   9.028  0.00  0.00    +0.000 C 
ATOM      3  C   UNL     1      27.322  -4.824   8.241  0.00  0.00    +0.000 C 
ATOM      4  C   UNL     1      28.075  -3.928  10.972  0.00  0.00    +0.000 C 
ATOM      5  C   UNL     1      26.692  -3.960  10.466  0.00  0.00    +0.000 C 
ATOM      6  C   UNL     1      27.780  -2.552   9.154  0.00  0.00    +0.000 C 
ATOM      7  C   UNL     1      26.565  -5.499   7.091  0.00  0.00    +0.000 C 
ATOM      8  C   UNL     1      28.610  -2.561  10.375  0.00  0.00    +0.000 C 
ATOM      9  C   UNL     1      25.506  -3.152   8.386  0.00  0.00    +0.000 C 
ATOM     10  C   UNL     1      28.352  -5.502   9.010  0.00  0.00    +0.000 C 
ATOM     11  C   UNL     1      28.736  -5.112  10.443  0.00  0.00    +0.000 C 
ATOM     12  C   UNL     1      25.477  -4.570   6.320  0.00  0.00    +0.000 C 
ATOM     13  C   UNL     1      24.867  -3.560   7.097  0.00  0.00    +0.000 C 
ATOM     14  C   UNL     1      25.776  -6.727   7.651  0.00  0.00    +0.000 C 
ATOM     15  C   UNL     1      27.538  -5.915   6.044  0.00  0.00    +0.000 C 
ATOM     16  C   UNL     1      25.602  -4.443   4.886  0.00  0.00    +0.000 A 
ATOM     17  C   UNL     1      27.635  -5.777   4.857  0.00  0.00    +0.000 C 
ATOM     18  C   UNL     1      26.643  -5.030   4.198  0.00  0.00    +0.000 A 
ATOM     19  C   UNL     1      24.860  -3.756   3.904  0.00  0.00    +0.000 A 
ATOM     20  C   UNL     1      25.504  -3.992   2.697  0.00  0.00    +0.000 A 
ENDROOT
BRANCH   8  21
ATOM     21  O   UNL     1      28.229  -1.480  11.208  0.00  0.00    +0.000 OA
ATOM     22  H   UNL     1      28.914  -1.420  11.896  0.00  0.00    +0.000 HD
ENDBRANCH   8  21
BRANCH   8  23
ATOM     23  C   UNL     1      30.062  -2.527  10.154  0.00  0.00    +0.000 C 
BRANCH  23  24
ATOM     24  O   UNL     1      31.381  -2.513   9.961  0.00  0.00    +0.000 OA
ATOM     25  H   UNL     1      31.763  -1.659  10.234  0.00  0.00    +0.000 HD
ENDBRANCH  23  24
ENDBRANCH   8  23
TORSDOF 3
ENDMDL
MODEL 5
REMARK VINA RESULT:      -5.0     11.369     12.947
REMARK  Name = 114778_Kahweol.pdbqt.pdb
REMARK  3 active torsions:
REMARK  status: ('A' for Active; 'I' for Inactive)
REMARK    1  A    between atoms: C_8  and  O_21
REMARK    2  A    between atoms: C_8  and  C_23
REMARK    3  A    between atoms: C_23  and  O_24
REMARK                            x       y       z     vdW  Elec       q    Type
REMARK                         _______ _______ _______ _____ _____    ______ ____
ROOT
ATOM      1  O   UNL     1      57.856  15.287   9.375  0.00  0.00    +0.000 OA
ATOM      2  C   UNL     1      52.846  18.583  11.181  0.00  0.00    +0.000 C 
ATOM      3  C   UNL     1      53.008  17.611   9.931  0.00  0.00    +0.000 C 
ATOM      4  C   UNL     1      50.454  18.496  11.167  0.00  0.00    +0.000 C 
ATOM      5  C   UNL     1      51.611  19.378  10.943  0.00  0.00    +0.000 C 
ATOM      6  C   UNL     1      52.318  17.797  12.317  0.00  0.00    +0.000 C 
ATOM      7  C   UNL     1      54.277  17.598   9.071  0.00  0.00    +0.000 C 
ATOM      8  C   UNL     1      50.855  17.765  12.516  0.00  0.00    +0.000 C 
ATOM      9  C   UNL     1      54.092  19.266  11.415  0.00  0.00    +0.000 C 
ATOM     10  C   UNL     1      51.721  17.144   9.442  0.00  0.00    +0.000 C 
ATOM     11  C   UNL     1      50.376  17.616  10.010  0.00  0.00    +0.000 C 
ATOM     12  C   UNL     1      55.631  18.121   9.802  0.00  0.00    +0.000 C 
ATOM     13  C   UNL     1      55.451  19.087  10.818  0.00  0.00    +0.000 C 
ATOM     14  C   UNL     1      54.063  18.525   7.830  0.00  0.00    +0.000 C 
ATOM     15  C   UNL     1      54.570  16.199   8.655  0.00  0.00    +0.000 C 
ATOM     16  C   UNL     1      56.776  17.239   9.798  0.00  0.00    +0.000 A 
ATOM     17  C   UNL     1      55.526  15.476   8.683  0.00  0.00    +0.000 C 
ATOM     18  C   UNL     1      56.711  15.973   9.255  0.00  0.00    +0.000 A 
ATOM     19  C   UNL     1      58.087  17.349  10.305  0.00  0.00    +0.000 A 
ATOM     20  C   UNL     1      58.715  16.144  10.017  0.00  0.00    +0.000 A 
ENDROOT
BRANCH   8  21
ATOM     21  O   UNL     1      50.516  18.573  13.629  0.00  0.00    +0.000 OA
ATOM     22  H   UNL     1      51.321  19.068  13.854  0.00  0.00    +0.000 HD
ENDBRANCH   8  21
BRANCH   8  23
ATOM     23  C   UNL     1      50.267  16.430  12.676  0.00  0.00    +0.000 C 
BRANCH  23  24
ATOM     24  O   UNL     1      49.745  15.213  12.834  0.00  0.00    +0.000 OA
ATOM     25  H   UNL     1      48.816  15.192  12.542  0.00  0.00    +0.000 HD
ENDBRANCH  23  24
ENDBRANCH   8  23
TORSDOF 3
ENDMDL
MODEL 6
REMARK VINA RESULT:      -4.6      2.328      6.680
REMARK  Name = 114778_Kahweol.pdbqt.pdb
REMARK  3 active torsions:
REMARK  status: ('A' for Active; 'I' for Inactive)
REMARK    1  A    between atoms: C_8  and  O_21
REMARK    2  A    between atoms: C_8  and  C_23
REMARK    3  A    between atoms: C_23  and  O_24
REMARK                            x       y       z     vdW  Elec       q    Type
REMARK                         _______ _______ _______ _____ _____    ______ ____
ROOT
ATOM      1  O   UNL     1      53.006  -1.073   7.485  0.00  0.00    +0.000 OA
ATOM      2  C   UNL     1      51.327   4.691   9.269  0.00  0.00    +0.000 C 
ATOM      3  C   UNL     1      51.003   3.295   9.960  0.00  0.00    +0.000 C 
ATOM      4  C   UNL     1      50.875   5.975  11.238  0.00  0.00    +0.000 C 
ATOM      5  C   UNL     1      50.403   5.688   9.874  0.00  0.00    +0.000 C 
ATOM      6  C   UNL     1      52.566   5.232   9.870  0.00  0.00    +0.000 C 
ATOM      7  C   UNL     1      50.617   2.055   9.146  0.00  0.00    +0.000 C 
ATOM      8  C   UNL     1      52.434   6.155  11.015  0.00  0.00    +0.000 C 
ATOM      9  C   UNL     1      51.344   4.520   7.840  0.00  0.00    +0.000 C 
ATOM     10  C   UNL     1      50.649   3.457  11.362  0.00  0.00    +0.000 C 
ATOM     11  C   UNL     1      50.515   4.821  12.050  0.00  0.00    +0.000 C 
ATOM     12  C   UNL     1      51.135   2.033   7.605  0.00  0.00    +0.000 C 
ATOM     13  C   UNL     1      51.280   3.295   6.984  0.00  0.00    +0.000 C 
ATOM     14  C   UNL     1      49.059   1.947   9.086  0.00  0.00    +0.000 C 
ATOM     15  C   UNL     1      51.218   0.849   9.779  0.00  0.00    +0.000 C 
ATOM     16  C   UNL     1      51.909   0.891   7.175  0.00  0.00    +0.000 A 
ATOM     17  C   UNL     1      51.880  -0.078   9.406  0.00  0.00    +0.000 C 
ATOM     18  C   UNL     1      52.257  -0.116   8.051  0.00  0.00    +0.000 A 
ATOM     19  C   UNL     1      52.500   0.525   5.949  0.00  0.00    +0.000 A 
ATOM     20  C   UNL     1      53.148  -0.682   6.177  0.00  0.00    +0.000 A 
ENDROOT
BRANCH   8  21
ATOM     21  O   UNL     1      52.718   7.475  10.588  0.00  0.00    +0.000 OA
ATOM     22  H   UNL     1      53.687   7.536  10.540  0.00  0.00    +0.000 HD
ENDBRANCH   8  21
BRANCH   8  23
ATOM     23  C   UNL     1      53.253   5.827  12.189  0.00  0.00    +0.000 C 
BRANCH  23  24
ATOM     24  O   UNL     1      54.007   5.520  13.245  0.00  0.00    +0.000 OA
ATOM     25  H   UNL     1      54.383   4.626  13.155  0.00  0.00    +0.000 HD
ENDBRANCH  23  24
ENDBRANCH   8  23
TORSDOF 3
ENDMDL
MODEL 7
REMARK VINA RESULT:      -4.5     22.060     23.764
REMARK  Name = 114778_Kahweol.pdbqt.pdb
REMARK  3 active torsions:
REMARK  status: ('A' for Active; 'I' for Inactive)
REMARK    1  A    between atoms: C_8  and  O_21
REMARK    2  A    between atoms: C_8  and  C_23
REMARK    3  A    between atoms: C_23  and  O_24
REMARK                            x       y       z     vdW  Elec       q    Type
REMARK                         _______ _______ _______ _____ _____    ______ ____
ROOT
ATOM      1  O   UNL     1      39.528  23.666  22.187  0.00  0.00    +0.000 OA
ATOM      2  C   UNL     1      34.838  19.655  21.123  0.00  0.00    +0.000 C 
ATOM      3  C   UNL     1      36.008  20.109  20.145  0.00  0.00    +0.000 C 
ATOM      4  C   UNL     1      34.325  17.673  19.882  0.00  0.00    +0.000 C 
ATOM      5  C   UNL     1      33.808  18.995  20.275  0.00  0.00    +0.000 C 
ATOM      6  C   UNL     1      35.272  18.433  21.835  0.00  0.00    +0.000 C 
ATOM      7  C   UNL     1      36.476  21.566  20.060  0.00  0.00    +0.000 C 
ATOM      8  C   UNL     1      34.904  17.126  21.252  0.00  0.00    +0.000 C 
ATOM      9  C   UNL     1      34.459  20.766  21.957  0.00  0.00    +0.000 C 
ATOM     10  C   UNL     1      36.211  19.152  19.069  0.00  0.00    +0.000 C 
ATOM     11  C   UNL     1      35.333  17.912  18.859  0.00  0.00    +0.000 C 
ATOM     12  C   UNL     1      36.198  22.475  21.378  0.00  0.00    +0.000 C 
ATOM     13  C   UNL     1      35.066  22.119  22.146  0.00  0.00    +0.000 C 
ATOM     14  C   UNL     1      35.739  22.272  18.876  0.00  0.00    +0.000 C 
ATOM     15  C   UNL     1      37.953  21.593  19.869  0.00  0.00    +0.000 C 
ATOM     16  C   UNL     1      37.327  23.154  21.973  0.00  0.00    +0.000 A 
ATOM     17  C   UNL     1      38.877  22.148  20.393  0.00  0.00    +0.000 C 
ATOM     18  C   UNL     1      38.606  22.989  21.488  0.00  0.00    +0.000 A 
ATOM     19  C   UNL     1      37.467  24.015  23.081  0.00  0.00    +0.000 A 
ATOM     20  C   UNL     1      38.821  24.312  23.170  0.00  0.00    +0.000 A 
ENDROOT
BRANCH   8  21
ATOM     21  O   UNL     1      33.868  16.544  22.024  0.00  0.00    +0.000 OA
ATOM     22  H   UNL     1      34.241  15.729  22.398  0.00  0.00    +0.000 HD
ENDBRANCH   8  21
BRANCH   8  23
ATOM     23  C   UNL     1      36.007  16.168  21.101  0.00  0.00    +0.000 C 
BRANCH  23  24
ATOM     24  O   UNL     1      37.004  15.296  20.946  0.00  0.00    +0.000 OA
ATOM     25  H   UNL     1      37.331  15.302  20.030  0.00  0.00    +0.000 HD
ENDBRANCH  23  24
ENDBRANCH   8  23
TORSDOF 3
ENDMDL
MODEL 8
REMARK VINA RESULT:      -4.5     22.535     24.845
REMARK  Name = 114778_Kahweol.pdbqt.pdb
REMARK  3 active torsions:
REMARK  status: ('A' for Active; 'I' for Inactive)
REMARK    1  A    between atoms: C_8  and  O_21
REMARK    2  A    between atoms: C_8  and  C_23
REMARK    3  A    between atoms: C_23  and  O_24
REMARK                            x       y       z     vdW  Elec       q    Type
REMARK                         _______ _______ _______ _____ _____    ______ ____
ROOT
ATOM      1  O   UNL     1      46.257   1.645 -15.045  0.00  0.00    +0.000 OA
ATOM      2  C   UNL     1      42.873  -0.537 -10.248  0.00  0.00    +0.000 C 
ATOM      3  C   UNL     1      43.823   0.738 -10.305  0.00  0.00    +0.000 C 
ATOM      4  C   UNL     1      41.678   0.216  -8.316  0.00  0.00    +0.000 C 
ATOM      5  C   UNL     1      42.613  -0.809  -8.808  0.00  0.00    +0.000 C 
ATOM      6  C   UNL     1      41.498  -0.109 -10.585  0.00  0.00    +0.000 C 
ATOM      7  C   UNL     1      45.179   0.710 -11.019  0.00  0.00    +0.000 C 
ATOM      8  C   UNL     1      40.596   0.256  -9.474  0.00  0.00    +0.000 C 
ATOM      9  C   UNL     1      43.427  -1.578 -11.074  0.00  0.00    +0.000 C 
ATOM     10  C   UNL     1      43.506   1.693  -9.255  0.00  0.00    +0.000 C 
ATOM     11  C   UNL     1      42.447   1.443  -8.173  0.00  0.00    +0.000 C 
ATOM     12  C   UNL     1      45.336  -0.401 -12.195  0.00  0.00    +0.000 C 
ATOM     13  C   UNL     1      44.574  -1.581 -12.034  0.00  0.00    +0.000 C 
ATOM     14  C   UNL     1      46.301   0.404  -9.973  0.00  0.00    +0.000 C 
ATOM     15  C   UNL     1      45.407   2.022 -11.686  0.00  0.00    +0.000 C 
ATOM     16  C   UNL     1      45.739   0.061 -13.503  0.00  0.00    +0.000 A 
ATOM     17  C   UNL     1      45.719   2.384 -12.785  0.00  0.00    +0.000 C 
ATOM     18  C   UNL     1      45.921   1.401 -13.770  0.00  0.00    +0.000 A 
ATOM     19  C   UNL     1      45.984  -0.590 -14.729  0.00  0.00    +0.000 A 
ATOM     20  C   UNL     1      46.307   0.408 -15.639  0.00  0.00    +0.000 A 
ENDROOT
BRANCH   8  21
ATOM     21  O   UNL     1      39.641  -0.775  -9.287  0.00  0.00    +0.000 OA
ATOM     22  H   UNL     1      40.152  -1.583  -9.116  0.00  0.00    +0.000 HD
ENDBRANCH   8  21
BRANCH   8  23
ATOM     23  C   UNL     1      39.910   1.546  -9.613  0.00  0.00    +0.000 C 
BRANCH  23  24
ATOM     24  O   UNL     1      39.302   2.726  -9.749  0.00  0.00    +0.000 OA
ATOM     25  H   UNL     1      38.347   2.647  -9.573  0.00  0.00    +0.000 HD
ENDBRANCH  23  24
ENDBRANCH   8  23
TORSDOF 3
ENDMDL
MODEL 9
REMARK VINA RESULT:      -4.4     25.039     27.912
REMARK  Name = 114778_Kahweol.pdbqt.pdb
REMARK  3 active torsions:
REMARK  status: ('A' for Active; 'I' for Inactive)
REMARK    1  A    between atoms: C_8  and  O_21
REMARK    2  A    between atoms: C_8  and  C_23
REMARK    3  A    between atoms: C_23  and  O_24
REMARK                            x       y       z     vdW  Elec       q    Type
REMARK                         _______ _______ _______ _____ _____    ______ ____
ROOT
ATOM      1  O   UNL     1      20.662   1.894  14.529  0.00  0.00    +0.000 OA
ATOM      2  C   UNL     1      26.574   0.859  16.319  0.00  0.00    +0.000 C 
ATOM      3  C   UNL     1      25.420  -0.195  16.018  0.00  0.00    +0.000 C 
ATOM      4  C   UNL     1      28.341  -0.738  16.080  0.00  0.00    +0.000 C 
ATOM      5  C   UNL     1      27.641   0.122  17.049  0.00  0.00    +0.000 C 
ATOM      6  C   UNL     1      27.345   1.074  15.075  0.00  0.00    +0.000 C 
ATOM      7  C   UNL     1      23.975   0.030  16.477  0.00  0.00    +0.000 C 
ATOM      8  C   UNL     1      28.550   0.248  14.857  0.00  0.00    +0.000 C 
ATOM      9  C   UNL     1      25.997   2.037  16.913  0.00  0.00    +0.000 C 
ATOM     10  C   UNL     1      25.958  -1.514  15.728  0.00  0.00    +0.000 C 
ATOM     11  C   UNL     1      27.452  -1.856  15.803  0.00  0.00    +0.000 C 
ATOM     12  C   UNL     1      23.541   1.578  16.714  0.00  0.00    +0.000 C 
ATOM     13  C   UNL     1      24.575   2.455  17.113  0.00  0.00    +0.000 C 
ATOM     14  C   UNL     1      23.753  -0.701  17.841  0.00  0.00    +0.000 C 
ATOM     15  C   UNL     1      23.046  -0.483  15.433  0.00  0.00    +0.000 C 
ATOM     16  C   UNL     1      22.376   2.062  16.008  0.00  0.00    +0.000 A 
ATOM     17  C   UNL     1      22.095  -0.053  14.842  0.00  0.00    +0.000 C 
ATOM     18  C   UNL     1      21.692   1.266  15.114  0.00  0.00    +0.000 A 
ATOM     19  C   UNL     1      21.709   3.303  15.973  0.00  0.00    +0.000 A 
ATOM     20  C   UNL     1      20.666   3.156  15.069  0.00  0.00    +0.000 A 
ENDROOT
BRANCH   8  21
ATOM     21  O   UNL     1      29.705   1.043  15.060  0.00  0.00    +0.000 OA
ATOM     22  H   UNL     1      29.686   1.305  15.995  0.00  0.00    +0.000 HD
ENDBRANCH   8  21
BRANCH   8  23
ATOM     23  C   UNL     1      28.631  -0.419  13.551  0.00  0.00    +0.000 C 
BRANCH  23  24
ATOM     24  O   UNL     1      28.712  -1.010  12.359  0.00  0.00    +0.000 OA
ATOM     25  H   UNL     1      28.381  -0.422  11.656  0.00  0.00    +0.000 HD
ENDBRANCH  23  24
ENDBRANCH   8  23
TORSDOF 3
ENDMDL
