MODEL 1
REMARK VINA RESULT:      -4.3      0.000      0.000
REMARK  Name = 1174_Uracil.pdbqt.pdb
REMARK  0 active torsions:
REMARK  status: ('A' for Active; 'I' for Inactive)
REMARK                            x       y       z     vdW  Elec       q    Type
REMARK                         _______ _______ _______ _____ _____    ______ ____
ROOT
ATOM      1  O   UNL     1      39.499  20.211  19.249  0.00  0.00    +0.000 OA
ATOM      2  O   UNL     1      35.449  17.980  18.946  0.00  0.00    +0.000 OA
ATOM      3  N   UNL     1      37.447  19.160  19.091  0.00  0.00    +0.000 N 
ATOM      4  N   UNL     1      39.409  17.905  19.351  0.00  0.00    +0.000 N 
ATOM      5  C   UNL     1      38.842  19.178  19.232  0.00  0.00    +0.000 A 
ATOM      6  C   UNL     1      36.665  18.007  19.067  0.00  0.00    +0.000 A 
ATOM      7  C   UNL     1      38.640  16.803  19.326  0.00  0.00    +0.000 A 
ATOM      8  C   UNL     1      37.454  16.811  19.205  0.00  0.00    +0.000 A 
ATOM      9  H   UNL     1      36.977  20.046  19.000  0.00  0.00    +0.000 HD
ATOM     10  H   UNL     1      40.413  17.833  19.456  0.00  0.00    +0.000 HD
ENDROOT
TORSDOF 0
ENDMDL
MODEL 2
REMARK VINA RESULT:      -3.8     14.992     15.743
REMARK  Name = 1174_Uracil.pdbqt.pdb
REMARK  0 active torsions:
REMARK  status: ('A' for Active; 'I' for Inactive)
REMARK                            x       y       z     vdW  Elec       q    Type
REMARK                         _______ _______ _______ _____ _____    ______ ____
ROOT
ATOM      1  O   UNL     1      52.242  17.003   9.110  0.00  0.00    +0.000 OA
ATOM      2  O   UNL     1      48.145  18.130   7.261  0.00  0.00    +0.000 OA
ATOM      3  N   UNL     1      50.231  17.585   8.129  0.00  0.00    +0.000 N 
ATOM      4  N   UNL     1      50.284  16.702  10.299  0.00  0.00    +0.000 N 
ATOM      5  C   UNL     1      51.022  17.089   9.176  0.00  0.00    +0.000 A 
ATOM      6  C   UNL     1      48.843  17.698   8.166  0.00  0.00    +0.000 A 
ATOM      7  C   UNL     1      48.945  16.817  10.318  0.00  0.00    +0.000 A 
ATOM      8  C   UNL     1      48.293  17.243   9.416  0.00  0.00    +0.000 A 
ATOM      9  H   UNL     1      50.703  17.882   7.290  0.00  0.00    +0.000 HD
ATOM     10  H   UNL     1      50.783  16.332  11.099  0.00  0.00    +0.000 HD
ENDROOT
TORSDOF 0
ENDMDL
MODEL 3
REMARK VINA RESULT:      -3.7     22.978     23.660
REMARK  Name = 1174_Uracil.pdbqt.pdb
REMARK  0 active torsions:
REMARK  status: ('A' for Active; 'I' for Inactive)
REMARK                            x       y       z     vdW  Elec       q    Type
REMARK                         _______ _______ _______ _____ _____    ______ ____
ROOT
ATOM      1  O   UNL     1      28.478  -1.449  12.550  0.00  0.00    +0.000 OA
ATOM      2  O   UNL     1      31.257  -3.717   9.616  0.00  0.00    +0.000 OA
ATOM      3  N   UNL     1      29.874  -2.629  11.136  0.00  0.00    +0.000 N 
ATOM      4  N   UNL     1      28.865  -0.638  10.421  0.00  0.00    +0.000 N 
ATOM      5  C   UNL     1      29.025  -1.561  11.460  0.00  0.00    +0.000 A 
ATOM      6  C   UNL     1      30.515  -2.792   9.909  0.00  0.00    +0.000 A 
ATOM      7  C   UNL     1      29.490  -0.810   9.244  0.00  0.00    +0.000 A 
ATOM      8  C   UNL     1      30.208  -1.727   8.990  0.00  0.00    +0.000 A 
ATOM      9  H   UNL     1      30.031  -3.330  11.842  0.00  0.00    +0.000 HD
ATOM     10  H   UNL     1      28.267   0.163  10.577  0.00  0.00    +0.000 HD
ENDROOT
TORSDOF 0
ENDMDL
MODEL 4
REMARK VINA RESULT:      -3.7     29.427     29.585
REMARK  Name = 1174_Uracil.pdbqt.pdb
REMARK  0 active torsions:
REMARK  status: ('A' for Active; 'I' for Inactive)
REMARK                            x       y       z     vdW  Elec       q    Type
REMARK                         _______ _______ _______ _____ _____    ______ ____
ROOT
ATOM      1  O   UNL     1      33.897  -3.227  -1.257  0.00  0.00    +0.000 OA
ATOM      2  O   UNL     1      29.831  -1.075  -1.811  0.00  0.00    +0.000 OA
ATOM      3  N   UNL     1      31.838  -2.205  -1.496  0.00  0.00    +0.000 N 
ATOM      4  N   UNL     1      33.759  -1.243  -2.432  0.00  0.00    +0.000 N 
ATOM      5  C   UNL     1      33.224  -2.302  -1.692  0.00  0.00    +0.000 A 
ATOM      6  C   UNL     1      31.038  -1.169  -1.975  0.00  0.00    +0.000 A 
ATOM      7  C   UNL     1      32.974  -0.252  -2.887  0.00  0.00    +0.000 A 
ATOM      8  C   UNL     1      31.797  -0.190  -2.708  0.00  0.00    +0.000 A 
ATOM      9  H   UNL     1      31.390  -2.938  -0.971  0.00  0.00    +0.000 HD
ATOM     10  H   UNL     1      34.755  -1.240  -2.617  0.00  0.00    +0.000 HD
ENDROOT
TORSDOF 0
ENDMDL
MODEL 5
REMARK VINA RESULT:      -3.6     20.165     20.959
REMARK  Name = 1174_Uracil.pdbqt.pdb
REMARK  0 active torsions:
REMARK  status: ('A' for Active; 'I' for Inactive)
REMARK                            x       y       z     vdW  Elec       q    Type
REMARK                         _______ _______ _______ _____ _____    ______ ____
ROOT
ATOM      1  O   UNL     1      52.183   8.463   4.706  0.00  0.00    +0.000 OA
ATOM      2  O   UNL     1      50.658   9.288   9.004  0.00  0.00    +0.000 OA
ATOM      3  N   UNL     1      51.424   8.943   6.836  0.00  0.00    +0.000 N 
ATOM      4  N   UNL     1      51.727   6.721   6.155  0.00  0.00    +0.000 N 
ATOM      5  C   UNL     1      51.810   8.073   5.805  0.00  0.00    +0.000 A 
ATOM      6  C   UNL     1      50.995   8.539   8.099  0.00  0.00    +0.000 A 
ATOM      7  C   UNL     1      51.311   6.349   7.377  0.00  0.00    +0.000 A 
ATOM      8  C   UNL     1      50.988   7.106   8.238  0.00  0.00    +0.000 A 
ATOM      9  H   UNL     1      51.461   9.932   6.648  0.00  0.00    +0.000 HD
ATOM     10  H   UNL     1      51.988   6.029   5.464  0.00  0.00    +0.000 HD
ENDROOT
TORSDOF 0
ENDMDL
MODEL 6
REMARK VINA RESULT:      -3.3     18.669     19.529
REMARK  Name = 1174_Uracil.pdbqt.pdb
REMARK  0 active torsions:
REMARK  status: ('A' for Active; 'I' for Inactive)
REMARK                            x       y       z     vdW  Elec       q    Type
REMARK                         _______ _______ _______ _____ _____    ______ ____
ROOT
ATOM      1  O   UNL     1      39.456  -1.450  16.935  0.00  0.00    +0.000 OA
ATOM      2  O   UNL     1      39.978   1.710  13.586  0.00  0.00    +0.000 OA
ATOM      3  N   UNL     1      39.742   0.171  15.312  0.00  0.00    +0.000 N 
ATOM      4  N   UNL     1      38.888  -1.937  14.749  0.00  0.00    +0.000 N 
ATOM      5  C   UNL     1      39.369  -1.103  15.764  0.00  0.00    +0.000 A 
ATOM      6  C   UNL     1      39.657   0.603  13.990  0.00  0.00    +0.000 A 
ATOM      7  C   UNL     1      38.813  -1.506  13.479  0.00  0.00    +0.000 A 
ATOM      8  C   UNL     1      39.136  -0.417  13.117  0.00  0.00    +0.000 A 
ATOM      9  H   UNL     1      40.097   0.821  15.995  0.00  0.00    +0.000 HD
ATOM     10  H   UNL     1      38.598  -2.876  14.994  0.00  0.00    +0.000 HD
ENDROOT
TORSDOF 0
ENDMDL
MODEL 7
REMARK VINA RESULT:      -3.2      9.883     10.780
REMARK  Name = 1174_Uracil.pdbqt.pdb
REMARK  0 active torsions:
REMARK  status: ('A' for Active; 'I' for Inactive)
REMARK                            x       y       z     vdW  Elec       q    Type
REMARK                         _______ _______ _______ _____ _____    ______ ____
ROOT
ATOM      1  O   UNL     1      42.152  21.662   9.036  0.00  0.00    +0.000 OA
ATOM      2  O   UNL     1      44.031  24.571  12.114  0.00  0.00    +0.000 OA
ATOM      3  N   UNL     1      43.145  23.120  10.529  0.00  0.00    +0.000 N 
ATOM      4  N   UNL     1      41.035  22.207  10.983  0.00  0.00    +0.000 N 
ATOM      5  C   UNL     1      42.112  22.277  10.094  0.00  0.00    +0.000 A 
ATOM      6  C   UNL     1      43.137  23.835  11.725  0.00  0.00    +0.000 A 
ATOM      7  C   UNL     1      41.043  22.903  12.132  0.00  0.00    +0.000 A 
ATOM      8  C   UNL     1      41.933  23.615  12.482  0.00  0.00    +0.000 A 
ATOM      9  H   UNL     1      43.952  23.214   9.933  0.00  0.00    +0.000 HD
ATOM     10  H   UNL     1      40.248  21.618  10.740  0.00  0.00    +0.000 HD
ENDROOT
TORSDOF 0
ENDMDL
MODEL 8
REMARK VINA RESULT:      -3.2     26.268     26.572
REMARK  Name = 1174_Uracil.pdbqt.pdb
REMARK  0 active torsions:
REMARK  status: ('A' for Active; 'I' for Inactive)
REMARK                            x       y       z     vdW  Elec       q    Type
REMARK                         _______ _______ _______ _____ _____    ______ ____
ROOT
ATOM      1  O   UNL     1      46.230  15.002  -5.522  0.00  0.00    +0.000 OA
ATOM      2  O   UNL     1      47.376  10.984  -3.518  0.00  0.00    +0.000 OA
ATOM      3  N   UNL     1      46.831  13.034  -4.470  0.00  0.00    +0.000 N 
ATOM      4  N   UNL     1      45.669  12.987  -6.504  0.00  0.00    +0.000 N 
ATOM      5  C   UNL     1      46.241  13.778  -5.503  0.00  0.00    +0.000 A 
ATOM      6  C   UNL     1      46.864  11.642  -4.411  0.00  0.00    +0.000 A 
ATOM      7  C   UNL     1      45.710  11.646  -6.433  0.00  0.00    +0.000 A 
ATOM      8  C   UNL     1      46.217  11.034  -5.544  0.00  0.00    +0.000 A 
ATOM      9  H   UNL     1      47.261  13.545  -3.716  0.00  0.00    +0.000 HD
ATOM     10  H   UNL     1      45.222  13.450  -7.286  0.00  0.00    +0.000 HD
ENDROOT
TORSDOF 0
ENDMDL
MODEL 9
REMARK VINA RESULT:      -3.2     36.822     37.401
REMARK  Name = 1174_Uracil.pdbqt.pdb
REMARK  0 active torsions:
REMARK  status: ('A' for Active; 'I' for Inactive)
REMARK                            x       y       z     vdW  Elec       q    Type
REMARK                         _______ _______ _______ _____ _____    ______ ____
ROOT
ATOM      1  O   UNL     1      40.022  -8.059  -7.671  0.00  0.00    +0.000 OA
ATOM      2  O   UNL     1      39.878  -5.162 -11.285  0.00  0.00    +0.000 OA
ATOM      3  N   UNL     1      39.998  -6.654  -9.506  0.00  0.00    +0.000 N 
ATOM      4  N   UNL     1      38.617  -6.225  -7.662  0.00  0.00    +0.000 N 
ATOM      5  C   UNL     1      39.582  -7.063  -8.231  0.00  0.00    +0.000 A 
ATOM      6  C   UNL     1      39.522  -5.528 -10.176  0.00  0.00    +0.000 A 
ATOM      7  C   UNL     1      38.168  -5.144  -8.321  0.00  0.00    +0.000 A 
ATOM      8  C   UNL     1      38.537  -4.815  -9.406  0.00  0.00    +0.000 A 
ATOM      9  H   UNL     1      40.693  -7.216  -9.971  0.00  0.00    +0.000 HD
ATOM     10  H   UNL     1      38.264  -6.453  -6.741  0.00  0.00    +0.000 HD
ENDROOT
TORSDOF 0
ENDMDL
