MODEL 1
REMARK VINA RESULT:      -6.3      0.000      0.000
REMARK  Name = 122178712_SalternamideA.pdbqt.pdb
REMARK  8 active torsions:
REMARK  status: ('A' for Active; 'I' for Inactive)
REMARK    1  A    between atoms: C_3  and  O_24
REMARK    2  A    between atoms: C_3  and  C_26
REMARK    3  A    between atoms: C_6  and  N_10
REMARK    4  A    between atoms: C_11  and  C_14
REMARK    5  A    between atoms: C_13  and  C_15
REMARK    6  A    between atoms: C_27  and  C_28
REMARK    7  A    between atoms: C_29  and  C_31
REMARK    8  A    between atoms: C_31  and  O_32
REMARK                            x       y       z     vdW  Elec       q    Type
REMARK                         _______ _______ _______ _____ _____    ______ ____
ROOT
ATOM      1 CL   UNL     1      33.990  18.290  23.407  0.00  0.00    +0.000 Cl
ATOM      2  O   UNL     1      32.275  18.443  20.766  0.00  0.00    +0.000 OA
ATOM      3  C   UNL     1      35.581  15.680  20.718  0.00  0.00    +0.000 C 
ATOM      4  C   UNL     1      34.548  15.980  19.713  0.00  0.00    +0.000 C 
ATOM      5  C   UNL     1      35.141  16.618  21.764  0.00  0.00    +0.000 C 
ATOM      6  C   UNL     1      33.521  16.768  19.570  0.00  0.00    +0.000 C 
ATOM      7  C   UNL     1      34.202  17.505  21.922  0.00  0.00    +0.000 C 
ATOM      8  C   UNL     1      33.228  17.673  20.772  0.00  0.00    +0.000 C 
ENDROOT
BRANCH   6  10
ATOM      9  O   UNL     1      30.851  15.638  19.190  0.00  0.00    +0.000 OA
ATOM     10  N   UNL     1      32.702  16.842  18.474  0.00  0.00    +0.000 N 
ATOM     11  C   UNL     1      31.451  16.291  18.349  0.00  0.00    +0.000 C 
ATOM     12  H   UNL     1      33.081  17.361  17.685  0.00  0.00    +0.000 HD
BRANCH  11  14
ATOM     13  C   UNL     1      30.276  16.745  16.022  0.00  0.00    +0.000 C 
ATOM     14  C   UNL     1      30.809  16.531  17.077  0.00  0.00    +0.000 C 
BRANCH  13  15
ATOM     15  C   UNL     1      29.651  17.003  14.778  0.00  0.00    +0.000 C 
ATOM     16  C   UNL     1      28.377  16.273  14.460  0.00  0.00    +0.000 C 
ATOM     17  C   UNL     1      30.163  17.861  13.784  0.00  0.00    +0.000 C 
ATOM     18  C   UNL     1      30.662  18.718  12.783  0.00  0.00    +0.000 C 
ATOM     19  C   UNL     1      31.686  19.737  13.189  0.00  0.00    +0.000 C 
ATOM     20  C   UNL     1      30.287  18.669  11.430  0.00  0.00    +0.000 C 
ATOM     21  C   UNL     1      29.949  18.622  10.187  0.00  0.00    +0.000 C 
ATOM     22  C   UNL     1      28.761  19.403   9.717  0.00  0.00    +0.000 C 
ATOM     23  C   UNL     1      30.519  17.545   9.316  0.00  0.00    +0.000 C 
ENDBRANCH  13  15
ENDBRANCH  11  14
ENDBRANCH   6  10
BRANCH   3  24
ATOM     24  O   UNL     1      36.842  16.087  20.229  0.00  0.00    +0.000 OA
ATOM     25  H   UNL     1      37.290  16.521  20.976  0.00  0.00    +0.000 HD
ENDBRANCH   3  24
BRANCH   3  26
ATOM     26  C   UNL     1      35.622  14.286  21.142  0.00  0.00    +0.000 C 
ATOM     27  C   UNL     1      35.661  12.820  21.584  0.00  0.00    +0.000 C 
BRANCH  27  28
ATOM     28  C   UNL     1      35.696  11.354  22.024  0.00  0.00    +0.000 C 
ATOM     29  C   UNL     1      35.730   9.886  22.461  0.00  0.00    +0.000 C 
BRANCH  29  31
ATOM     30  O   UNL     1      35.532   8.146  24.007  0.00  0.00    +0.000 OA
ATOM     31  C   UNL     1      35.763   8.515  22.869  0.00  0.00    +0.000 C 
BRANCH  31  32
ATOM     32  O   UNL     1      36.075   7.658  21.881  0.00  0.00    +0.000 OA
ATOM     33  H   UNL     1      36.972   7.939  21.605  0.00  0.00    +0.000 HD
ENDBRANCH  31  32
ENDBRANCH  29  31
ENDBRANCH  27  28
ENDBRANCH   3  26
TORSDOF 8
ENDMDL
MODEL 2
REMARK VINA RESULT:      -5.5     23.363     28.723
REMARK  Name = 122178712_SalternamideA.pdbqt.pdb
REMARK  8 active torsions:
REMARK  status: ('A' for Active; 'I' for Inactive)
REMARK    1  A    between atoms: C_3  and  O_24
REMARK    2  A    between atoms: C_3  and  C_26
REMARK    3  A    between atoms: C_6  and  N_10
REMARK    4  A    between atoms: C_11  and  C_14
REMARK    5  A    between atoms: C_13  and  C_15
REMARK    6  A    between atoms: C_27  and  C_28
REMARK    7  A    between atoms: C_29  and  C_31
REMARK    8  A    between atoms: C_31  and  O_32
REMARK                            x       y       z     vdW  Elec       q    Type
REMARK                         _______ _______ _______ _____ _____    ______ ____
ROOT
ATOM      1 CL   UNL     1      47.072 -12.113   8.665  0.00  0.00    +0.000 Cl
ATOM      2  O   UNL     1      45.551 -10.263  10.716  0.00  0.00    +0.000 OA
ATOM      3  C   UNL     1      49.539  -9.029   9.653  0.00  0.00    +0.000 C 
ATOM      4  C   UNL     1      48.525  -8.405  10.519  0.00  0.00    +0.000 C 
ATOM      5  C   UNL     1      48.773 -10.219   9.249  0.00  0.00    +0.000 C 
ATOM      6  C   UNL     1      47.316  -8.644  10.939  0.00  0.00    +0.000 C 
ATOM      7  C   UNL     1      47.600 -10.729   9.488  0.00  0.00    +0.000 C 
ATOM      8  C   UNL     1      46.691  -9.939  10.407  0.00  0.00    +0.000 C 
ENDROOT
BRANCH   6  10
ATOM      9  O   UNL     1      46.751  -9.020  13.783  0.00  0.00    +0.000 OA
ATOM     10  N   UNL     1      46.579  -7.854  11.783  0.00  0.00    +0.000 N 
ATOM     11  C   UNL     1      46.346  -8.078  13.117  0.00  0.00    +0.000 C 
ATOM     12  H   UNL     1      46.173  -7.025  11.354  0.00  0.00    +0.000 HD
BRANCH  11  14
ATOM     13  C   UNL     1      44.849  -6.242  14.295  0.00  0.00    +0.000 C 
ATOM     14  C   UNL     1      45.534  -7.074  13.765  0.00  0.00    +0.000 C 
BRANCH  13  15
ATOM     15  C   UNL     1      44.034  -5.267  14.920  0.00  0.00    +0.000 C 
ATOM     16  C   UNL     1      44.242  -5.003  16.384  0.00  0.00    +0.000 C 
ATOM     17  C   UNL     1      43.000  -4.554  14.280  0.00  0.00    +0.000 C 
ATOM     18  C   UNL     1      41.965  -3.832  13.653  0.00  0.00    +0.000 C 
ATOM     19  C   UNL     1      41.974  -3.769  12.154  0.00  0.00    +0.000 C 
ATOM     20  C   UNL     1      40.916  -3.188  14.330  0.00  0.00    +0.000 C 
ATOM     21  C   UNL     1      39.949  -2.603  14.950  0.00  0.00    +0.000 C 
ATOM     22  C   UNL     1      40.122  -1.191  15.417  0.00  0.00    +0.000 C 
ATOM     23  C   UNL     1      38.821  -3.428  15.488  0.00  0.00    +0.000 C 
ENDBRANCH  13  15
ENDBRANCH  11  14
ENDBRANCH   6  10
BRANCH   3  24
ATOM     24  O   UNL     1      50.642  -9.430  10.439  0.00  0.00    +0.000 OA
ATOM     25  H   UNL     1      51.304  -8.723  10.351  0.00  0.00    +0.000 HD
ENDBRANCH   3  24
BRANCH   3  26
ATOM     26  C   UNL     1      49.980  -8.194   8.543  0.00  0.00    +0.000 C 
ATOM     27  C   UNL     1      50.442  -7.312   7.379  0.00  0.00    +0.000 C 
BRANCH  27  28
ATOM     28  C   UNL     1      50.902  -6.426   6.217  0.00  0.00    +0.000 C 
ATOM     29  C   UNL     1      51.364  -5.539   5.058  0.00  0.00    +0.000 C 
BRANCH  29  31
ATOM     30  O   UNL     1      52.664  -3.861   4.081  0.00  0.00    +0.000 OA
ATOM     31  C   UNL     1      51.796  -4.710   3.974  0.00  0.00    +0.000 C 
BRANCH  31  32
ATOM     32  O   UNL     1      51.157  -4.948   2.815  0.00  0.00    +0.000 OA
ATOM     33  H   UNL     1      50.309  -5.350   3.097  0.00  0.00    +0.000 HD
ENDBRANCH  31  32
ENDBRANCH  29  31
ENDBRANCH  27  28
ENDBRANCH   3  26
TORSDOF 8
ENDMDL
MODEL 3
REMARK VINA RESULT:      -5.5      6.942     15.300
REMARK  Name = 122178712_SalternamideA.pdbqt.pdb
REMARK  8 active torsions:
REMARK  status: ('A' for Active; 'I' for Inactive)
REMARK    1  A    between atoms: C_3  and  O_24
REMARK    2  A    between atoms: C_3  and  C_26
REMARK    3  A    between atoms: C_6  and  N_10
REMARK    4  A    between atoms: C_11  and  C_14
REMARK    5  A    between atoms: C_13  and  C_15
REMARK    6  A    between atoms: C_27  and  C_28
REMARK    7  A    between atoms: C_29  and  C_31
REMARK    8  A    between atoms: C_31  and  O_32
REMARK                            x       y       z     vdW  Elec       q    Type
REMARK                         _______ _______ _______ _____ _____    ______ ____
ROOT
ATOM      1 CL   UNL     1      33.218  12.776  27.525  0.00  0.00    +0.000 Cl
ATOM      2  O   UNL     1      35.890  11.326  28.361  0.00  0.00    +0.000 OA
ATOM      3  C   UNL     1      35.160  11.655  24.127  0.00  0.00    +0.000 C 
ATOM      4  C   UNL     1      36.299  11.103  24.879  0.00  0.00    +0.000 C 
ATOM      5  C   UNL     1      34.330  12.070  25.270  0.00  0.00    +0.000 C 
ATOM      6  C   UNL     1      36.660  10.923  26.117  0.00  0.00    +0.000 C 
ATOM      7  C   UNL     1      34.399  12.028  26.569  0.00  0.00    +0.000 C 
ATOM      8  C   UNL     1      35.655  11.421  27.163  0.00  0.00    +0.000 C 
ENDROOT
BRANCH   6  10
ATOM      9  O   UNL     1      37.316   8.093  26.440  0.00  0.00    +0.000 OA
ATOM     10  N   UNL     1      37.830  10.353  26.547  0.00  0.00    +0.000 N 
ATOM     11  C   UNL     1      38.086   9.011  26.679  0.00  0.00    +0.000 C 
ATOM     12  H   UNL     1      38.569  11.011  26.788  0.00  0.00    +0.000 HD
BRANCH  11  14
ATOM     13  C   UNL     1      40.514   8.435  27.556  0.00  0.00    +0.000 C 
ATOM     14  C   UNL     1      39.413   8.693  27.151  0.00  0.00    +0.000 C 
BRANCH  13  15
ATOM     15  C   UNL     1      41.810   8.130  28.040  0.00  0.00    +0.000 C 
ATOM     16  C   UNL     1      41.966   6.937  28.941  0.00  0.00    +0.000 C 
ATOM     17  C   UNL     1      42.965   8.894  27.782  0.00  0.00    +0.000 C 
ATOM     18  C   UNL     1      44.129   9.648  27.530  0.00  0.00    +0.000 C 
ATOM     19  C   UNL     1      44.106  10.588  26.361  0.00  0.00    +0.000 C 
ATOM     20  C   UNL     1      45.297   9.598  28.309  0.00  0.00    +0.000 C 
ATOM     21  C   UNL     1      46.367   9.559  29.027  0.00  0.00    +0.000 C 
ATOM     22  C   UNL     1      47.425   8.547  28.714  0.00  0.00    +0.000 C 
ATOM     23  C   UNL     1      46.390  10.274  30.342  0.00  0.00    +0.000 C 
ENDBRANCH  13  15
ENDBRANCH  11  14
ENDBRANCH   6  10
BRANCH   3  24
ATOM     24  O   UNL     1      34.508  10.611  23.434  0.00  0.00    +0.000 OA
ATOM     25  H   UNL     1      34.611  10.814  22.489  0.00  0.00    +0.000 HD
ENDBRANCH   3  24
BRANCH   3  26
ATOM     26  C   UNL     1      35.508  12.736  23.214  0.00  0.00    +0.000 C 
ATOM     27  C   UNL     1      35.878  13.872  22.256  0.00  0.00    +0.000 C 
BRANCH  27  28
ATOM     28  C   UNL     1      36.253  15.006  21.298  0.00  0.00    +0.000 C 
ATOM     29  C   UNL     1      36.625  16.141  20.339  0.00  0.00    +0.000 C 
BRANCH  29  31
ATOM     30  O   UNL     1      36.152  17.932  18.914  0.00  0.00    +0.000 OA
ATOM     31  C   UNL     1      36.972  17.202  19.444  0.00  0.00    +0.000 C 
BRANCH  31  32
ATOM     32  O   UNL     1      38.295  17.329  19.233  0.00  0.00    +0.000 OA
ATOM     33  H   UNL     1      38.597  17.875  19.987  0.00  0.00    +0.000 HD
ENDBRANCH  31  32
ENDBRANCH  29  31
ENDBRANCH  27  28
ENDBRANCH   3  26
TORSDOF 8
ENDMDL
MODEL 4
REMARK VINA RESULT:      -5.3      2.045      3.567
REMARK  Name = 122178712_SalternamideA.pdbqt.pdb
REMARK  8 active torsions:
REMARK  status: ('A' for Active; 'I' for Inactive)
REMARK    1  A    between atoms: C_3  and  O_24
REMARK    2  A    between atoms: C_3  and  C_26
REMARK    3  A    between atoms: C_6  and  N_10
REMARK    4  A    between atoms: C_11  and  C_14
REMARK    5  A    between atoms: C_13  and  C_15
REMARK    6  A    between atoms: C_27  and  C_28
REMARK    7  A    between atoms: C_29  and  C_31
REMARK    8  A    between atoms: C_31  and  O_32
REMARK                            x       y       z     vdW  Elec       q    Type
REMARK                         _______ _______ _______ _____ _____    ______ ____
ROOT
ATOM      1 CL   UNL     1      33.172  17.532  23.998  0.00  0.00    +0.000 Cl
ATOM      2  O   UNL     1      31.373  17.613  21.409  0.00  0.00    +0.000 OA
ATOM      3  C   UNL     1      34.929  15.193  21.166  0.00  0.00    +0.000 C 
ATOM      4  C   UNL     1      33.843  15.428  20.200  0.00  0.00    +0.000 C 
ATOM      5  C   UNL     1      34.431  16.044  22.260  0.00  0.00    +0.000 C 
ATOM      6  C   UNL     1      32.740  16.114  20.116  0.00  0.00    +0.000 C 
ATOM      7  C   UNL     1      33.415  16.827  22.477  0.00  0.00    +0.000 C 
ATOM      8  C   UNL     1      32.396  16.942  21.360  0.00  0.00    +0.000 C 
ENDROOT
BRANCH   6  10
ATOM      9  O   UNL     1      32.855  17.795  17.727  0.00  0.00    +0.000 OA
ATOM     10  N   UNL     1      31.886  16.149  19.045  0.00  0.00    +0.000 N 
ATOM     11  C   UNL     1      31.988  16.961  17.943  0.00  0.00    +0.000 C 
ATOM     12  H   UNL     1      31.103  15.499  19.094  0.00  0.00    +0.000 HD
BRANCH  11  14
ATOM     13  C   UNL     1      30.087  16.624  16.135  0.00  0.00    +0.000 C 
ATOM     14  C   UNL     1      30.945  16.780  16.961  0.00  0.00    +0.000 C 
BRANCH  13  15
ATOM     15  C   UNL     1      29.078  16.432  15.159  0.00  0.00    +0.000 C 
ATOM     16  C   UNL     1      28.923  17.473  14.087  0.00  0.00    +0.000 C 
ATOM     17  C   UNL     1      28.166  15.358  15.146  0.00  0.00    +0.000 C 
ATOM     18  C   UNL     1      27.250  14.287  15.119  0.00  0.00    +0.000 C 
ATOM     19  C   UNL     1      27.598  13.057  15.906  0.00  0.00    +0.000 C 
ATOM     20  C   UNL     1      26.027  14.299  14.428  0.00  0.00    +0.000 C 
ATOM     21  C   UNL     1      24.901  14.312  13.800  0.00  0.00    +0.000 C 
ATOM     22  C   UNL     1      24.853  13.878  12.368  0.00  0.00    +0.000 C 
ATOM     23  C   UNL     1      23.747  15.065  14.385  0.00  0.00    +0.000 C 
ENDBRANCH  13  15
ENDBRANCH  11  14
ENDBRANCH   6  10
BRANCH   3  24
ATOM     24  O   UNL     1      36.129  15.740  20.662  0.00  0.00    +0.000 OA
ATOM     25  H   UNL     1      35.865  16.478  20.086  0.00  0.00    +0.000 HD
ENDBRANCH   3  24
BRANCH   3  26
ATOM     26  C   UNL     1      35.119  13.795  21.533  0.00  0.00    +0.000 C 
ATOM     27  C   UNL     1      35.313  12.325  21.914  0.00  0.00    +0.000 C 
BRANCH  27  28
ATOM     28  C   UNL     1      35.504  10.854  22.293  0.00  0.00    +0.000 C 
ATOM     29  C   UNL     1      35.692   9.382  22.673  0.00  0.00    +0.000 C 
BRANCH  29  31
ATOM     30  O   UNL     1      35.689   7.572  24.151  0.00  0.00    +0.000 OA
ATOM     31  C   UNL     1      35.868   8.006  23.026  0.00  0.00    +0.000 C 
BRANCH  31  32
ATOM     32  O   UNL     1      36.251   7.223  22.002  0.00  0.00    +0.000 OA
ATOM     33  H   UNL     1      35.657   6.447  22.069  0.00  0.00    +0.000 HD
ENDBRANCH  31  32
ENDBRANCH  29  31
ENDBRANCH  27  28
ENDBRANCH   3  26
TORSDOF 8
ENDMDL
MODEL 5
REMARK VINA RESULT:      -5.0      7.146     11.758
REMARK  Name = 122178712_SalternamideA.pdbqt.pdb
REMARK  8 active torsions:
REMARK  status: ('A' for Active; 'I' for Inactive)
REMARK    1  A    between atoms: C_3  and  O_24
REMARK    2  A    between atoms: C_3  and  C_26
REMARK    3  A    between atoms: C_6  and  N_10
REMARK    4  A    between atoms: C_11  and  C_14
REMARK    5  A    between atoms: C_13  and  C_15
REMARK    6  A    between atoms: C_27  and  C_28
REMARK    7  A    between atoms: C_29  and  C_31
REMARK    8  A    between atoms: C_31  and  O_32
REMARK                            x       y       z     vdW  Elec       q    Type
REMARK                         _______ _______ _______ _____ _____    ______ ____
ROOT
ATOM      1 CL   UNL     1      38.106   9.299  26.631  0.00  0.00    +0.000 Cl
ATOM      2  O   UNL     1      35.949   7.354  25.404  0.00  0.00    +0.000 OA
ATOM      3  C   UNL     1      35.093  11.564  25.092  0.00  0.00    +0.000 C 
ATOM      4  C   UNL     1      34.365  10.383  24.599  0.00  0.00    +0.000 C 
ATOM      5  C   UNL     1      36.222  10.868  25.732  0.00  0.00    +0.000 C 
ATOM      6  C   UNL     1      34.478   9.086  24.617  0.00  0.00    +0.000 C 
ATOM      7  C   UNL     1      36.606   9.640  25.922  0.00  0.00    +0.000 C 
ATOM      8  C   UNL     1      35.723   8.555  25.338  0.00  0.00    +0.000 C 
ENDROOT
BRANCH   6  10
ATOM      9  O   UNL     1      34.405   8.067  21.878  0.00  0.00    +0.000 OA
ATOM     10  N   UNL     1      33.608   8.189  24.055  0.00  0.00    +0.000 N 
ATOM     11  C   UNL     1      33.620   7.742  22.757  0.00  0.00    +0.000 C 
ATOM     12  H   UNL     1      32.888   7.833  24.681  0.00  0.00    +0.000 HD
BRANCH  11  14
ATOM     13  C   UNL     1      31.729   5.992  22.159  0.00  0.00    +0.000 C 
ATOM     14  C   UNL     1      32.584   6.789  22.436  0.00  0.00    +0.000 C 
BRANCH  13  15
ATOM     15  C   UNL     1      30.727   5.046  21.831  0.00  0.00    +0.000 C 
ATOM     16  C   UNL     1      31.162   3.690  21.352  0.00  0.00    +0.000 C 
ATOM     17  C   UNL     1      29.341   5.297  21.870  0.00  0.00    +0.000 C 
ATOM     18  C   UNL     1      27.952   5.534  21.907  0.00  0.00    +0.000 C 
ATOM     19  C   UNL     1      27.468   6.696  22.724  0.00  0.00    +0.000 C 
ATOM     20  C   UNL     1      26.994   4.774  21.216  0.00  0.00    +0.000 C 
ATOM     21  C   UNL     1      26.113   4.082  20.576  0.00  0.00    +0.000 C 
ATOM     22  C   UNL     1      25.529   2.863  21.218  0.00  0.00    +0.000 C 
ATOM     23  C   UNL     1      25.943   4.299  19.105  0.00  0.00    +0.000 C 
ENDBRANCH  13  15
ENDBRANCH  11  14
ENDBRANCH   6  10
BRANCH   3  24
ATOM     24  O   UNL     1      34.322  12.209  26.084  0.00  0.00    +0.000 OA
ATOM     25  H   UNL     1      33.913  12.976  25.648  0.00  0.00    +0.000 HD
ENDBRANCH   3  24
BRANCH   3  26
ATOM     26  C   UNL     1      35.483  12.509  24.053  0.00  0.00    +0.000 C 
ATOM     27  C   UNL     1      35.886  13.503  22.959  0.00  0.00    +0.000 C 
BRANCH  27  28
ATOM     28  C   UNL     1      36.285  14.497  21.865  0.00  0.00    +0.000 C 
ATOM     29  C   UNL     1      36.682  15.492  20.771  0.00  0.00    +0.000 C 
BRANCH  29  31
ATOM     30  O   UNL     1      36.342  17.345  19.388  0.00  0.00    +0.000 OA
ATOM     31  C   UNL     1      37.052  16.423  19.749  0.00  0.00    +0.000 C 
BRANCH  31  32
ATOM     32  O   UNL     1      38.264  16.193  19.213  0.00  0.00    +0.000 OA
ATOM     33  H   UNL     1      38.731  17.047  19.320  0.00  0.00    +0.000 HD
ENDBRANCH  31  32
ENDBRANCH  29  31
ENDBRANCH  27  28
ENDBRANCH   3  26
TORSDOF 8
ENDMDL
MODEL 6
REMARK VINA RESULT:      -5.0      6.458     10.575
REMARK  Name = 122178712_SalternamideA.pdbqt.pdb
REMARK  8 active torsions:
REMARK  status: ('A' for Active; 'I' for Inactive)
REMARK    1  A    between atoms: C_3  and  O_24
REMARK    2  A    between atoms: C_3  and  C_26
REMARK    3  A    between atoms: C_6  and  N_10
REMARK    4  A    between atoms: C_11  and  C_14
REMARK    5  A    between atoms: C_13  and  C_15
REMARK    6  A    between atoms: C_27  and  C_28
REMARK    7  A    between atoms: C_29  and  C_31
REMARK    8  A    between atoms: C_31  and  O_32
REMARK                            x       y       z     vdW  Elec       q    Type
REMARK                         _______ _______ _______ _____ _____    ______ ____
ROOT
ATOM      1 CL   UNL     1      27.752   7.187  25.039  0.00  0.00    +0.000 Cl
ATOM      2  O   UNL     1      29.632   9.469  23.944  0.00  0.00    +0.000 OA
ATOM      3  C   UNL     1      30.852   5.431  23.068  0.00  0.00    +0.000 C 
ATOM      4  C   UNL     1      31.433   6.729  22.686  0.00  0.00    +0.000 C 
ATOM      5  C   UNL     1      29.709   5.931  23.851  0.00  0.00    +0.000 C 
ATOM      6  C   UNL     1      31.202   7.997  22.870  0.00  0.00    +0.000 C 
ATOM      7  C   UNL     1      29.227   7.084  24.212  0.00  0.00    +0.000 C 
ATOM      8  C   UNL     1      29.964   8.313  23.718  0.00  0.00    +0.000 C 
ENDROOT
BRANCH   6  10
ATOM      9  O   UNL     1      33.635   9.199  23.958  0.00  0.00    +0.000 OA
ATOM     10  N   UNL     1      31.945   9.037  22.375  0.00  0.00    +0.000 N 
ATOM     11  C   UNL     1      33.085   9.563  22.929  0.00  0.00    +0.000 C 
ATOM     12  H   UNL     1      31.595   9.445  21.510  0.00  0.00    +0.000 HD
BRANCH  11  14
ATOM     13  C   UNL     1      34.151  11.576  21.584  0.00  0.00    +0.000 C 
ATOM     14  C   UNL     1      33.667  10.658  22.188  0.00  0.00    +0.000 C 
BRANCH  13  15
ATOM     15  C   UNL     1      34.728  12.660  20.877  0.00  0.00    +0.000 C 
ATOM     16  C   UNL     1      36.041  12.434  20.183  0.00  0.00    +0.000 C 
ATOM     17  C   UNL     1      34.186  13.959  20.818  0.00  0.00    +0.000 C 
ATOM     18  C   UNL     1      33.654  15.263  20.747  0.00  0.00    +0.000 C 
ATOM     19  C   UNL     1      32.201  15.437  21.078  0.00  0.00    +0.000 C 
ATOM     20  C   UNL     1      34.392  16.410  20.412  0.00  0.00    +0.000 C 
ATOM     21  C   UNL     1      35.070  17.464  20.111  0.00  0.00    +0.000 C 
ATOM     22  C   UNL     1      35.211  17.864  18.675  0.00  0.00    +0.000 C 
ATOM     23  C   UNL     1      35.975  18.069  21.140  0.00  0.00    +0.000 C 
ENDBRANCH  13  15
ENDBRANCH  11  14
ENDBRANCH   6  10
BRANCH   3  24
ATOM     24  O   UNL     1      31.744   4.755  23.929  0.00  0.00    +0.000 OA
ATOM     25  H   UNL     1      31.626   3.807  23.745  0.00  0.00    +0.000 HD
ENDBRANCH   3  24
BRANCH   3  26
ATOM     26  C   UNL     1      30.482   4.581  21.944  0.00  0.00    +0.000 C 
ATOM     27  C   UNL     1      30.091   3.684  20.766  0.00  0.00    +0.000 C 
BRANCH  27  28
ATOM     28  C   UNL     1      29.698   2.785  19.590  0.00  0.00    +0.000 C 
ATOM     29  C   UNL     1      29.303   1.888  18.413  0.00  0.00    +0.000 C 
BRANCH  29  31
ATOM     30  O   UNL     1      27.791   0.697  17.088  0.00  0.00    +0.000 OA
ATOM     31  C   UNL     1      28.936   1.050  17.312  0.00  0.00    +0.000 C 
BRANCH  31  32
ATOM     32  O   UNL     1      29.971   0.681  16.537  0.00  0.00    +0.000 OA
ATOM     33  H   UNL     1      29.580   0.627  15.640  0.00  0.00    +0.000 HD
ENDBRANCH  31  32
ENDBRANCH  29  31
ENDBRANCH  27  28
ENDBRANCH   3  26
TORSDOF 8
ENDMDL
MODEL 7
REMARK VINA RESULT:      -4.8      9.226     14.744
REMARK  Name = 122178712_SalternamideA.pdbqt.pdb
REMARK  8 active torsions:
REMARK  status: ('A' for Active; 'I' for Inactive)
REMARK    1  A    between atoms: C_3  and  O_24
REMARK    2  A    between atoms: C_3  and  C_26
REMARK    3  A    between atoms: C_6  and  N_10
REMARK    4  A    between atoms: C_11  and  C_14
REMARK    5  A    between atoms: C_13  and  C_15
REMARK    6  A    between atoms: C_27  and  C_28
REMARK    7  A    between atoms: C_29  and  C_31
REMARK    8  A    between atoms: C_31  and  O_32
REMARK                            x       y       z     vdW  Elec       q    Type
REMARK                         _______ _______ _______ _____ _____    ______ ____
ROOT
ATOM      1 CL   UNL     1      33.309  11.443  21.130  0.00  0.00    +0.000 Cl
ATOM      2  O   UNL     1      35.878  10.709  22.803  0.00  0.00    +0.000 OA
ATOM      3  C   UNL     1      32.379   8.313  23.561  0.00  0.00    +0.000 C 
ATOM      4  C   UNL     1      33.748   8.235  24.098  0.00  0.00    +0.000 C 
ATOM      5  C   UNL     1      32.564   9.471  22.670  0.00  0.00    +0.000 C 
ATOM      6  C   UNL     1      34.881   8.867  23.985  0.00  0.00    +0.000 C 
ATOM      7  C   UNL     1      33.523  10.289  22.351  0.00  0.00    +0.000 C 
ATOM      8  C   UNL     1      34.868  10.050  23.009  0.00  0.00    +0.000 C 
ENDROOT
BRANCH   6  10
ATOM      9  O   UNL     1      36.610   6.531  23.672  0.00  0.00    +0.000 OA
ATOM     10  N   UNL     1      36.047   8.565  24.638  0.00  0.00    +0.000 N 
ATOM     11  C   UNL     1      36.824   7.448  24.451  0.00  0.00    +0.000 C 
ATOM     12  H   UNL     1      36.346   9.250  25.329  0.00  0.00    +0.000 HD
BRANCH  11  14
ATOM     13  C   UNL     1      38.983   7.344  25.975  0.00  0.00    +0.000 C 
ATOM     14  C   UNL     1      38.006   7.390  25.277  0.00  0.00    +0.000 C 
BRANCH  13  15
ATOM     15  C   UNL     1      40.130   7.287  26.804  0.00  0.00    +0.000 C 
ATOM     16  C   UNL     1      40.152   6.274  27.913  0.00  0.00    +0.000 C 
ATOM     17  C   UNL     1      41.240   8.149  26.701  0.00  0.00    +0.000 C 
ATOM     18  C   UNL     1      42.358   9.002  26.607  0.00  0.00    +0.000 C 
ATOM     19  C   UNL     1      42.557   9.745  25.318  0.00  0.00    +0.000 C 
ATOM     20  C   UNL     1      43.283   9.223  27.641  0.00  0.00    +0.000 C 
ATOM     21  C   UNL     1      44.129   9.432  28.591  0.00  0.00    +0.000 C 
ATOM     22  C   UNL     1      45.317   8.532  28.729  0.00  0.00    +0.000 C 
ATOM     23  C   UNL     1      43.746  10.333  29.724  0.00  0.00    +0.000 C 
ENDBRANCH  13  15
ENDBRANCH  11  14
ENDBRANCH   6  10
BRANCH   3  24
ATOM     24  O   UNL     1      31.488   8.663  24.599  0.00  0.00    +0.000 OA
ATOM     25  H   UNL     1      30.595   8.515  24.245  0.00  0.00    +0.000 HD
ENDBRANCH   3  24
BRANCH   3  26
ATOM     26  C   UNL     1      31.927   7.103  22.885  0.00  0.00    +0.000 C 
ATOM     27  C   UNL     1      31.448   5.835  22.173  0.00  0.00    +0.000 C 
BRANCH  27  28
ATOM     28  C   UNL     1      30.965   4.569  21.460  0.00  0.00    +0.000 C 
ATOM     29  C   UNL     1      30.484   3.303  20.743  0.00  0.00    +0.000 C 
BRANCH  29  31
ATOM     30  O   UNL     1      29.505   1.183  20.646  0.00  0.00    +0.000 OA
ATOM     31  C   UNL     1      30.035   2.120  20.074  0.00  0.00    +0.000 C 
BRANCH  31  32
ATOM     32  O   UNL     1      30.250   2.128  18.747  0.00  0.00    +0.000 OA
ATOM     33  H   UNL     1      29.988   3.031  18.476  0.00  0.00    +0.000 HD
ENDBRANCH  31  32
ENDBRANCH  29  31
ENDBRANCH  27  28
ENDBRANCH   3  26
TORSDOF 8
ENDMDL
MODEL 8
REMARK VINA RESULT:      -4.7      9.563     14.648
REMARK  Name = 122178712_SalternamideA.pdbqt.pdb
REMARK  8 active torsions:
REMARK  status: ('A' for Active; 'I' for Inactive)
REMARK    1  A    between atoms: C_3  and  O_24
REMARK    2  A    between atoms: C_3  and  C_26
REMARK    3  A    between atoms: C_6  and  N_10
REMARK    4  A    between atoms: C_11  and  C_14
REMARK    5  A    between atoms: C_13  and  C_15
REMARK    6  A    between atoms: C_27  and  C_28
REMARK    7  A    between atoms: C_29  and  C_31
REMARK    8  A    between atoms: C_31  and  O_32
REMARK                            x       y       z     vdW  Elec       q    Type
REMARK                         _______ _______ _______ _____ _____    ______ ____
ROOT
ATOM      1 CL   UNL     1      27.999  -0.206  22.648  0.00  0.00    +0.000 Cl
ATOM      2  O   UNL     1      29.919   2.245  23.147  0.00  0.00    +0.000 OA
ATOM      3  C   UNL     1      28.649   1.636  19.076  0.00  0.00    +0.000 C 
ATOM      4  C   UNL     1      29.482   2.683  19.689  0.00  0.00    +0.000 C 
ATOM      5  C   UNL     1      28.370   0.846  20.287  0.00  0.00    +0.000 C 
ATOM      6  C   UNL     1      29.954   2.996  20.862  0.00  0.00    +0.000 C 
ATOM      7  C   UNL     1      28.684   0.886  21.549  0.00  0.00    +0.000 C 
ATOM      8  C   UNL     1      29.554   2.044  21.996  0.00  0.00    +0.000 C 
ENDROOT
BRANCH   6  10
ATOM      9  O   UNL     1      29.205   5.539  22.094  0.00  0.00    +0.000 OA
ATOM     10  N   UNL     1      30.744   4.076  21.156  0.00  0.00    +0.000 N 
ATOM     11  C   UNL     1      30.338   5.251  21.739  0.00  0.00    +0.000 C 
ATOM     12  H   UNL     1      31.726   3.975  20.907  0.00  0.00    +0.000 HD
BRANCH  11  14
ATOM     13  C   UNL     1      32.266   7.029  22.088  0.00  0.00    +0.000 C 
ATOM     14  C   UNL     1      31.389   6.221  21.937  0.00  0.00    +0.000 C 
BRANCH  13  15
ATOM     15  C   UNL     1      33.296   7.985  22.260  0.00  0.00    +0.000 C 
ATOM     16  C   UNL     1      34.619   7.513  22.794  0.00  0.00    +0.000 C 
ATOM     17  C   UNL     1      33.160   9.366  22.015  0.00  0.00    +0.000 C 
ATOM     18  C   UNL     1      33.040  10.749  21.771  0.00  0.00    +0.000 C 
ATOM     19  C   UNL     1      31.909  11.202  20.895  0.00  0.00    +0.000 C 
ATOM     20  C   UNL     1      33.887  11.732  22.308  0.00  0.00    +0.000 C 
ATOM     21  C   UNL     1      34.660  12.636  22.806  0.00  0.00    +0.000 C 
ATOM     22  C   UNL     1      35.914  13.013  22.080  0.00  0.00    +0.000 C 
ATOM     23  C   UNL     1      34.482  13.041  24.237  0.00  0.00    +0.000 C 
ENDBRANCH  13  15
ENDBRANCH  11  14
ENDBRANCH   6  10
BRANCH   3  24
ATOM     24  O   UNL     1      29.438   0.868  18.191  0.00  0.00    +0.000 OA
ATOM     25  H   UNL     1      28.863   0.657  17.436  0.00  0.00    +0.000 HD
ENDBRANCH   3  24
BRANCH   3  26
ATOM     26  C   UNL     1      27.458   2.133  18.398  0.00  0.00    +0.000 C 
ATOM     27  C   UNL     1      26.209   2.662  17.686  0.00  0.00    +0.000 C 
BRANCH  27  28
ATOM     28  C   UNL     1      24.962   3.194  16.975  0.00  0.00    +0.000 C 
ATOM     29  C   UNL     1      23.716   3.727  16.260  0.00  0.00    +0.000 C 
BRANCH  29  31
ATOM     30  O   UNL     1      21.439   3.745  15.735  0.00  0.00    +0.000 OA
ATOM     31  C   UNL     1      22.552   4.223  15.593  0.00  0.00    +0.000 C 
BRANCH  31  32
ATOM     32  O   UNL     1      22.789   5.272  14.785  0.00  0.00    +0.000 OA
ATOM     33  H   UNL     1      22.845   6.030  15.402  0.00  0.00    +0.000 HD
ENDBRANCH  31  32
ENDBRANCH  29  31
ENDBRANCH  27  28
ENDBRANCH   3  26
TORSDOF 8
ENDMDL
MODEL 9
REMARK VINA RESULT:      -4.7      7.117     15.241
REMARK  Name = 122178712_SalternamideA.pdbqt.pdb
REMARK  8 active torsions:
REMARK  status: ('A' for Active; 'I' for Inactive)
REMARK    1  A    between atoms: C_3  and  O_24
REMARK    2  A    between atoms: C_3  and  C_26
REMARK    3  A    between atoms: C_6  and  N_10
REMARK    4  A    between atoms: C_11  and  C_14
REMARK    5  A    between atoms: C_13  and  C_15
REMARK    6  A    between atoms: C_27  and  C_28
REMARK    7  A    between atoms: C_29  and  C_31
REMARK    8  A    between atoms: C_31  and  O_32
REMARK                            x       y       z     vdW  Elec       q    Type
REMARK                         _______ _______ _______ _____ _____    ______ ____
ROOT
ATOM      1 CL   UNL     1      33.563  12.749  27.503  0.00  0.00    +0.000 Cl
ATOM      2  O   UNL     1      35.879  10.651  27.917  0.00  0.00    +0.000 OA
ATOM      3  C   UNL     1      34.878  11.582  23.831  0.00  0.00    +0.000 C 
ATOM      4  C   UNL     1      35.916  10.710  24.405  0.00  0.00    +0.000 C 
ATOM      5  C   UNL     1      34.274  12.052  25.089  0.00  0.00    +0.000 C 
ATOM      6  C   UNL     1      36.331  10.323  25.577  0.00  0.00    +0.000 C 
ATOM      7  C   UNL     1      34.444  11.858  26.364  0.00  0.00    +0.000 C 
ATOM      8  C   UNL     1      35.568  10.923  26.764  0.00  0.00    +0.000 C 
ENDROOT
BRANCH   6  10
ATOM      9  O   UNL     1      36.363   7.403  25.447  0.00  0.00    +0.000 OA
ATOM     10  N   UNL     1      37.367   9.461  25.827  0.00  0.00    +0.000 N 
ATOM     11  C   UNL     1      37.327   8.091  25.749  0.00  0.00    +0.000 C 
ATOM     12  H   UNL     1      38.243   9.903  26.097  0.00  0.00    +0.000 HD
BRANCH  11  14
ATOM     13  C   UNL     1      39.614   6.886  26.312  0.00  0.00    +0.000 C 
ATOM     14  C   UNL     1      38.573   7.432  26.064  0.00  0.00    +0.000 C 
BRANCH  13  15
ATOM     15  C   UNL     1      40.845   6.248  26.600  0.00  0.00    +0.000 C 
ATOM     16  C   UNL     1      41.922   7.056  27.266  0.00  0.00    +0.000 C 
ATOM     17  C   UNL     1      41.158   4.916  26.262  0.00  0.00    +0.000 C 
ATOM     18  C   UNL     1      41.485   3.585  25.933  0.00  0.00    +0.000 C 
ATOM     19  C   UNL     1      40.352   2.648  25.634  0.00  0.00    +0.000 C 
ATOM     20  C   UNL     1      42.793   3.083  25.842  0.00  0.00    +0.000 C 
ATOM     21  C   UNL     1      43.994   2.622  25.752  0.00  0.00    +0.000 C 
ATOM     22  C   UNL     1      44.665   2.073  26.973  0.00  0.00    +0.000 C 
ATOM     23  C   UNL     1      44.811   2.947  24.540  0.00  0.00    +0.000 C 
ENDBRANCH  13  15
ENDBRANCH  11  14
ENDBRANCH   6  10
BRANCH   3  24
ATOM     24  O   UNL     1      33.939  10.792  23.131  0.00  0.00    +0.000 OA
ATOM     25  H   UNL     1      34.377  10.526  22.305  0.00  0.00    +0.000 HD
ENDBRANCH   3  24
BRANCH   3  26
ATOM     26  C   UNL     1      35.389  12.646  22.977  0.00  0.00    +0.000 C 
ATOM     27  C   UNL     1      35.922  13.764  22.076  0.00  0.00    +0.000 C 
BRANCH  27  28
ATOM     28  C   UNL     1      36.451  14.881  21.172  0.00  0.00    +0.000 C 
ATOM     29  C   UNL     1      36.978  15.999  20.268  0.00  0.00    +0.000 C 
BRANCH  29  31
ATOM     30  O   UNL     1      36.765  17.925  18.961  0.00  0.00    +0.000 OA
ATOM     31  C   UNL     1      37.470  17.045  19.424  0.00  0.00    +0.000 C 
BRANCH  31  32
ATOM     32  O   UNL     1      38.791  16.975  19.181  0.00  0.00    +0.000 OA
ATOM     33  H   UNL     1      39.193  17.419  19.955  0.00  0.00    +0.000 HD
ENDBRANCH  31  32
ENDBRANCH  29  31
ENDBRANCH  27  28
ENDBRANCH   3  26
TORSDOF 8
ENDMDL
