REMARK  Name = 122180587_TripolinolateA.pdbqt.pdb
REMARK  9 active torsions:
REMARK  status: ('A' for Active; 'I' for Inactive)
REMARK    1  A    between atoms: C_1  and  O_16
REMARK    2  A    between atoms: C_2  and  O_7
REMARK    3  A    between atoms: C_3  and  C_9
REMARK    4  A    between atoms: C_10  and  C_11
REMARK    5  A    between atoms: C_11  and  O_12
REMARK    6  A    between atoms: O_12  and  C_14
REMARK    7  A    between atoms: O_16  and  C_18
REMARK    8  A    between atoms: C_18  and  C_19
REMARK    9  A    between atoms: C_19  and  C_21
REMARK                            x       y       z     vdW  Elec       q    Type
REMARK                         _______ _______ _______ _____ _____    ______ ____
ROOT
ATOM      1  C   UNL     1      -1.726   0.151   0.604  0.00  0.00    +0.000 A 
ATOM      2  C   UNL     1      -1.104   1.369   0.311  0.00  0.00    +0.000 A 
ATOM      3  C   UNL     1       1.023   0.204   0.256  0.00  0.00    +0.000 A 
ATOM      4  C   UNL     1      -0.990  -1.026   0.755  0.00  0.00    +0.000 A 
ATOM      5  C   UNL     1       0.282   1.379   0.133  0.00  0.00    +0.000 A 
ATOM      6  C   UNL     1       0.389  -0.997   0.570  0.00  0.00    +0.000 A 
ENDROOT
BRANCH   2   7
ATOM      7  O   UNL     1      -1.903   2.482   0.237  0.00  0.00    +0.000 OA
ATOM      8  C   UNL     1      -1.269   3.657  -0.186  0.00  0.00    +0.000 C 
ENDBRANCH   2   7
BRANCH   3   9
ATOM      9  C   UNL     1       2.436   0.233   0.066  0.00  0.00    +0.000 C 
ATOM     10  C   UNL     1       3.626   0.256  -0.095  0.00  0.00    +0.000 C 
BRANCH  10  11
ATOM     11  C   UNL     1       5.144   0.281  -0.300  0.00  0.00    +0.000 C 
BRANCH  11  12
ATOM     12  O   UNL     1       6.463   0.301  -0.477  0.00  0.00    +0.000 OA
BRANCH  12  14
ATOM     13  O   UNL     1       6.680  -1.914   0.240  0.00  0.00    +0.000 OA
ATOM     14  C   UNL     1       7.098  -0.848  -0.173  0.00  0.00    +0.000 C 
ATOM     15  C   UNL     1       8.575  -0.809  -0.378  0.00  0.00    +0.000 C 
ENDBRANCH  12  14
ENDBRANCH  11  12
ENDBRANCH  10  11
ENDBRANCH   3   9
BRANCH   1  16
ATOM     16  O   UNL     1      -3.107   0.112   0.840  0.00  0.00    +0.000 OA
BRANCH  16  18
ATOM     17  O   UNL     1      -3.362  -0.839  -1.267  0.00  0.00    +0.000 OA
ATOM     18  C   UNL     1      -3.828  -0.465  -0.198  0.00  0.00    +0.000 C 
BRANCH  18  19
ATOM     19  C   UNL     1      -5.267  -0.558   0.153  0.00  0.00    +0.000 C 
ATOM     20  C   UNL     1      -5.844  -0.051   1.468  0.00  0.00    +0.000 C 
BRANCH  19  21
ATOM     21  C   UNL     1      -6.167  -1.142  -0.777  0.00  0.00    +0.000 C 
ATOM     22  C   UNL     1      -7.149  -1.776  -1.780  0.00  0.00    +0.000 C 
ENDBRANCH  19  21
ENDBRANCH  18  19
ENDBRANCH  16  18
ENDBRANCH   1  16
TORSDOF 9
