MODEL 1
REMARK VINA RESULT:      -6.0      0.000      0.000
REMARK  Name = 122180587_TripolinolateA.pdbqt.pdb
REMARK  9 active torsions:
REMARK  status: ('A' for Active; 'I' for Inactive)
REMARK    1  A    between atoms: C_1  and  O_16
REMARK    2  A    between atoms: C_2  and  O_7
REMARK    3  A    between atoms: C_3  and  C_9
REMARK    4  A    between atoms: C_10  and  C_11
REMARK    5  A    between atoms: C_11  and  O_12
REMARK    6  A    between atoms: O_12  and  C_14
REMARK    7  A    between atoms: O_16  and  C_18
REMARK    8  A    between atoms: C_18  and  C_19
REMARK    9  A    between atoms: C_19  and  C_21
REMARK                            x       y       z     vdW  Elec       q    Type
REMARK                         _______ _______ _______ _____ _____    ______ ____
ROOT
ATOM      1  C   UNL     1      41.611  -1.019  13.137  0.00  0.00    +0.000 A 
ATOM      2  C   UNL     1      42.519  -1.353  14.147  0.00  0.00    +0.000 A 
ATOM      3  C   UNL     1      42.600  -3.605  13.250  0.00  0.00    +0.000 A 
ATOM      4  C   UNL     1      41.171  -1.966  12.210  0.00  0.00    +0.000 A 
ATOM      5  C   UNL     1      43.014  -2.659  14.188  0.00  0.00    +0.000 A 
ATOM      6  C   UNL     1      41.677  -3.261  12.264  0.00  0.00    +0.000 A 
ENDROOT
BRANCH   2   7
ATOM      7  O   UNL     1      42.850  -0.370  15.046  0.00  0.00    +0.000 OA
ATOM      8  C   UNL     1      42.818  -0.746  16.395  0.00  0.00    +0.000 C 
ENDBRANCH   2   7
BRANCH   3   9
ATOM      9  C   UNL     1      43.120  -4.932  13.305  0.00  0.00    +0.000 C 
ATOM     10  C   UNL     1      43.559  -6.049  13.350  0.00  0.00    +0.000 C 
BRANCH  10  11
ATOM     11  C   UNL     1      44.121  -7.473  13.404  0.00  0.00    +0.000 C 
BRANCH  11  12
ATOM     12  O   UNL     1      44.611  -8.710  13.451  0.00  0.00    +0.000 OA
BRANCH  12  14
ATOM     13  O   UNL     1      42.624  -9.849  12.978  0.00  0.00    +0.000 OA
ATOM     14  C   UNL     1      43.824  -9.657  12.904  0.00  0.00    +0.000 C 
ATOM     15  C   UNL     1      44.549 -10.648  12.057  0.00  0.00    +0.000 C 
ENDBRANCH  12  14
ENDBRANCH  11  12
ENDBRANCH  10  11
ENDBRANCH   3   9
BRANCH   1  16
ATOM     16  O   UNL     1      41.054   0.267  13.097  0.00  0.00    +0.000 OA
BRANCH  16  18
ATOM     17  O   UNL     1      38.774   0.249  12.640  0.00  0.00    +0.000 OA
ATOM     18  C   UNL     1      39.707   0.296  13.433  0.00  0.00    +0.000 C 
BRANCH  18  19
ATOM     19  C   UNL     1      39.536   0.409  14.903  0.00  0.00    +0.000 C 
ATOM     20  C   UNL     1      39.224  -0.778  15.805  0.00  0.00    +0.000 C 
BRANCH  19  21
ATOM     21  C   UNL     1      39.673   1.682  15.516  0.00  0.00    +0.000 C 
ATOM     22  C   UNL     1      39.815   3.066  16.178  0.00  0.00    +0.000 C 
ENDBRANCH  19  21
ENDBRANCH  18  19
ENDBRANCH  16  18
ENDBRANCH   1  16
TORSDOF 9
ENDMDL
MODEL 2
REMARK VINA RESULT:      -5.7      2.963      9.291
REMARK  Name = 122180587_TripolinolateA.pdbqt.pdb
REMARK  9 active torsions:
REMARK  status: ('A' for Active; 'I' for Inactive)
REMARK    1  A    between atoms: C_1  and  O_16
REMARK    2  A    between atoms: C_2  and  O_7
REMARK    3  A    between atoms: C_3  and  C_9
REMARK    4  A    between atoms: C_10  and  C_11
REMARK    5  A    between atoms: C_11  and  O_12
REMARK    6  A    between atoms: O_12  and  C_14
REMARK    7  A    between atoms: O_16  and  C_18
REMARK    8  A    between atoms: C_18  and  C_19
REMARK    9  A    between atoms: C_19  and  C_21
REMARK                            x       y       z     vdW  Elec       q    Type
REMARK                         _______ _______ _______ _____ _____    ______ ____
ROOT
ATOM      1  C   UNL     1      43.053  -2.053  14.253  0.00  0.00    +0.000 A 
ATOM      2  C   UNL     1      42.160  -1.324  13.461  0.00  0.00    +0.000 A 
ATOM      3  C   UNL     1      41.609   0.010  15.410  0.00  0.00    +0.000 A 
ATOM      4  C   UNL     1      43.207  -1.784  15.614  0.00  0.00    +0.000 A 
ATOM      5  C   UNL     1      41.442  -0.284  14.057  0.00  0.00    +0.000 A 
ATOM      6  C   UNL     1      42.487  -0.741  16.189  0.00  0.00    +0.000 A 
ENDROOT
BRANCH   2   7
ATOM      7  O   UNL     1      42.035  -1.698  12.146  0.00  0.00    +0.000 OA
ATOM      8  C   UNL     1      40.829  -2.324  11.805  0.00  0.00    +0.000 C 
ENDBRANCH   2   7
BRANCH   3   9
ATOM      9  C   UNL     1      40.871   1.078  16.000  0.00  0.00    +0.000 C 
ATOM     10  C   UNL     1      40.249   1.978  16.496  0.00  0.00    +0.000 C 
BRANCH  10  11
ATOM     11  C   UNL     1      39.456   3.129  17.124  0.00  0.00    +0.000 C 
BRANCH  11  12
ATOM     12  O   UNL     1      38.766   4.128  17.668  0.00  0.00    +0.000 OA
BRANCH  12  14
ATOM     13  O   UNL     1      39.224   3.923  19.952  0.00  0.00    +0.000 OA
ATOM     14  C   UNL     1      39.186   4.515  18.889  0.00  0.00    +0.000 C 
ATOM     15  C   UNL     1      39.694   5.915  18.951  0.00  0.00    +0.000 C 
ENDBRANCH  12  14
ENDBRANCH  11  12
ENDBRANCH  10  11
ENDBRANCH   3   9
BRANCH   1  16
ATOM     16  O   UNL     1      43.751  -3.136  13.701  0.00  0.00    +0.000 OA
BRANCH  16  18
ATOM     17  O   UNL     1      42.162  -4.785  14.108  0.00  0.00    +0.000 OA
ATOM     18  C   UNL     1      43.313  -4.369  14.167  0.00  0.00    +0.000 C 
BRANCH  18  19
ATOM     19  C   UNL     1      44.435  -5.129  14.772  0.00  0.00    +0.000 C 
ATOM     20  C   UNL     1      44.840  -5.005  16.235  0.00  0.00    +0.000 C 
BRANCH  19  21
ATOM     21  C   UNL     1      45.176  -6.027  13.959  0.00  0.00    +0.000 C 
ATOM     22  C   UNL     1      45.985  -6.995  13.075  0.00  0.00    +0.000 C 
ENDBRANCH  19  21
ENDBRANCH  18  19
ENDBRANCH  16  18
ENDBRANCH   1  16
TORSDOF 9
ENDMDL
MODEL 3
REMARK VINA RESULT:      -5.5      2.939      9.050
REMARK  Name = 122180587_TripolinolateA.pdbqt.pdb
REMARK  9 active torsions:
REMARK  status: ('A' for Active; 'I' for Inactive)
REMARK    1  A    between atoms: C_1  and  O_16
REMARK    2  A    between atoms: C_2  and  O_7
REMARK    3  A    between atoms: C_3  and  C_9
REMARK    4  A    between atoms: C_10  and  C_11
REMARK    5  A    between atoms: C_11  and  O_12
REMARK    6  A    between atoms: O_12  and  C_14
REMARK    7  A    between atoms: O_16  and  C_18
REMARK    8  A    between atoms: C_18  and  C_19
REMARK    9  A    between atoms: C_19  and  C_21
REMARK                            x       y       z     vdW  Elec       q    Type
REMARK                         _______ _______ _______ _____ _____    ______ ____
ROOT
ATOM      1  C   UNL     1      42.641  -1.925  13.998  0.00  0.00    +0.000 A 
ATOM      2  C   UNL     1      42.893  -1.682  15.352  0.00  0.00    +0.000 A 
ATOM      3  C   UNL     1      41.322   0.164  15.254  0.00  0.00    +0.000 A 
ATOM      4  C   UNL     1      41.766  -1.122  13.263  0.00  0.00    +0.000 A 
ATOM      5  C   UNL     1      42.216  -0.628  15.973  0.00  0.00    +0.000 A 
ATOM      6  C   UNL     1      41.099  -0.080  13.899  0.00  0.00    +0.000 A 
ENDROOT
BRANCH   2   7
ATOM      7  O   UNL     1      43.809  -2.489  15.976  0.00  0.00    +0.000 OA
ATOM      8  C   UNL     1      43.771  -2.481  17.376  0.00  0.00    +0.000 C 
ENDBRANCH   2   7
BRANCH   3   9
ATOM      9  C   UNL     1      40.637   1.231  15.906  0.00  0.00    +0.000 C 
ATOM     10  C   UNL     1      40.061   2.130  16.456  0.00  0.00    +0.000 C 
BRANCH  10  11
ATOM     11  C   UNL     1      39.328   3.275  17.162  0.00  0.00    +0.000 C 
BRANCH  11  12
ATOM     12  O   UNL     1      38.689   4.269  17.776  0.00  0.00    +0.000 OA
BRANCH  12  14
ATOM     13  O   UNL     1      39.261   4.001  20.027  0.00  0.00    +0.000 OA
ATOM     14  C   UNL     1      39.191   4.614  18.978  0.00  0.00    +0.000 C 
ATOM     15  C   UNL     1      39.762   5.991  19.035  0.00  0.00    +0.000 C 
ENDBRANCH  12  14
ENDBRANCH  11  12
ENDBRANCH  10  11
ENDBRANCH   3   9
BRANCH   1  16
ATOM     16  O   UNL     1      43.339  -2.940  13.329  0.00  0.00    +0.000 OA
BRANCH  16  18
ATOM     17  O   UNL     1      41.661  -4.255  12.401  0.00  0.00    +0.000 OA
ATOM     18  C   UNL     1      42.601  -4.106  13.172  0.00  0.00    +0.000 C 
BRANCH  18  19
ATOM     19  C   UNL     1      43.095  -5.166  14.085  0.00  0.00    +0.000 C 
ATOM     20  C   UNL     1      42.382  -5.565  15.370  0.00  0.00    +0.000 C 
BRANCH  19  21
ATOM     21  C   UNL     1      44.291  -5.857  13.756  0.00  0.00    +0.000 C 
ATOM     22  C   UNL     1      45.584  -6.614  13.396  0.00  0.00    +0.000 C 
ENDBRANCH  19  21
ENDBRANCH  18  19
ENDBRANCH  16  18
ENDBRANCH   1  16
TORSDOF 9
ENDMDL
MODEL 4
REMARK VINA RESULT:      -5.3     15.747     19.478
REMARK  Name = 122180587_TripolinolateA.pdbqt.pdb
REMARK  9 active torsions:
REMARK  status: ('A' for Active; 'I' for Inactive)
REMARK    1  A    between atoms: C_1  and  O_16
REMARK    2  A    between atoms: C_2  and  O_7
REMARK    3  A    between atoms: C_3  and  C_9
REMARK    4  A    between atoms: C_10  and  C_11
REMARK    5  A    between atoms: C_11  and  O_12
REMARK    6  A    between atoms: O_12  and  C_14
REMARK    7  A    between atoms: O_16  and  C_18
REMARK    8  A    between atoms: C_18  and  C_19
REMARK    9  A    between atoms: C_19  and  C_21
REMARK                            x       y       z     vdW  Elec       q    Type
REMARK                         _______ _______ _______ _____ _____    ______ ____
ROOT
ATOM      1  C   UNL     1      35.519  14.759  21.334  0.00  0.00    +0.000 A 
ATOM      2  C   UNL     1      35.273  14.506  22.687  0.00  0.00    +0.000 A 
ATOM      3  C   UNL     1      35.633  12.146  22.252  0.00  0.00    +0.000 A 
ATOM      4  C   UNL     1      35.788  13.724  20.436  0.00  0.00    +0.000 A 
ATOM      5  C   UNL     1      35.340  13.184  23.137  0.00  0.00    +0.000 A 
ATOM      6  C   UNL     1      35.854  12.415  20.902  0.00  0.00    +0.000 A 
ENDROOT
BRANCH   2   7
ATOM      7  O   UNL     1      34.963  15.580  23.482  0.00  0.00    +0.000 OA
ATOM      8  C   UNL     1      33.680  15.567  24.045  0.00  0.00    +0.000 C 
ENDBRANCH   2   7
BRANCH   3   9
ATOM      9  C   UNL     1      35.702  10.805  22.730  0.00  0.00    +0.000 C 
ATOM     10  C   UNL     1      35.758   9.674  23.132  0.00  0.00    +0.000 C 
BRANCH  10  11
ATOM     11  C   UNL     1      35.825   8.232  23.644  0.00  0.00    +0.000 C 
BRANCH  11  12
ATOM     12  O   UNL     1      35.882   6.978  24.088  0.00  0.00    +0.000 OA
BRANCH  12  14
ATOM     13  O   UNL     1      38.005   6.003  24.181  0.00  0.00    +0.000 OA
ATOM     14  C   UNL     1      37.060   6.619  24.636  0.00  0.00    +0.000 C 
ATOM     15  C   UNL     1      37.238   7.053  26.053  0.00  0.00    +0.000 C 
ENDBRANCH  12  14
ENDBRANCH  11  12
ENDBRANCH  10  11
ENDBRANCH   3   9
BRANCH   1  16
ATOM     16  O   UNL     1      35.410  16.065  20.838  0.00  0.00    +0.000 OA
BRANCH  16  18
ATOM     17  O   UNL     1      37.689  16.389  21.175  0.00  0.00    +0.000 OA
ATOM     18  C   UNL     1      36.639  16.674  20.612  0.00  0.00    +0.000 C 
BRANCH  18  19
ATOM     19  C   UNL     1      36.513  17.745  19.593  0.00  0.00    +0.000 C 
ATOM     20  C   UNL     1      35.221  18.039  18.841  0.00  0.00    +0.000 C 
BRANCH  19  21
ATOM     21  C   UNL     1      37.643  18.551  19.297  0.00  0.00    +0.000 C 
ATOM     22  C   UNL     1      38.866  19.429  18.969  0.00  0.00    +0.000 C 
ENDBRANCH  19  21
ENDBRANCH  18  19
ENDBRANCH  16  18
ENDBRANCH   1  16
TORSDOF 9
ENDMDL
MODEL 5
REMARK VINA RESULT:      -5.2     16.138     19.736
REMARK  Name = 122180587_TripolinolateA.pdbqt.pdb
REMARK  9 active torsions:
REMARK  status: ('A' for Active; 'I' for Inactive)
REMARK    1  A    between atoms: C_1  and  O_16
REMARK    2  A    between atoms: C_2  and  O_7
REMARK    3  A    between atoms: C_3  and  C_9
REMARK    4  A    between atoms: C_10  and  C_11
REMARK    5  A    between atoms: C_11  and  O_12
REMARK    6  A    between atoms: O_12  and  C_14
REMARK    7  A    between atoms: O_16  and  C_18
REMARK    8  A    between atoms: C_18  and  C_19
REMARK    9  A    between atoms: C_19  and  C_21
REMARK                            x       y       z     vdW  Elec       q    Type
REMARK                         _______ _______ _______ _____ _____    ______ ____
ROOT
ATOM      1  C   UNL     1      35.956  14.738  21.537  0.00  0.00    +0.000 A 
ATOM      2  C   UNL     1      35.021  14.473  22.544  0.00  0.00    +0.000 A 
ATOM      3  C   UNL     1      34.608  12.317  21.512  0.00  0.00    +0.000 A 
ATOM      4  C   UNL     1      36.198  13.826  20.508  0.00  0.00    +0.000 A 
ATOM      5  C   UNL     1      34.353  13.246  22.520  0.00  0.00    +0.000 A 
ATOM      6  C   UNL     1      35.527  12.607  20.504  0.00  0.00    +0.000 A 
ENDROOT
BRANCH   2   7
ATOM      7  O   UNL     1      34.810  15.453  23.481  0.00  0.00    +0.000 OA
ATOM      8  C   UNL     1      33.860  15.155  24.466  0.00  0.00    +0.000 C 
ENDBRANCH   2   7
BRANCH   3   9
ATOM      9  C   UNL     1      33.920  11.068  21.507  0.00  0.00    +0.000 C 
ATOM     10  C   UNL     1      33.339  10.016  21.503  0.00  0.00    +0.000 C 
BRANCH  10  11
ATOM     11  C   UNL     1      32.595   8.677  21.500  0.00  0.00    +0.000 C 
BRANCH  11  12
ATOM     12  O   UNL     1      31.950   7.513  21.496  0.00  0.00    +0.000 OA
BRANCH  12  14
ATOM     13  O   UNL     1      31.489   6.797  23.674  0.00  0.00    +0.000 OA
ATOM     14  C   UNL     1      32.091   6.777  22.616  0.00  0.00    +0.000 C 
ATOM     15  C   UNL     1      33.176   5.756  22.550  0.00  0.00    +0.000 C 
ENDBRANCH  12  14
ENDBRANCH  11  12
ENDBRANCH  10  11
ENDBRANCH   3   9
BRANCH   1  16
ATOM     16  O   UNL     1      36.606  15.979  21.499  0.00  0.00    +0.000 OA
BRANCH  16  18
ATOM     17  O   UNL     1      34.988  17.087  20.249  0.00  0.00    +0.000 OA
ATOM     18  C   UNL     1      36.158  16.806  20.477  0.00  0.00    +0.000 C 
BRANCH  18  19
ATOM     19  C   UNL     1      37.299  17.303  19.668  0.00  0.00    +0.000 C 
ATOM     20  C   UNL     1      38.427  16.409  19.170  0.00  0.00    +0.000 C 
BRANCH  19  21
ATOM     21  C   UNL     1      37.355  18.680  19.328  0.00  0.00    +0.000 C 
ATOM     22  C   UNL     1      37.420  20.173  18.952  0.00  0.00    +0.000 C 
ENDBRANCH  19  21
ENDBRANCH  18  19
ENDBRANCH  16  18
ENDBRANCH   1  16
TORSDOF 9
ENDMDL
MODEL 6
REMARK VINA RESULT:      -5.1      1.641      2.825
REMARK  Name = 122180587_TripolinolateA.pdbqt.pdb
REMARK  9 active torsions:
REMARK  status: ('A' for Active; 'I' for Inactive)
REMARK    1  A    between atoms: C_1  and  O_16
REMARK    2  A    between atoms: C_2  and  O_7
REMARK    3  A    between atoms: C_3  and  C_9
REMARK    4  A    between atoms: C_10  and  C_11
REMARK    5  A    between atoms: C_11  and  O_12
REMARK    6  A    between atoms: O_12  and  C_14
REMARK    7  A    between atoms: O_16  and  C_18
REMARK    8  A    between atoms: C_18  and  C_19
REMARK    9  A    between atoms: C_19  and  C_21
REMARK                            x       y       z     vdW  Elec       q    Type
REMARK                         _______ _______ _______ _____ _____    ______ ____
ROOT
ATOM      1  C   UNL     1      40.835  -1.584  14.237  0.00  0.00    +0.000 A 
ATOM      2  C   UNL     1      41.204  -1.930  12.933  0.00  0.00    +0.000 A 
ATOM      3  C   UNL     1      42.200  -3.958  13.815  0.00  0.00    +0.000 A 
ATOM      4  C   UNL     1      41.166  -2.391  15.327  0.00  0.00    +0.000 A 
ATOM      5  C   UNL     1      41.888  -3.133  12.735  0.00  0.00    +0.000 A 
ATOM      6  C   UNL     1      41.843  -3.587  15.110  0.00  0.00    +0.000 A 
ENDROOT
BRANCH   2   7
ATOM      7  O   UNL     1      40.884  -1.047  11.933  0.00  0.00    +0.000 OA
ATOM      8  C   UNL     1      41.876  -0.839  10.966  0.00  0.00    +0.000 C 
ENDBRANCH   2   7
BRANCH   3   9
ATOM      9  C   UNL     1      42.894  -5.185  13.593  0.00  0.00    +0.000 C 
ATOM     10  C   UNL     1      43.479  -6.216  13.405  0.00  0.00    +0.000 C 
BRANCH  10  11
ATOM     11  C   UNL     1      44.227  -7.531  13.162  0.00  0.00    +0.000 C 
BRANCH  11  12
ATOM     12  O   UNL     1      44.879  -8.672  12.950  0.00  0.00    +0.000 OA
BRANCH  12  14
ATOM     13  O   UNL     1      46.874  -7.815  12.084  0.00  0.00    +0.000 OA
ATOM     14  C   UNL     1      46.211  -8.549  12.793  0.00  0.00    +0.000 C 
ATOM     15  C   UNL     1      47.019  -9.476  13.637  0.00  0.00    +0.000 C 
ENDBRANCH  12  14
ENDBRANCH  11  12
ENDBRANCH  10  11
ENDBRANCH   3   9
BRANCH   1  16
ATOM     16  O   UNL     1      40.195  -0.361  14.479  0.00  0.00    +0.000 OA
BRANCH  16  18
ATOM     17  O   UNL     1      42.173   0.666  15.142  0.00  0.00    +0.000 OA
ATOM     18  C   UNL     1      40.960   0.524  15.229  0.00  0.00    +0.000 C 
BRANCH  18  19
ATOM     19  C   UNL     1      40.106   1.278  16.180  0.00  0.00    +0.000 C 
ATOM     20  C   UNL     1      40.002   2.797  16.191  0.00  0.00    +0.000 C 
BRANCH  19  21
ATOM     21  C   UNL     1      39.336   0.560  17.133  0.00  0.00    +0.000 C 
ATOM     22  C   UNL     1      38.502  -0.225  18.163  0.00  0.00    +0.000 C 
ENDBRANCH  19  21
ENDBRANCH  18  19
ENDBRANCH  16  18
ENDBRANCH   1  16
TORSDOF 9
ENDMDL
MODEL 7
REMARK VINA RESULT:      -4.9      3.816      9.665
REMARK  Name = 122180587_TripolinolateA.pdbqt.pdb
REMARK  9 active torsions:
REMARK  status: ('A' for Active; 'I' for Inactive)
REMARK    1  A    between atoms: C_1  and  O_16
REMARK    2  A    between atoms: C_2  and  O_7
REMARK    3  A    between atoms: C_3  and  C_9
REMARK    4  A    between atoms: C_10  and  C_11
REMARK    5  A    between atoms: C_11  and  O_12
REMARK    6  A    between atoms: O_12  and  C_14
REMARK    7  A    between atoms: O_16  and  C_18
REMARK    8  A    between atoms: C_18  and  C_19
REMARK    9  A    between atoms: C_19  and  C_21
REMARK                            x       y       z     vdW  Elec       q    Type
REMARK                         _______ _______ _______ _____ _____    ______ ____
ROOT
ATOM      1  C   UNL     1      42.169  -0.585  15.277  0.00  0.00    +0.000 A 
ATOM      2  C   UNL     1      41.189   0.397  15.101  0.00  0.00    +0.000 A 
ATOM      3  C   UNL     1      41.117   0.674  17.510  0.00  0.00    +0.000 A 
ATOM      4  C   UNL     1      42.602  -0.965  16.549  0.00  0.00    +0.000 A 
ATOM      5  C   UNL     1      40.672   1.027  16.237  0.00  0.00    +0.000 A 
ATOM      6  C   UNL     1      42.078  -0.323  17.667  0.00  0.00    +0.000 A 
ENDROOT
BRANCH   2   7
ATOM      7  O   UNL     1      40.786   0.663  13.817  0.00  0.00    +0.000 OA
ATOM      8  C   UNL     1      39.500   0.223  13.481  0.00  0.00    +0.000 C 
ENDBRANCH   2   7
BRANCH   3   9
ATOM      9  C   UNL     1      40.581   1.331  18.657  0.00  0.00    +0.000 C 
ATOM     10  C   UNL     1      40.132   1.885  19.623  0.00  0.00    +0.000 C 
BRANCH  10  11
ATOM     11  C   UNL     1      39.562   2.592  20.857  0.00  0.00    +0.000 C 
BRANCH  11  12
ATOM     12  O   UNL     1      39.068   3.206  21.930  0.00  0.00    +0.000 OA
BRANCH  12  14
ATOM     13  O   UNL     1      38.664   5.210  20.795  0.00  0.00    +0.000 OA
ATOM     14  C   UNL     1      38.498   4.404  21.692  0.00  0.00    +0.000 C 
ATOM     15  C   UNL     1      37.484   4.816  22.705  0.00  0.00    +0.000 C 
ENDBRANCH  12  14
ENDBRANCH  11  12
ENDBRANCH  10  11
ENDBRANCH   3   9
BRANCH   1  16
ATOM     16  O   UNL     1      42.672  -1.274  14.165  0.00  0.00    +0.000 OA
BRANCH  16  18
ATOM     17  O   UNL     1      41.099  -2.986  14.081  0.00  0.00    +0.000 OA
ATOM     18  C   UNL     1      42.262  -2.600  14.105  0.00  0.00    +0.000 C 
BRANCH  18  19
ATOM     19  C   UNL     1      43.434  -3.511  14.089  0.00  0.00    +0.000 C 
ATOM     20  C   UNL     1      44.793  -3.137  14.665  0.00  0.00    +0.000 C 
BRANCH  19  21
ATOM     21  C   UNL     1      43.295  -4.803  13.518  0.00  0.00    +0.000 C 
ATOM     22  C   UNL     1      43.145  -6.201  12.890  0.00  0.00    +0.000 C 
ENDBRANCH  19  21
ENDBRANCH  18  19
ENDBRANCH  16  18
ENDBRANCH   1  16
TORSDOF 9
ENDMDL
MODEL 8
REMARK VINA RESULT:      -4.7      2.053      9.020
REMARK  Name = 122180587_TripolinolateA.pdbqt.pdb
REMARK  9 active torsions:
REMARK  status: ('A' for Active; 'I' for Inactive)
REMARK    1  A    between atoms: C_1  and  O_16
REMARK    2  A    between atoms: C_2  and  O_7
REMARK    3  A    between atoms: C_3  and  C_9
REMARK    4  A    between atoms: C_10  and  C_11
REMARK    5  A    between atoms: C_11  and  O_12
REMARK    6  A    between atoms: O_12  and  C_14
REMARK    7  A    between atoms: O_16  and  C_18
REMARK    8  A    between atoms: C_18  and  C_19
REMARK    9  A    between atoms: C_19  and  C_21
REMARK                            x       y       z     vdW  Elec       q    Type
REMARK                         _______ _______ _______ _____ _____    ______ ____
ROOT
ATOM      1  C   UNL     1      43.829  -6.493  13.761  0.00  0.00    +0.000 A 
ATOM      2  C   UNL     1      43.805  -5.599  14.837  0.00  0.00    +0.000 A 
ATOM      3  C   UNL     1      42.484  -4.087  13.476  0.00  0.00    +0.000 A 
ATOM      4  C   UNL     1      43.220  -6.185  12.543  0.00  0.00    +0.000 A 
ATOM      5  C   UNL     1      43.118  -4.393  14.680  0.00  0.00    +0.000 A 
ATOM      6  C   UNL     1      42.537  -4.980  12.407  0.00  0.00    +0.000 A 
ENDROOT
BRANCH   2   7
ATOM      7  O   UNL     1      44.479  -5.965  15.975  0.00  0.00    +0.000 OA
ATOM      8  C   UNL     1      44.322  -5.111  17.074  0.00  0.00    +0.000 C 
ENDBRANCH   2   7
BRANCH   3   9
ATOM      9  C   UNL     1      41.783  -2.853  13.336  0.00  0.00    +0.000 C 
ATOM     10  C   UNL     1      41.194  -1.813  13.220  0.00  0.00    +0.000 C 
BRANCH  10  11
ATOM     11  C   UNL     1      40.440  -0.487  13.076  0.00  0.00    +0.000 C 
BRANCH  11  12
ATOM     12  O   UNL     1      39.783   0.664  12.949  0.00  0.00    +0.000 OA
BRANCH  12  14
ATOM     13  O   UNL     1      39.390   2.541  14.287  0.00  0.00    +0.000 OA
ATOM     14  C   UNL     1      39.633   1.365  14.090  0.00  0.00    +0.000 C 
ATOM     15  C   UNL     1      39.790   0.557  15.335  0.00  0.00    +0.000 C 
ENDBRANCH  12  14
ENDBRANCH  11  12
ENDBRANCH  10  11
ENDBRANCH   3   9
BRANCH   1  16
ATOM     16  O   UNL     1      44.552  -7.690  13.865  0.00  0.00    +0.000 OA
BRANCH  16  18
ATOM     17  O   UNL     1      46.578  -6.839  13.104  0.00  0.00    +0.000 OA
ATOM     18  C   UNL     1      45.710  -7.703  13.098  0.00  0.00    +0.000 C 
BRANCH  18  19
ATOM     19  C   UNL     1      45.756  -8.913  12.240  0.00  0.00    +0.000 C 
ATOM     20  C   UNL     1      44.805 -10.091  12.401  0.00  0.00    +0.000 C 
BRANCH  19  21
ATOM     21  C   UNL     1      46.728  -8.990  11.208  0.00  0.00    +0.000 C 
ATOM     22  C   UNL     1      47.776  -9.075  10.083  0.00  0.00    +0.000 C 
ENDBRANCH  19  21
ENDBRANCH  18  19
ENDBRANCH  16  18
ENDBRANCH   1  16
TORSDOF 9
ENDMDL
MODEL 9
REMARK VINA RESULT:      -4.7      1.571      2.306
REMARK  Name = 122180587_TripolinolateA.pdbqt.pdb
REMARK  9 active torsions:
REMARK  status: ('A' for Active; 'I' for Inactive)
REMARK    1  A    between atoms: C_1  and  O_16
REMARK    2  A    between atoms: C_2  and  O_7
REMARK    3  A    between atoms: C_3  and  C_9
REMARK    4  A    between atoms: C_10  and  C_11
REMARK    5  A    between atoms: C_11  and  O_12
REMARK    6  A    between atoms: O_12  and  C_14
REMARK    7  A    between atoms: O_16  and  C_18
REMARK    8  A    between atoms: C_18  and  C_19
REMARK    9  A    between atoms: C_19  and  C_21
REMARK                            x       y       z     vdW  Elec       q    Type
REMARK                         _______ _______ _______ _____ _____    ______ ____
ROOT
ATOM      1  C   UNL     1      41.176  -2.116  14.164  0.00  0.00    +0.000 A 
ATOM      2  C   UNL     1      41.365  -2.538  12.844  0.00  0.00    +0.000 A 
ATOM      3  C   UNL     1      42.726  -4.362  13.683  0.00  0.00    +0.000 A 
ATOM      4  C   UNL     1      41.775  -2.781  15.235  0.00  0.00    +0.000 A 
ATOM      5  C   UNL     1      42.144  -3.675  12.617  0.00  0.00    +0.000 A 
ATOM      6  C   UNL     1      42.545  -3.915  14.990  0.00  0.00    +0.000 A 
ENDROOT
BRANCH   2   7
ATOM      7  O   UNL     1      40.782  -1.788  11.854  0.00  0.00    +0.000 OA
ATOM      8  C   UNL     1      41.653  -0.977  11.115  0.00  0.00    +0.000 C 
ENDBRANCH   2   7
BRANCH   3   9
ATOM      9  C   UNL     1      43.514  -5.524  13.432  0.00  0.00    +0.000 C 
ATOM     10  C   UNL     1      44.178  -6.502  13.220  0.00  0.00    +0.000 C 
BRANCH  10  11
ATOM     11  C   UNL     1      45.025  -7.749  12.944  0.00  0.00    +0.000 C 
BRANCH  11  12
ATOM     12  O   UNL     1      45.759  -8.833  12.704  0.00  0.00    +0.000 OA
BRANCH  12  14
ATOM     13  O   UNL     1      44.809 -10.573  13.944  0.00  0.00    +0.000 OA
ATOM     14  C   UNL     1      45.131 -10.006  12.916  0.00  0.00    +0.000 C 
ATOM     15  C   UNL     1      44.766 -10.744  11.671  0.00  0.00    +0.000 C 
ENDBRANCH  12  14
ENDBRANCH  11  12
ENDBRANCH  10  11
ENDBRANCH   3   9
BRANCH   1  16
ATOM     16  O   UNL     1      40.444  -0.950  14.426  0.00  0.00    +0.000 OA
BRANCH  16  18
ATOM     17  O   UNL     1      38.473  -1.995  15.083  0.00  0.00    +0.000 OA
ATOM     18  C   UNL     1      39.351  -1.159  15.258  0.00  0.00    +0.000 C 
BRANCH  18  19
ATOM     19  C   UNL     1      39.375  -0.212  16.400  0.00  0.00    +0.000 C 
ATOM     20  C   UNL     1      39.257  -0.649  17.854  0.00  0.00    +0.000 C 
BRANCH  19  21
ATOM     21  C   UNL     1      39.519   1.176  16.142  0.00  0.00    +0.000 C 
ATOM     22  C   UNL     1      39.684   2.681  15.859  0.00  0.00    +0.000 C 
ENDBRANCH  19  21
ENDBRANCH  18  19
ENDBRANCH  16  18
ENDBRANCH   1  16
TORSDOF 9
ENDMDL
