MODEL 1
REMARK VINA RESULT:      -6.5      0.000      0.000
REMARK  Name = 135403648_CalciumFolinate.pdbqt.pdb
REMARK  10 active torsions:
REMARK  status: ('A' for Active; 'I' for Inactive)
REMARK    1  A    between atoms: N_1  and  C_3
REMARK    2  A    between atoms: N_1  and  C_24
REMARK    3  A    between atoms: C_6  and  C_11
REMARK    4  A    between atoms: CA_13  and  C_15
REMARK    5  A    between atoms: CA_13  and  CB_18
REMARK    6  A    between atoms: C_15  and  O_16
REMARK    7  A    between atoms: CG_19  and  CD_21
REMARK    8  A    between atoms: CD_21  and  OE1_22
REMARK    9  A    between atoms: C_24  and  C_32
REMARK   10  A    between atoms: N_27  and  C_37
REMARK                            x       y       z     vdW  Elec       q    Type
REMARK                         _______ _______ _______ _____ _____    ______ ____
ROOT
ATOM      1  N   UNL     1      45.246  -4.156  14.319  0.00  0.00    +0.000 N 
ATOM      2  H   UNL     1      46.117  -4.134  14.849  0.00  0.00    +0.000 HD
ENDROOT
BRANCH   1   3
ATOM      3  C   UNL     1      44.748  -5.467  14.167  0.00  0.00    +0.000 A 
ATOM      4  C   UNL     1      45.568  -6.445  13.595  0.00  0.00    +0.000 A 
ATOM      5  C   UNL     1      43.405  -5.786  14.401  0.00  0.00    +0.000 A 
ATOM      6  C   UNL     1      43.756  -8.042  13.611  0.00  0.00    +0.000 A 
ATOM      7  C   UNL     1      45.084  -7.726  13.333  0.00  0.00    +0.000 A 
ATOM      8  C   UNL     1      42.914  -7.064  14.143  0.00  0.00    +0.000 A 
BRANCH   6  11
ATOM      9  O   UNL     1      43.966 -10.302  13.063  0.00  0.00    +0.000 OA
ATOM     10  N   UNL     1      41.825  -9.515  13.463  0.00  0.00    +0.000 N 
ATOM     11  C   ACE A   0      43.197  -9.393  13.354  0.00  0.00    +0.000 C 
ATOM     12  H   UNL     1      41.268  -8.698  13.705  0.00  0.00    +0.000 HD
ATOM     13  CA  UNL     1      41.071 -10.659  13.271  0.00  0.00    +0.000 C 
BRANCH  13  15
ATOM     14  OXT UNL     1      38.784 -11.324  13.067  0.00  0.00    +0.000 OA
ATOM     15  C   UNL     1      39.607 -10.505  13.450  0.00  0.00    +0.000 C 
BRANCH  15  16
ATOM     16  O   UNL     1      39.245  -9.376  14.078  0.00  0.00    +0.000 OA
ATOM     17  H   UNL     1      40.037  -9.107  14.588  0.00  0.00    +0.000 HD
ENDBRANCH  15  16
ENDBRANCH  13  15
BRANCH  13  18
ATOM     18  CB  UNL     1      41.659 -11.905  12.925  0.00  0.00    +0.000 C 
ATOM     19  CG  UNL     1      42.293 -13.246  12.541  0.00  0.00    +0.000 C 
BRANCH  19  21
ATOM     20  OE2 UNL     1      43.342 -15.291  12.963  0.00  0.00    +0.000 OA
ATOM     21  CD  UNL     1      42.887 -14.492  12.164  0.00  0.00    +0.000 C 
BRANCH  21  22
ATOM     22  OE1 UNL     1      42.922 -14.704  10.836  0.00  0.00    +0.000 OA
ATOM     23  HE1 UNL     1      43.778 -14.313  10.567  0.00  0.00    +0.000 HD
ENDBRANCH  21  22
ENDBRANCH  19  21
ENDBRANCH  13  18
ENDBRANCH   6  11
ENDBRANCH   1   3
BRANCH   1  24
ATOM     24  C   UNL     1      44.304  -3.078  14.598  0.00  0.00    +0.000 C 
BRANCH  24  31
ATOM     25  O   UNL     1      40.439  -0.373  12.270  0.00  0.00    +0.000 OA
ATOM     26  N   UNL     1      42.426  -1.588  14.009  0.00  0.00    +0.000 N 
ATOM     27  N   UNL     1      42.604  -0.201  16.570  0.00  0.00    +0.000 N 
ATOM     28  N   UNL     1      40.990   1.354  15.837  0.00  0.00    +0.000 NA
ATOM     29  N   UNL     1      39.880   1.139  13.819  0.00  0.00    +0.000 N 
ATOM     30  N   UNL     1      39.361   2.864  15.252  0.00  0.00    +0.000 N 
ATOM     31  C   UNL     1      43.426  -1.999  14.883  0.00  0.00    +0.000 C 
ATOM     32  C   UNL     1      43.441  -1.245  16.067  0.00  0.00    +0.000 C 
ATOM     33  C   UNL     1      41.627  -0.466  14.366  0.00  0.00    +0.000 A 
ATOM     34  C   UNL     1      41.721   0.219  15.558  0.00  0.00    +0.000 A 
ATOM     35  C   UNL     1      40.617   0.075  13.398  0.00  0.00    +0.000 A 
ATOM     36  C   UNL     1      40.109   1.767  14.992  0.00  0.00    +0.000 A 
ATOM     37  H   UNL     1      42.967   0.596  17.083  0.00  0.00    +0.000 HD
ATOM     38  H   UNL     1      39.238   1.526  13.146  0.00  0.00    +0.000 HD
ATOM     39  H   UNL     1      39.434   3.157  16.223  0.00  0.00    +0.000 HD
ATOM     40  H   UNL     1      38.406   2.856  14.920  0.00  0.00    +0.000 HD
BRANCH  26  42
ATOM     41  O   UNL     1      42.212  -2.849  11.832  0.00  0.00    +0.000 OA
ATOM     42  C   UNL     1      42.277  -2.245  12.838  0.00  0.00    +0.000 C 
ENDBRANCH  26  42
ENDBRANCH  24  31
ENDBRANCH   1  24
TORSDOF 10
ENDMDL
MODEL 2
REMARK VINA RESULT:      -6.2     13.442     15.224
REMARK  Name = 135403648_CalciumFolinate.pdbqt.pdb
REMARK  10 active torsions:
REMARK  status: ('A' for Active; 'I' for Inactive)
REMARK    1  A    between atoms: N_1  and  C_3
REMARK    2  A    between atoms: N_1  and  C_24
REMARK    3  A    between atoms: C_6  and  C_11
REMARK    4  A    between atoms: CA_13  and  C_15
REMARK    5  A    between atoms: CA_13  and  CB_18
REMARK    6  A    between atoms: C_15  and  O_16
REMARK    7  A    between atoms: CG_19  and  CD_21
REMARK    8  A    between atoms: CD_21  and  OE1_22
REMARK    9  A    between atoms: C_24  and  C_32
REMARK   10  A    between atoms: N_27  and  C_37
REMARK                            x       y       z     vdW  Elec       q    Type
REMARK                         _______ _______ _______ _____ _____    ______ ____
ROOT
ATOM      1  N   UNL     1      27.712   0.737  17.292  0.00  0.00    +0.000 N 
ATOM      2  H   UNL     1      26.954   1.408  17.169  0.00  0.00    +0.000 HD
ENDROOT
BRANCH   1   3
ATOM      3  C   UNL     1      28.089   0.131  16.075  0.00  0.00    +0.000 A 
ATOM      4  C   UNL     1      28.314   0.936  14.954  0.00  0.00    +0.000 A 
ATOM      5  C   UNL     1      28.073  -1.257  15.897  0.00  0.00    +0.000 A 
ATOM      6  C   UNL     1      28.613  -1.010  13.556  0.00  0.00    +0.000 A 
ATOM      7  C   UNL     1      28.590   0.374  13.708  0.00  0.00    +0.000 A 
ATOM      8  C   UNL     1      28.348  -1.827  14.656  0.00  0.00    +0.000 A 
BRANCH   6  11
ATOM      9  O   UNL     1      29.052  -2.871  12.216  0.00  0.00    +0.000 OA
ATOM     10  N   UNL     1      28.993  -0.810  11.160  0.00  0.00    +0.000 N 
ATOM     11  C   ACE A   0      28.906  -1.654  12.251  0.00  0.00    +0.000 C 
ATOM     12  H   UNL     1      28.860   0.190  11.291  0.00  0.00    +0.000 HD
ATOM     13  CA  UNL     1      29.256  -1.164   9.849  0.00  0.00    +0.000 C 
BRANCH  13  15
ATOM     14  OXT UNL     1      29.417  -0.201   7.668  0.00  0.00    +0.000 OA
ATOM     15  C   UNL     1      29.296  -0.047   8.874  0.00  0.00    +0.000 C 
BRANCH  15  16
ATOM     16  O   UNL     1      29.186   1.170   9.427  0.00  0.00    +0.000 OA
ATOM     17  H   UNL     1      28.386   1.561   9.017  0.00  0.00    +0.000 HD
ENDBRANCH  15  16
ENDBRANCH  13  15
BRANCH  13  18
ATOM     18  CB  UNL     1      29.473  -2.512   9.457  0.00  0.00    +0.000 C 
ATOM     19  CG  UNL     1      29.695  -3.968   9.035  0.00  0.00    +0.000 C 
BRANCH  19  21
ATOM     20  OE2 UNL     1      30.959  -5.791   8.298  0.00  0.00    +0.000 OA
ATOM     21  CD  UNL     1      29.884  -5.331   8.640  0.00  0.00    +0.000 C 
BRANCH  21  22
ATOM     22  OE1 UNL     1      28.758  -6.068   8.656  0.00  0.00    +0.000 OA
ATOM     23  HE1 UNL     1      29.080  -6.967   8.869  0.00  0.00    +0.000 HD
ENDBRANCH  21  22
ENDBRANCH  19  21
ENDBRANCH  13  18
ENDBRANCH   6  11
ENDBRANCH   1   3
BRANCH   1  24
ATOM     24  C   UNL     1      28.755   1.120  18.235  0.00  0.00    +0.000 C 
BRANCH  24  31
ATOM     25  O   UNL     1      30.102   5.118  21.378  0.00  0.00    +0.000 OA
ATOM     26  N   UNL     1      29.784   2.648  19.879  0.00  0.00    +0.000 N 
ATOM     27  N   UNL     1      32.069   0.871  20.238  0.00  0.00    +0.000 N 
ATOM     28  N   UNL     1      33.117   2.494  21.590  0.00  0.00    +0.000 NA
ATOM     29  N   UNL     1      32.065   4.455  22.221  0.00  0.00    +0.000 N 
ATOM     30  N   UNL     1      34.179   3.972  22.992  0.00  0.00    +0.000 N 
ATOM     31  C   UNL     1      29.807   1.485  19.117  0.00  0.00    +0.000 C 
ATOM     32  C   UNL     1      30.964   0.722  19.345  0.00  0.00    +0.000 C 
ATOM     33  C   UNL     1      30.907   2.948  20.699  0.00  0.00    +0.000 A 
ATOM     34  C   UNL     1      32.008   2.134  20.854  0.00  0.00    +0.000 A 
ATOM     35  C   UNL     1      30.966   4.249  21.445  0.00  0.00    +0.000 A 
ATOM     36  C   UNL     1      33.114   3.605  22.242  0.00  0.00    +0.000 A 
ATOM     37  H   UNL     1      33.024   0.646  19.974  0.00  0.00    +0.000 HD
ATOM     38  H   UNL     1      32.119   5.350  22.681  0.00  0.00    +0.000 HD
ATOM     39  H   UNL     1      34.832   3.205  23.130  0.00  0.00    +0.000 HD
ATOM     40  H   UNL     1      33.986   4.476  23.847  0.00  0.00    +0.000 HD
BRANCH  26  42
ATOM     41  O   UNL     1      27.740   4.120  19.701  0.00  0.00    +0.000 OA
ATOM     42  C   UNL     1      28.714   3.466  19.781  0.00  0.00    +0.000 C 
ENDBRANCH  26  42
ENDBRANCH  24  31
ENDBRANCH   1  24
TORSDOF 10
ENDMDL
MODEL 3
REMARK VINA RESULT:      -5.9     18.224     23.095
REMARK  Name = 135403648_CalciumFolinate.pdbqt.pdb
REMARK  10 active torsions:
REMARK  status: ('A' for Active; 'I' for Inactive)
REMARK    1  A    between atoms: N_1  and  C_3
REMARK    2  A    between atoms: N_1  and  C_24
REMARK    3  A    between atoms: C_6  and  C_11
REMARK    4  A    between atoms: CA_13  and  C_15
REMARK    5  A    between atoms: CA_13  and  CB_18
REMARK    6  A    between atoms: C_15  and  O_16
REMARK    7  A    between atoms: CG_19  and  CD_21
REMARK    8  A    between atoms: CD_21  and  OE1_22
REMARK    9  A    between atoms: C_24  and  C_32
REMARK   10  A    between atoms: N_27  and  C_37
REMARK                            x       y       z     vdW  Elec       q    Type
REMARK                         _______ _______ _______ _____ _____    ______ ____
ROOT
ATOM      1  N   UNL     1      33.912   8.161  22.354  0.00  0.00    +0.000 N 
ATOM      2  H   UNL     1      34.415   7.551  21.711  0.00  0.00    +0.000 HD
ENDROOT
BRANCH   1   3
ATOM      3  C   UNL     1      34.300   9.511  22.222  0.00  0.00    +0.000 A 
ATOM      4  C   UNL     1      33.471  10.392  21.520  0.00  0.00    +0.000 A 
ATOM      5  C   UNL     1      35.566   9.964  22.610  0.00  0.00    +0.000 A 
ATOM      6  C   UNL     1      35.108  12.157  21.709  0.00  0.00    +0.000 A 
ATOM      7  C   UNL     1      33.863  11.708  21.279  0.00  0.00    +0.000 A 
ATOM      8  C   UNL     1      35.964  11.278  22.374  0.00  0.00    +0.000 A 
BRANCH   6  11
ATOM      9  O   UNL     1      36.410  13.756  20.613  0.00  0.00    +0.000 OA
ATOM     10  N   UNL     1      34.993  14.520  22.279  0.00  0.00    +0.000 N 
ATOM     11  C   ACE A   0      35.567  13.550  21.479  0.00  0.00    +0.000 C 
ATOM     12  H   UNL     1      34.303  14.250  22.976  0.00  0.00    +0.000 HD
ATOM     13  CA  UNL     1      35.253  15.879  22.260  0.00  0.00    +0.000 C 
BRANCH  13  15
ATOM     14  OXT UNL     1      34.869  16.913  24.380  0.00  0.00    +0.000 OA
ATOM     15  C   UNL     1      34.494  16.696  23.237  0.00  0.00    +0.000 C 
BRANCH  15  16
ATOM     16  O   UNL     1      33.340  17.190  22.763  0.00  0.00    +0.000 OA
ATOM     17  H   UNL     1      32.781  17.328  23.556  0.00  0.00    +0.000 HD
ENDBRANCH  15  16
ENDBRANCH  13  15
BRANCH  13  18
ATOM     18  CB  UNL     1      36.187  16.459  21.361  0.00  0.00    +0.000 C 
ATOM     19  CG  UNL     1      37.193  17.077  20.382  0.00  0.00    +0.000 C 
BRANCH  19  21
ATOM     20  OE2 UNL     1      37.993  18.738  18.947  0.00  0.00    +0.000 OA
ATOM     21  CD  UNL     1      38.127  17.640  19.456  0.00  0.00    +0.000 C 
BRANCH  21  22
ATOM     22  OE1 UNL     1      39.170  16.839  19.174  0.00  0.00    +0.000 OA
ATOM     23  HE1 UNL     1      39.946  17.413  19.334  0.00  0.00    +0.000 HD
ENDBRANCH  21  22
ENDBRANCH  19  21
ENDBRANCH  13  18
ENDBRANCH   6  11
ENDBRANCH   1   3
BRANCH   1  24
ATOM     24  C   UNL     1      32.499   7.855  22.547  0.00  0.00    +0.000 C 
BRANCH  24  31
ATOM     25  O   UNL     1      29.144   3.862  21.859  0.00  0.00    +0.000 OA
ATOM     26  N   UNL     1      30.567   6.319  22.479  0.00  0.00    +0.000 N 
ATOM     27  N   UNL     1      28.747   8.422  23.359  0.00  0.00    +0.000 N 
ATOM     28  N   UNL     1      26.915   6.978  23.015  0.00  0.00    +0.000 NA
ATOM     29  N   UNL     1      27.176   4.755  22.430  0.00  0.00    +0.000 N 
ATOM     30  N   UNL     1      25.075   5.621  22.797  0.00  0.00    +0.000 N 
ATOM     31  C   UNL     1      31.113   7.581  22.691  0.00  0.00    +0.000 C 
ATOM     32  C   UNL     1      30.145   8.521  23.079  0.00  0.00    +0.000 C 
ATOM     33  C   UNL     1      29.160   6.155  22.603  0.00  0.00    +0.000 A 
ATOM     34  C   UNL     1      28.283   7.147  22.986  0.00  0.00    +0.000 A 
ATOM     35  C   UNL     1      28.525   4.837  22.271  0.00  0.00    +0.000 A 
ATOM     36  C   UNL     1      26.413   5.821  22.754  0.00  0.00    +0.000 A 
ATOM     37  H   UNL     1      28.081   9.140  23.089  0.00  0.00    +0.000 HD
ATOM     38  H   UNL     1      26.751   3.882  22.161  0.00  0.00    +0.000 HD
ATOM     39  H   UNL     1      24.587   6.393  23.245  0.00  0.00    +0.000 HD
ATOM     40  H   UNL     1      24.757   4.719  23.126  0.00  0.00    +0.000 HD
BRANCH  26  42
ATOM     41  O   UNL     1      32.102   4.450  21.752  0.00  0.00    +0.000 OA
ATOM     42  C   UNL     1      31.390   5.307  22.127  0.00  0.00    +0.000 C 
ENDBRANCH  26  42
ENDBRANCH  24  31
ENDBRANCH   1  24
TORSDOF 10
ENDMDL
MODEL 4
REMARK VINA RESULT:      -5.9     13.036     15.047
REMARK  Name = 135403648_CalciumFolinate.pdbqt.pdb
REMARK  10 active torsions:
REMARK  status: ('A' for Active; 'I' for Inactive)
REMARK    1  A    between atoms: N_1  and  C_3
REMARK    2  A    between atoms: N_1  and  C_24
REMARK    3  A    between atoms: C_6  and  C_11
REMARK    4  A    between atoms: CA_13  and  C_15
REMARK    5  A    between atoms: CA_13  and  CB_18
REMARK    6  A    between atoms: C_15  and  O_16
REMARK    7  A    between atoms: CG_19  and  CD_21
REMARK    8  A    between atoms: CD_21  and  OE1_22
REMARK    9  A    between atoms: C_24  and  C_32
REMARK   10  A    between atoms: N_27  and  C_37
REMARK                            x       y       z     vdW  Elec       q    Type
REMARK                         _______ _______ _______ _____ _____    ______ ____
ROOT
ATOM      1  N   UNL     1      27.256   1.407  17.063  0.00  0.00    +0.000 N 
ATOM      2  H   UNL     1      26.531   2.083  16.825  0.00  0.00    +0.000 HD
ENDROOT
BRANCH   1   3
ATOM      3  C   UNL     1      27.700   0.684  15.937  0.00  0.00    +0.000 A 
ATOM      4  C   UNL     1      28.304   1.372  14.880  0.00  0.00    +0.000 A 
ATOM      5  C   UNL     1      27.399  -0.671  15.755  0.00  0.00    +0.000 A 
ATOM      6  C   UNL     1      28.399  -0.646  13.557  0.00  0.00    +0.000 A 
ATOM      7  C   UNL     1      28.666   0.712  13.706  0.00  0.00    +0.000 A 
ATOM      8  C   UNL     1      27.758  -1.337  14.585  0.00  0.00    +0.000 A 
BRANCH   6  11
ATOM      9  O   UNL     1      28.945  -2.602  12.405  0.00  0.00    +0.000 OA
ATOM     10  N   UNL     1      28.890  -0.641  11.173  0.00  0.00    +0.000 N 
ATOM     11  C   ACE A   0      28.769  -1.392  12.327  0.00  0.00    +0.000 C 
ATOM     12  H   UNL     1      28.728   0.362  11.210  0.00  0.00    +0.000 HD
ATOM     13  CA  UNL     1      29.224  -1.100   9.911  0.00  0.00    +0.000 C 
BRANCH  13  15
ATOM     14  OXT UNL     1      29.008   1.108   9.021  0.00  0.00    +0.000 OA
ATOM     15  C   UNL     1      29.286  -0.070   8.846  0.00  0.00    +0.000 C 
BRANCH  15  16
ATOM     16  O   UNL     1      29.680  -0.536   7.651  0.00  0.00    +0.000 OA
ATOM     17  H   UNL     1      30.367  -1.204   7.856  0.00  0.00    +0.000 HD
ENDBRANCH  15  16
ENDBRANCH  13  15
BRANCH  13  18
ATOM     18  CB  UNL     1      29.491  -2.469   9.648  0.00  0.00    +0.000 C 
ATOM     19  CG  UNL     1      29.778  -3.946   9.352  0.00  0.00    +0.000 C 
BRANCH  19  21
ATOM     20  OE2 UNL     1      30.999  -5.695   8.398  0.00  0.00    +0.000 OA
ATOM     21  CD  UNL     1      30.046  -5.321   9.058  0.00  0.00    +0.000 C 
BRANCH  21  22
ATOM     22  OE1 UNL     1      29.136  -6.176   9.557  0.00  0.00    +0.000 OA
ATOM     23  HE1 UNL     1      29.103  -5.941  10.507  0.00  0.00    +0.000 HD
ENDBRANCH  21  22
ENDBRANCH  19  21
ENDBRANCH  13  18
ENDBRANCH   6  11
ENDBRANCH   1   3
BRANCH   1  24
ATOM     24  C   UNL     1      28.241   1.849  18.043  0.00  0.00    +0.000 C 
BRANCH  24  31
ATOM     25  O   UNL     1      33.049   0.402  19.613  0.00  0.00    +0.000 OA
ATOM     26  N   UNL     1      30.473   1.637  19.077  0.00  0.00    +0.000 N 
ATOM     27  N   UNL     1      29.928   3.829  20.923  0.00  0.00    +0.000 N 
ATOM     28  N   UNL     1      31.961   3.396  22.035  0.00  0.00    +0.000 NA
ATOM     29  N   UNL     1      33.487   1.832  21.275  0.00  0.00    +0.000 N 
ATOM     30  N   UNL     1      33.961   3.112  23.129  0.00  0.00    +0.000 N 
ATOM     31  C   UNL     1      29.218   2.231  19.001  0.00  0.00    +0.000 C 
ATOM     32  C   UNL     1      29.052   3.249  19.953  0.00  0.00    +0.000 C 
ATOM     33  C   UNL     1      31.366   2.058  20.102  0.00  0.00    +0.000 A 
ATOM     34  C   UNL     1      31.110   3.070  21.001  0.00  0.00    +0.000 A 
ATOM     35  C   UNL     1      32.681   1.361  20.284  0.00  0.00    +0.000 A 
ATOM     36  C   UNL     1      33.096   2.795  22.137  0.00  0.00    +0.000 A 
ATOM     37  H   UNL     1      29.616   4.106  21.849  0.00  0.00    +0.000 HD
ATOM     38  H   UNL     1      34.347   1.329  21.423  0.00  0.00    +0.000 HD
ATOM     39  H   UNL     1      33.701   3.973  23.603  0.00  0.00    +0.000 HD
ATOM     40  H   UNL     1      34.947   3.075  22.906  0.00  0.00    +0.000 HD
BRANCH  26  42
ATOM     41  O   UNL     1      31.107  -0.210  17.476  0.00  0.00    +0.000 OA
ATOM     42  C   UNL     1      30.781   0.657  18.199  0.00  0.00    +0.000 C 
ENDBRANCH  26  42
ENDBRANCH  24  31
ENDBRANCH   1  24
TORSDOF 10
ENDMDL
MODEL 5
REMARK VINA RESULT:      -5.6      9.372     10.790
REMARK  Name = 135403648_CalciumFolinate.pdbqt.pdb
REMARK  10 active torsions:
REMARK  status: ('A' for Active; 'I' for Inactive)
REMARK    1  A    between atoms: N_1  and  C_3
REMARK    2  A    between atoms: N_1  and  C_24
REMARK    3  A    between atoms: C_6  and  C_11
REMARK    4  A    between atoms: CA_13  and  C_15
REMARK    5  A    between atoms: CA_13  and  CB_18
REMARK    6  A    between atoms: C_15  and  O_16
REMARK    7  A    between atoms: CG_19  and  CD_21
REMARK    8  A    between atoms: CD_21  and  OE1_22
REMARK    9  A    between atoms: C_24  and  C_32
REMARK   10  A    between atoms: N_27  and  C_37
REMARK                            x       y       z     vdW  Elec       q    Type
REMARK                         _______ _______ _______ _____ _____    ______ ____
ROOT
ATOM      1  N   UNL     1      34.172 -10.929  10.989  0.00  0.00    +0.000 N 
ATOM      2  H   UNL     1      33.659 -11.804  11.086  0.00  0.00    +0.000 HD
ENDROOT
BRANCH   1   3
ATOM      3  C   UNL     1      35.440 -11.117  10.400  0.00  0.00    +0.000 A 
ATOM      4  C   UNL     1      36.541 -10.430  10.920  0.00  0.00    +0.000 A 
ATOM      5  C   UNL     1      35.609 -11.824   9.204  0.00  0.00    +0.000 A 
ATOM      6  C   UNL     1      37.954 -11.252   9.142  0.00  0.00    +0.000 A 
ATOM      7  C   UNL     1      37.792 -10.508  10.309  0.00  0.00    +0.000 A 
ATOM      8  C   UNL     1      36.855 -11.908   8.587  0.00  0.00    +0.000 A 
BRANCH   6  11
ATOM      9  O   UNL     1      40.274 -11.519   9.140  0.00  0.00    +0.000 OA
ATOM     10  N   UNL     1      39.243 -11.290   7.078  0.00  0.00    +0.000 N 
ATOM     11  C   ACE A   0      39.266 -11.367   8.458  0.00  0.00    +0.000 C 
ATOM     12  H   UNL     1      38.355 -11.157   6.601  0.00  0.00    +0.000 HD
ATOM     13  CA  UNL     1      40.325 -11.367   6.220  0.00  0.00    +0.000 C 
BRANCH  13  15
ATOM     14  OXT UNL     1      40.357 -12.066   3.934  0.00  0.00    +0.000 OA
ATOM     15  C   UNL     1      40.012 -11.249   4.775  0.00  0.00    +0.000 C 
BRANCH  15  16
ATOM     16  O   UNL     1      39.305 -10.155   4.453  0.00  0.00    +0.000 OA
ATOM     17  H   UNL     1      39.703  -9.836   3.616  0.00  0.00    +0.000 HD
ENDBRANCH  15  16
ENDBRANCH  13  15
BRANCH  13  18
ATOM     18  CB  UNL     1      41.653 -11.549   6.688  0.00  0.00    +0.000 C 
ATOM     19  CG  UNL     1      43.087 -11.756   7.187  0.00  0.00    +0.000 C 
BRANCH  19  21
ATOM     20  OE2 UNL     1      45.409 -11.841   6.930  0.00  0.00    +0.000 OA
ATOM     21  CD  UNL     1      44.428 -11.965   7.642  0.00  0.00    +0.000 C 
BRANCH  21  22
ATOM     22  OE1 UNL     1      44.518 -12.335   8.933  0.00  0.00    +0.000 OA
ATOM     23  HE1 UNL     1      45.483 -12.380   9.088  0.00  0.00    +0.000 HD
ENDBRANCH  21  22
ENDBRANCH  19  21
ENDBRANCH  13  18
ENDBRANCH   6  11
ENDBRANCH   1   3
BRANCH   1  24
ATOM     24  C   UNL     1      33.382  -9.769  10.592  0.00  0.00    +0.000 C 
BRANCH  24  31
ATOM     25  O   UNL     1      30.158  -6.222  12.761  0.00  0.00    +0.000 OA
ATOM     26  N   UNL     1      31.934  -7.842  11.126  0.00  0.00    +0.000 N 
ATOM     27  N   UNL     1      31.999  -6.910   8.363  0.00  0.00    +0.000 N 
ATOM     28  N   UNL     1      30.404  -5.254   8.886  0.00  0.00    +0.000 NA
ATOM     29  N   UNL     1      29.662  -4.878  11.045  0.00  0.00    +0.000 N 
ATOM     30  N   UNL     1      28.922  -3.552   9.314  0.00  0.00    +0.000 N 
ATOM     31  C   UNL     1      32.654  -8.609  10.216  0.00  0.00    +0.000 C 
ATOM     32  C   UNL     1      32.591  -8.088   8.914  0.00  0.00    +0.000 C 
ATOM     33  C   UNL     1      31.198  -6.724  10.644  0.00  0.00    +0.000 A 
ATOM     34  C   UNL     1      31.194  -6.290   9.336  0.00  0.00    +0.000 A 
ATOM     35  C   UNL     1      30.320  -5.944  11.577  0.00  0.00    +0.000 A 
ATOM     36  C   UNL     1      29.688  -4.589   9.726  0.00  0.00    +0.000 A 
ATOM     37  H   UNL     1      31.540  -6.898   7.457  0.00  0.00    +0.000 HD
ATOM     38  H   UNL     1      29.038  -4.388  11.665  0.00  0.00    +0.000 HD
ATOM     39  H   UNL     1      29.148  -3.261   8.367  0.00  0.00    +0.000 HD
ATOM     40  H   UNL     1      28.831  -2.769   9.949  0.00  0.00    +0.000 HD
BRANCH  26  42
ATOM     41  O   UNL     1      31.955  -8.596  13.536  0.00  0.00    +0.000 OA
ATOM     42  C   UNL     1      31.929  -8.212  12.425  0.00  0.00    +0.000 C 
ENDBRANCH  26  42
ENDBRANCH  24  31
ENDBRANCH   1  24
TORSDOF 10
ENDMDL
MODEL 6
REMARK VINA RESULT:      -5.6     13.321     16.535
REMARK  Name = 135403648_CalciumFolinate.pdbqt.pdb
REMARK  10 active torsions:
REMARK  status: ('A' for Active; 'I' for Inactive)
REMARK    1  A    between atoms: N_1  and  C_3
REMARK    2  A    between atoms: N_1  and  C_24
REMARK    3  A    between atoms: C_6  and  C_11
REMARK    4  A    between atoms: CA_13  and  C_15
REMARK    5  A    between atoms: CA_13  and  CB_18
REMARK    6  A    between atoms: C_15  and  O_16
REMARK    7  A    between atoms: CG_19  and  CD_21
REMARK    8  A    between atoms: CD_21  and  OE1_22
REMARK    9  A    between atoms: C_24  and  C_32
REMARK   10  A    between atoms: N_27  and  C_37
REMARK                            x       y       z     vdW  Elec       q    Type
REMARK                         _______ _______ _______ _____ _____    ______ ____
ROOT
ATOM      1  N   UNL     1      33.050   4.225  23.190  0.00  0.00    +0.000 N 
ATOM      2  H   UNL     1      32.579   4.048  24.077  0.00  0.00    +0.000 HD
ENDROOT
BRANCH   1   3
ATOM      3  C   UNL     1      32.409   3.582  22.110  0.00  0.00    +0.000 A 
ATOM      4  C   UNL     1      31.164   4.053  21.679  0.00  0.00    +0.000 A 
ATOM      5  C   UNL     1      32.884   2.382  21.569  0.00  0.00    +0.000 A 
ATOM      6  C   UNL     1      30.956   2.217  20.123  0.00  0.00    +0.000 A 
ATOM      7  C   UNL     1      30.450   3.387  20.684  0.00  0.00    +0.000 A 
ATOM      8  C   UNL     1      32.176   1.712  20.573  0.00  0.00    +0.000 A 
BRANCH   6  11
ATOM      9  O   UNL     1      29.047   1.722  18.874  0.00  0.00    +0.000 OA
ATOM     10  N   UNL     1      30.976   0.551  18.350  0.00  0.00    +0.000 N 
ATOM     11  C   ACE A   0      30.234   1.477  19.059  0.00  0.00    +0.000 C 
ATOM     12  H   UNL     1      31.957   0.415  18.581  0.00  0.00    +0.000 HD
ATOM     13  CA  UNL     1      30.534  -0.260  17.319  0.00  0.00    +0.000 C 
BRANCH  13  15
ATOM     14  OXT UNL     1      32.346  -1.817  17.399  0.00  0.00    +0.000 OA
ATOM     15  C   UNL     1      31.548  -1.171  16.735  0.00  0.00    +0.000 C 
BRANCH  15  16
ATOM     16  O   UNL     1      31.523  -1.235  15.395  0.00  0.00    +0.000 OA
ATOM     17  H   UNL     1      32.335  -0.770  15.106  0.00  0.00    +0.000 HD
ENDBRANCH  15  16
ENDBRANCH  13  15
BRANCH  13  18
ATOM     18  CB  UNL     1      29.195  -0.224  16.847  0.00  0.00    +0.000 C 
ATOM     19  CG  UNL     1      27.753  -0.193  16.329  0.00  0.00    +0.000 C 
BRANCH  19  21
ATOM     20  OE2 UNL     1      25.920   0.772  15.246  0.00  0.00    +0.000 OA
ATOM     21  CD  UNL     1      26.411  -0.177  15.832  0.00  0.00    +0.000 C 
BRANCH  21  22
ATOM     22  OE1 UNL     1      25.718  -1.301  16.086  0.00  0.00    +0.000 OA
ATOM     23  HE1 UNL     1      24.820  -1.093  15.757  0.00  0.00    +0.000 HD
ENDBRANCH  21  22
ENDBRANCH  19  21
ENDBRANCH  13  18
ENDBRANCH   6  11
ENDBRANCH   1   3
BRANCH   1  24
ATOM     24  C   UNL     1      33.557   5.578  22.997  0.00  0.00    +0.000 C 
BRANCH  24  31
ATOM     25  O   UNL     1      31.976  10.272  21.224  0.00  0.00    +0.000 OA
ATOM     26  N   UNL     1      33.311   7.948  22.349  0.00  0.00    +0.000 N 
ATOM     27  N   UNL     1      36.123   8.488  22.907  0.00  0.00    +0.000 N 
ATOM     28  N   UNL     1      35.878  10.661  22.023  0.00  0.00    +0.000 NA
ATOM     29  N   UNL     1      33.832  11.512  21.361  0.00  0.00    +0.000 N 
ATOM     30  N   UNL     1      35.721  12.824  21.266  0.00  0.00    +0.000 N 
ATOM     31  C   UNL     1      34.088   6.877  22.778  0.00  0.00    +0.000 C 
ATOM     32  C   UNL     1      35.428   7.242  22.984  0.00  0.00    +0.000 C 
ATOM     33  C   UNL     1      33.944   9.199  22.113  0.00  0.00    +0.000 A 
ATOM     34  C   UNL     1      35.278   9.461  22.342  0.00  0.00    +0.000 A 
ATOM     35  C   UNL     1      33.159  10.343  21.542  0.00  0.00    +0.000 A 
ATOM     36  C   UNL     1      35.161  11.628  21.564  0.00  0.00    +0.000 A 
ATOM     37  H   UNL     1      37.064   8.571  22.536  0.00  0.00    +0.000 HD
ATOM     38  H   UNL     1      33.310  12.260  20.934  0.00  0.00    +0.000 HD
ATOM     39  H   UNL     1      36.665  12.908  21.635  0.00  0.00    +0.000 HD
ATOM     40  H   UNL     1      35.162  13.648  21.441  0.00  0.00    +0.000 HD
BRANCH  26  42
ATOM     41  O   UNL     1      30.849   7.513  21.991  0.00  0.00    +0.000 OA
ATOM     42  C   UNL     1      31.992   7.747  22.137  0.00  0.00    +0.000 C 
ENDBRANCH  26  42
ENDBRANCH  24  31
ENDBRANCH   1  24
TORSDOF 10
ENDMDL
MODEL 7
REMARK VINA RESULT:      -5.2     23.463     26.526
REMARK  Name = 135403648_CalciumFolinate.pdbqt.pdb
REMARK  10 active torsions:
REMARK  status: ('A' for Active; 'I' for Inactive)
REMARK    1  A    between atoms: N_1  and  C_3
REMARK    2  A    between atoms: N_1  and  C_24
REMARK    3  A    between atoms: C_6  and  C_11
REMARK    4  A    between atoms: CA_13  and  C_15
REMARK    5  A    between atoms: CA_13  and  CB_18
REMARK    6  A    between atoms: C_15  and  O_16
REMARK    7  A    between atoms: CG_19  and  CD_21
REMARK    8  A    between atoms: CD_21  and  OE1_22
REMARK    9  A    between atoms: C_24  and  C_32
REMARK   10  A    between atoms: N_27  and  C_37
REMARK                            x       y       z     vdW  Elec       q    Type
REMARK                         _______ _______ _______ _____ _____    ______ ____
ROOT
ATOM      1  N   UNL     1      58.299  15.339   6.053  0.00  0.00    +0.000 N 
ATOM      2  H   UNL     1      58.526  16.128   5.449  0.00  0.00    +0.000 HD
ENDROOT
BRANCH   1   3
ATOM      3  C   UNL     1      57.126  15.563   6.804  0.00  0.00    +0.000 A 
ATOM      4  C   UNL     1      56.517  16.822   6.757  0.00  0.00    +0.000 A 
ATOM      5  C   UNL     1      56.647  14.634   7.735  0.00  0.00    +0.000 A 
ATOM      6  C   UNL     1      54.924  16.168   8.450  0.00  0.00    +0.000 A 
ATOM      7  C   UNL     1      55.417  17.119   7.559  0.00  0.00    +0.000 A 
ATOM      8  C   UNL     1      55.547  14.923   8.539  0.00  0.00    +0.000 A 
BRANCH   6  11
ATOM      9  O   UNL     1      53.680  15.863  10.402  0.00  0.00    +0.000 OA
ATOM     10  N   UNL     1      52.820  17.331   8.830  0.00  0.00    +0.000 N 
ATOM     11  C   ACE A   0      53.753  16.437   9.321  0.00  0.00    +0.000 C 
ATOM     12  H   UNL     1      52.967  17.754   7.916  0.00  0.00    +0.000 HD
ATOM     13  CA  UNL     1      51.651  17.741   9.447  0.00  0.00    +0.000 C 
BRANCH  13  15
ATOM     14  OXT UNL     1      50.396  18.504   7.562  0.00  0.00    +0.000 OA
ATOM     15  C   UNL     1      50.827  18.712   8.686  0.00  0.00    +0.000 C 
BRANCH  15  16
ATOM     16  O   UNL     1      50.584  19.858   9.340  0.00  0.00    +0.000 OA
ATOM     17  H   UNL     1      51.411  20.377   9.254  0.00  0.00    +0.000 HD
ENDBRANCH  15  16
ENDBRANCH  13  15
BRANCH  13  18
ATOM     18  CB  UNL     1      51.263  17.265  10.727  0.00  0.00    +0.000 C 
ATOM     19  CG  UNL     1      50.841  16.763  12.112  0.00  0.00    +0.000 C 
BRANCH  19  21
ATOM     20  OE2 UNL     1      50.582  16.972  14.426  0.00  0.00    +0.000 OA
ATOM     21  CD  UNL     1      50.443  16.312  13.411  0.00  0.00    +0.000 C 
BRANCH  21  22
ATOM     22  OE1 UNL     1      49.914  15.075  13.424  0.00  0.00    +0.000 OA
ATOM     23  HE1 UNL     1      50.012  14.798  14.357  0.00  0.00    +0.000 HD
ENDBRANCH  21  22
ENDBRANCH  19  21
ENDBRANCH  13  18
ENDBRANCH   6  11
ENDBRANCH   1   3
BRANCH   1  24
ATOM     24  C   UNL     1      58.520  14.015   5.482  0.00  0.00    +0.000 C 
BRANCH  24  31
ATOM     25  O   UNL     1      55.566  10.076   3.630  0.00  0.00    +0.000 OA
ATOM     26  N   UNL     1      57.621  11.963   4.445  0.00  0.00    +0.000 N 
ATOM     27  N   UNL     1      60.296  10.848   4.115  0.00  0.00    +0.000 N 
ATOM     28  N   UNL     1      59.355   8.814   3.382  0.00  0.00    +0.000 NA
ATOM     29  N   UNL     1      57.084   8.548   3.032  0.00  0.00    +0.000 N 
ATOM     30  N   UNL     1      58.540   6.825   2.571  0.00  0.00    +0.000 N 
ATOM     31  C   UNL     1      58.686  12.725   4.913  0.00  0.00    +0.000 C 
ATOM     32  C   UNL     1      59.921  12.080   4.734  0.00  0.00    +0.000 C 
ATOM     33  C   UNL     1      57.885  10.662   3.934  0.00  0.00    +0.000 A 
ATOM     34  C   UNL     1      59.140  10.109   3.802  0.00  0.00    +0.000 A 
ATOM     35  C   UNL     1      56.749   9.771   3.527  0.00  0.00    +0.000 A 
ATOM     36  C   UNL     1      58.354   8.092   3.010  0.00  0.00    +0.000 A 
ATOM     37  H   UNL     1      61.019  10.241   4.491  0.00  0.00    +0.000 HD
ATOM     38  H   UNL     1      56.315   7.937   2.806  0.00  0.00    +0.000 HD
ATOM     39  H   UNL     1      59.518   6.624   2.383  0.00  0.00    +0.000 HD
ATOM     40  H   UNL     1      57.929   6.503   1.832  0.00  0.00    +0.000 HD
BRANCH  26  42
ATOM     41  O   UNL     1      55.289  12.929   4.531  0.00  0.00    +0.000 OA
ATOM     42  C   UNL     1      56.373  12.474   4.529  0.00  0.00    +0.000 C 
ENDBRANCH  26  42
ENDBRANCH  24  31
ENDBRANCH   1  24
TORSDOF 10
ENDMDL
MODEL 8
REMARK VINA RESULT:      -4.8     13.473     17.009
REMARK  Name = 135403648_CalciumFolinate.pdbqt.pdb
REMARK  10 active torsions:
REMARK  status: ('A' for Active; 'I' for Inactive)
REMARK    1  A    between atoms: N_1  and  C_3
REMARK    2  A    between atoms: N_1  and  C_24
REMARK    3  A    between atoms: C_6  and  C_11
REMARK    4  A    between atoms: CA_13  and  C_15
REMARK    5  A    between atoms: CA_13  and  CB_18
REMARK    6  A    between atoms: C_15  and  O_16
REMARK    7  A    between atoms: CG_19  and  CD_21
REMARK    8  A    between atoms: CD_21  and  OE1_22
REMARK    9  A    between atoms: C_24  and  C_32
REMARK   10  A    between atoms: N_27  and  C_37
REMARK                            x       y       z     vdW  Elec       q    Type
REMARK                         _______ _______ _______ _____ _____    ______ ____
ROOT
ATOM      1  N   UNL     1      25.381   2.328  16.553  0.00  0.00    +0.000 N 
ATOM      2  H   UNL     1      24.871   2.733  15.769  0.00  0.00    +0.000 HD
ENDROOT
BRANCH   1   3
ATOM      3  C   UNL     1      26.401   1.451  16.128  0.00  0.00    +0.000 A 
ATOM      4  C   UNL     1      26.055   0.181  15.655  0.00  0.00    +0.000 A 
ATOM      5  C   UNL     1      27.758   1.733  16.328  0.00  0.00    +0.000 A 
ATOM      6  C   UNL     1      28.382  -0.442  15.483  0.00  0.00    +0.000 A 
ATOM      7  C   UNL     1      27.034  -0.753  15.319  0.00  0.00    +0.000 A 
ATOM      8  C   UNL     1      28.742   0.805  15.994  0.00  0.00    +0.000 A 
BRANCH   6  11
ATOM      9  O   UNL     1      29.523  -1.826  13.988  0.00  0.00    +0.000 OA
ATOM     10  N   UNL     1      30.320  -1.748  16.161  0.00  0.00    +0.000 N 
ATOM     11  C   ACE A   0      29.460  -1.402  15.136  0.00  0.00    +0.000 C 
ATOM     12  H   UNL     1      30.184  -1.346  17.085  0.00  0.00    +0.000 HD
ATOM     13  CA  UNL     1      31.394  -2.619  16.091  0.00  0.00    +0.000 C 
BRANCH  13  15
ATOM     14  OXT UNL     1      32.403  -3.906  17.834  0.00  0.00    +0.000 OA
ATOM     15  C   UNL     1      32.151  -2.812  17.352  0.00  0.00    +0.000 C 
BRANCH  15  16
ATOM     16  O   UNL     1      32.549  -1.671  17.935  0.00  0.00    +0.000 OA
ATOM     17  H   UNL     1      31.755  -1.339  18.406  0.00  0.00    +0.000 HD
ENDBRANCH  15  16
ENDBRANCH  13  15
BRANCH  13  18
ATOM     18  CB  UNL     1      31.752  -3.285  14.890  0.00  0.00    +0.000 C 
ATOM     19  CG  UNL     1      32.128  -4.011  13.593  0.00  0.00    +0.000 C 
BRANCH  19  21
ATOM     20  OE2 UNL     1      32.444  -5.910  12.267  0.00  0.00    +0.000 OA
ATOM     21  CD  UNL     1      32.462  -4.697  12.382  0.00  0.00    +0.000 C 
BRANCH  21  22
ATOM     22  OE1 UNL     1      32.825  -3.884  11.374  0.00  0.00    +0.000 OA
ATOM     23  HE1 UNL     1      33.666  -3.496  11.687  0.00  0.00    +0.000 HD
ENDBRANCH  21  22
ENDBRANCH  19  21
ENDBRANCH  13  18
ENDBRANCH   6  11
ENDBRANCH   1   3
BRANCH   1  24
ATOM     24  C   UNL     1      25.651   3.225  17.669  0.00  0.00    +0.000 C 
BRANCH  24  31
ATOM     25  O   UNL     1      24.041   7.791  19.728  0.00  0.00    +0.000 OA
ATOM     26  N   UNL     1      25.214   5.216  19.063  0.00  0.00    +0.000 N 
ATOM     27  N   UNL     1      27.315   4.474  20.945  0.00  0.00    +0.000 N 
ATOM     28  N   UNL     1      27.024   6.523  22.075  0.00  0.00    +0.000 NA
ATOM     29  N   UNL     1      25.341   8.014  21.533  0.00  0.00    +0.000 N 
ATOM     30  N   UNL     1      26.756   8.450  23.296  0.00  0.00    +0.000 N 
ATOM     31  C   UNL     1      25.935   4.060  18.783  0.00  0.00    +0.000 C 
ATOM     32  C   UNL     1      26.939   3.816  19.733  0.00  0.00    +0.000 C 
ATOM     33  C   UNL     1      25.604   6.010  20.176  0.00  0.00    +0.000 A 
ATOM     34  C   UNL     1      26.615   5.690  21.055  0.00  0.00    +0.000 A 
ATOM     35  C   UNL     1      24.922   7.320  20.440  0.00  0.00    +0.000 A 
ATOM     36  C   UNL     1      26.391   7.625  22.287  0.00  0.00    +0.000 A 
ATOM     37  H   UNL     1      28.283   4.590  21.230  0.00  0.00    +0.000 HD
ATOM     38  H   UNL     1      24.912   8.914  21.677  0.00  0.00    +0.000 HD
ATOM     39  H   UNL     1      27.403   8.004  23.941  0.00  0.00    +0.000 HD
ATOM     40  H   UNL     1      26.015   8.947  23.772  0.00  0.00    +0.000 HD
BRANCH  26  42
ATOM     41  O   UNL     1      23.275   5.797  17.552  0.00  0.00    +0.000 OA
ATOM     42  C   UNL     1      24.195   5.559  18.244  0.00  0.00    +0.000 C 
ENDBRANCH  26  42
ENDBRANCH  24  31
ENDBRANCH   1  24
TORSDOF 10
ENDMDL
MODEL 9
REMARK VINA RESULT:      -4.8     14.181     18.314
REMARK  Name = 135403648_CalciumFolinate.pdbqt.pdb
REMARK  10 active torsions:
REMARK  status: ('A' for Active; 'I' for Inactive)
REMARK    1  A    between atoms: N_1  and  C_3
REMARK    2  A    between atoms: N_1  and  C_24
REMARK    3  A    between atoms: C_6  and  C_11
REMARK    4  A    between atoms: CA_13  and  C_15
REMARK    5  A    between atoms: CA_13  and  CB_18
REMARK    6  A    between atoms: C_15  and  O_16
REMARK    7  A    between atoms: CG_19  and  CD_21
REMARK    8  A    between atoms: CD_21  and  OE1_22
REMARK    9  A    between atoms: C_24  and  C_32
REMARK   10  A    between atoms: N_27  and  C_37
REMARK                            x       y       z     vdW  Elec       q    Type
REMARK                         _______ _______ _______ _____ _____    ______ ____
ROOT
ATOM      1  N   UNL     1      55.368   5.857  15.611  0.00  0.00    +0.000 N 
ATOM      2  H   UNL     1      55.923   6.679  15.372  0.00  0.00    +0.000 HD
ENDROOT
BRANCH   1   3
ATOM      3  C   UNL     1      55.247   5.685  17.006  0.00  0.00    +0.000 A 
ATOM      4  C   UNL     1      54.013   5.923  17.617  0.00  0.00    +0.000 A 
ATOM      5  C   UNL     1      56.358   5.458  17.828  0.00  0.00    +0.000 A 
ATOM      6  C   UNL     1      54.978   5.594  19.806  0.00  0.00    +0.000 A 
ATOM      7  C   UNL     1      53.873   5.864  19.004  0.00  0.00    +0.000 A 
ATOM      8  C   UNL     1      56.226   5.396  19.214  0.00  0.00    +0.000 A 
BRANCH   6  11
ATOM      9  O   UNL     1      54.493   4.470  21.794  0.00  0.00    +0.000 OA
ATOM     10  N   UNL     1      55.233   6.657  21.981  0.00  0.00    +0.000 N 
ATOM     11  C   ACE A   0      54.878   5.516  21.285  0.00  0.00    +0.000 C 
ATOM     12  H   UNL     1      55.536   7.481  21.468  0.00  0.00    +0.000 HD
ATOM     13  CA  UNL     1      55.222   6.834  23.353  0.00  0.00    +0.000 C 
BRANCH  13  15
ATOM     14  OXT UNL     1      54.904   9.134  23.921  0.00  0.00    +0.000 OA
ATOM     15  C   UNL     1      55.651   8.170  23.834  0.00  0.00    +0.000 C 
BRANCH  15  16
ATOM     16  O   UNL     1      56.946   8.243  24.175  0.00  0.00    +0.000 OA
ATOM     17  H   UNL     1      56.961   8.090  25.143  0.00  0.00    +0.000 HD
ENDBRANCH  15  16
ENDBRANCH  13  15
BRANCH  13  18
ATOM     18  CB  UNL     1      54.828   5.804  24.248  0.00  0.00    +0.000 C 
ATOM     19  CG  UNL     1      54.400   4.685  25.204  0.00  0.00    +0.000 C 
BRANCH  19  21
ATOM     20  OE2 UNL     1      53.206   2.757  25.768  0.00  0.00    +0.000 OA
ATOM     21  CD  UNL     1      53.995   3.630  26.082  0.00  0.00    +0.000 C 
BRANCH  21  22
ATOM     22  OE1 UNL     1      54.548   3.693  27.307  0.00  0.00    +0.000 OA
ATOM     23  HE1 UNL     1      53.825   4.047  27.863  0.00  0.00    +0.000 HD
ENDBRANCH  21  22
ENDBRANCH  19  21
ENDBRANCH  13  18
ENDBRANCH   6  11
ENDBRANCH   1   3
BRANCH   1  24
ATOM     24  C   UNL     1      54.202   5.609  14.772  0.00  0.00    +0.000 C 
BRANCH  24  31
ATOM     25  O   UNL     1      51.806   1.643  12.281  0.00  0.00    +0.000 OA
ATOM     26  N   UNL     1      52.690   4.130  13.499  0.00  0.00    +0.000 N 
ATOM     27  N   UNL     1      51.058   6.389  12.636  0.00  0.00    +0.000 N 
ATOM     28  N   UNL     1      49.820   4.955  11.231  0.00  0.00    +0.000 NA
ATOM     29  N   UNL     1      50.130   2.663  11.209  0.00  0.00    +0.000 N 
ATOM     30  N   UNL     1      48.499   3.628   9.901  0.00  0.00    +0.000 N 
ATOM     31  C   UNL     1      53.088   5.395  13.918  0.00  0.00    +0.000 C 
ATOM     32  C   UNL     1      52.253   6.408  13.419  0.00  0.00    +0.000 C 
ATOM     33  C   UNL     1      51.589   4.023  12.605  0.00  0.00    +0.000 A 
ATOM     34  C   UNL     1      50.828   5.083  12.163  0.00  0.00    +0.000 A 
ATOM     35  C   UNL     1      51.205   2.686  12.043  0.00  0.00    +0.000 A 
ATOM     36  C   UNL     1      49.501   3.785  10.798  0.00  0.00    +0.000 A 
ATOM     37  H   UNL     1      50.865   7.073  11.911  0.00  0.00    +0.000 HD
ATOM     38  H   UNL     1      49.908   1.770  10.799  0.00  0.00    +0.000 HD
ATOM     39  H   UNL     1      47.941   4.471   9.799  0.00  0.00    +0.000 HD
ATOM     40  H   UNL     1      47.932   2.795   9.989  0.00  0.00    +0.000 HD
BRANCH  26  42
ATOM     41  O   UNL     1      54.055   2.164  14.305  0.00  0.00    +0.000 OA
ATOM     42  C   UNL     1      53.389   3.056  13.926  0.00  0.00    +0.000 C 
ENDBRANCH  26  42
ENDBRANCH  24  31
ENDBRANCH   1  24
TORSDOF 10
ENDMDL
