MODEL 1
REMARK VINA RESULT:      -6.6      0.000      0.000
REMARK  Name = 135423438_Nintedanib.pdbqt.pdb
REMARK  9 active torsions:
REMARK  status: ('A' for Active; 'I' for Inactive)
REMARK    1  A    between atoms: N_1  and  C_22
REMARK    2  A    between atoms: C_2  and  C_4
REMARK    3  A    between atoms: C_2  and  C_37
REMARK    4  A    between atoms: C_7  and  O_13
REMARK    5  A    between atoms: C_10  and  C_16
REMARK    6  A    between atoms: C_16  and  O_17
REMARK    7  A    between atoms: C_19  and  N_26
REMARK    8  A    between atoms: C_27  and  C_29
REMARK    9  A    between atoms: C_29  and  N_30
REMARK                            x       y       z     vdW  Elec       q    Type
REMARK                         _______ _______ _______ _____ _____    ______ ____
ROOT
ATOM      1  N   UNL     1      51.408   3.439   8.031  0.00  0.00    +0.000 NA
ATOM      2  C   UNL     1      51.304   4.634   8.537  0.00  0.00    +0.000 C 
ENDROOT
BRANCH   2   4
ATOM      3  N   UNL     1      49.125   4.504  11.479  0.00  0.00    +0.000 N 
ATOM      4  C   UNL     1      50.618   4.743   9.831  0.00  0.00    +0.000 A 
ATOM      5  C   UNL     1      51.043   5.511  10.972  0.00  0.00    +0.000 A 
ATOM      6  C   UNL     1      50.095   5.337  11.978  0.00  0.00    +0.000 A 
ATOM      7  C   UNL     1      49.420   4.140  10.190  0.00  0.00    +0.000 A 
ATOM      8  C   UNL     1      52.155   6.333  11.242  0.00  0.00    +0.000 A 
ATOM      9  C   UNL     1      50.195   5.944  13.235  0.00  0.00    +0.000 A 
ATOM     10  C   UNL     1      51.310   6.759  13.470  0.00  0.00    +0.000 A 
ATOM     11  C   UNL     1      52.277   6.949  12.489  0.00  0.00    +0.000 A 
ATOM     12  H   UNL     1      48.310   4.211  11.998  0.00  0.00    +0.000 HD
BRANCH   7  13
ATOM     13  O   UNL     1      48.612   3.346   9.494  0.00  0.00    +0.000 OA
ATOM     14  H   UNL     1      47.685   3.482   9.757  0.00  0.00    +0.000 HD
ENDBRANCH   7  13
BRANCH  10  16
ATOM     15  O   UNL     1      50.577   7.941  15.392  0.00  0.00    +0.000 OA
ATOM     16  C   UNL     1      51.501   7.440  14.769  0.00  0.00    +0.000 C 
BRANCH  16  17
ATOM     17  O   UNL     1      52.824   7.393  15.097  0.00  0.00    +0.000 OA
ATOM     18  C   UNL     1      53.229   6.483  16.087  0.00  0.00    +0.000 C 
ENDBRANCH  16  17
ENDBRANCH  10  16
ENDBRANCH   2   4
BRANCH   1  22
ATOM     19  C   UNL     1      53.213   2.716   4.273  0.00  0.00    +0.000 A 
ATOM     20  C   UNL     1      53.846   2.366   5.468  0.00  0.00    +0.000 A 
ATOM     21  C   UNL     1      51.951   3.319   4.371  0.00  0.00    +0.000 A 
ATOM     22  C   UNL     1      52.015   3.238   6.786  0.00  0.00    +0.000 A 
ATOM     23  C   UNL     1      53.258   2.611   6.708  0.00  0.00    +0.000 A 
ATOM     24  C   UNL     1      51.353   3.568   5.605  0.00  0.00    +0.000 A 
BRANCH  19  26
ATOM     25  O   UNL     1      54.977   4.541   2.882  0.00  0.00    +0.000 OA
ATOM     26  N   UNL     1      53.822   2.470   2.985  0.00  0.00    +0.000 N 
ATOM     27  C   UNL     1      54.669   3.451   2.411  0.00  0.00    +0.000 C 
ATOM     28  C   UNL     1      53.484   1.184   2.370  0.00  0.00    +0.000 C 
BRANCH  27  29
ATOM     29  C   UNL     1      55.239   3.135   1.108  0.00  0.00    +0.000 C 
BRANCH  29  30
ATOM     30  N   UNL     1      55.837   2.811  -0.185  0.00  0.00    +0.000 N 
ATOM     31  N   UNL     1      56.191  -0.654  -0.874  0.00  0.00    +0.000 N 
ATOM     32  C   UNL     1      56.941   1.848   0.081  0.00  0.00    +0.000 C 
ATOM     33  C   UNL     1      54.929   1.825  -0.835  0.00  0.00    +0.000 C 
ATOM     34  C   UNL     1      57.096   0.329  -0.218  0.00  0.00    +0.000 C 
ATOM     35  C   UNL     1      55.083   0.305  -1.134  0.00  0.00    +0.000 C 
ATOM     36  C   UNL     1      55.729  -1.563   0.166  0.00  0.00    +0.000 C 
ENDBRANCH  29  30
ENDBRANCH  27  29
ENDBRANCH  19  26
ENDBRANCH   1  22
BRANCH   2  37
ATOM     37  C   UNL     1      51.816   5.865   7.908  0.00  0.00    +0.000 A 
ATOM     38  C   UNL     1      50.917   6.791   7.381  0.00  0.00    +0.000 A 
ATOM     39  C   UNL     1      53.191   6.093   7.883  0.00  0.00    +0.000 A 
ATOM     40  C   UNL     1      51.408   7.962   6.812  0.00  0.00    +0.000 A 
ATOM     41  C   UNL     1      53.671   7.267   7.311  0.00  0.00    +0.000 A 
ATOM     42  C   UNL     1      52.782   8.200   6.777  0.00  0.00    +0.000 A 
ENDBRANCH   2  37
TORSDOF 9
ENDMDL
MODEL 2
REMARK VINA RESULT:      -6.2      4.293      5.707
REMARK  Name = 135423438_Nintedanib.pdbqt.pdb
REMARK  9 active torsions:
REMARK  status: ('A' for Active; 'I' for Inactive)
REMARK    1  A    between atoms: N_1  and  C_22
REMARK    2  A    between atoms: C_2  and  C_4
REMARK    3  A    between atoms: C_2  and  C_37
REMARK    4  A    between atoms: C_7  and  O_13
REMARK    5  A    between atoms: C_10  and  C_16
REMARK    6  A    between atoms: C_16  and  O_17
REMARK    7  A    between atoms: C_19  and  N_26
REMARK    8  A    between atoms: C_27  and  C_29
REMARK    9  A    between atoms: C_29  and  N_30
REMARK                            x       y       z     vdW  Elec       q    Type
REMARK                         _______ _______ _______ _____ _____    ______ ____
ROOT
ATOM      1  N   UNL     1      51.820   2.502   8.524  0.00  0.00    +0.000 NA
ATOM      2  C   UNL     1      51.526   3.086   9.650  0.00  0.00    +0.000 C 
ENDROOT
BRANCH   2   4
ATOM      3  N   UNL     1      49.831   0.954  12.099  0.00  0.00    +0.000 N 
ATOM      4  C   UNL     1      51.092   2.215  10.750  0.00  0.00    +0.000 A 
ATOM      5  C   UNL     1      51.901   1.723  11.834  0.00  0.00    +0.000 A 
ATOM      6  C   UNL     1      51.088   0.941  12.651  0.00  0.00    +0.000 A 
ATOM      7  C   UNL     1      49.813   1.716  10.959  0.00  0.00    +0.000 A 
ATOM      8  C   UNL     1      53.258   1.867  12.189  0.00  0.00    +0.000 A 
ATOM      9  C   UNL     1      51.554   0.302  13.805  0.00  0.00    +0.000 A 
ATOM     10  C   UNL     1      52.906   0.468  14.133  0.00  0.00    +0.000 A 
ATOM     11  C   UNL     1      53.746   1.238  13.336  0.00  0.00    +0.000 A 
ATOM     12  H   UNL     1      49.037   0.468  12.491  0.00  0.00    +0.000 HD
BRANCH   7  13
ATOM     13  O   UNL     1      48.695   1.888  10.261  0.00  0.00    +0.000 OA
ATOM     14  H   UNL     1      48.349   2.790  10.380  0.00  0.00    +0.000 HD
ENDBRANCH   7  13
BRANCH  10  16
ATOM     15  O   UNL     1      54.459  -0.912  15.280  0.00  0.00    +0.000 OA
ATOM     16  C   UNL     1      53.488  -0.171  15.333  0.00  0.00    +0.000 C 
BRANCH  16  17
ATOM     17  O   UNL     1      52.767   0.213  16.424  0.00  0.00    +0.000 OA
ATOM     18  C   UNL     1      53.282   1.240  17.231  0.00  0.00    +0.000 C 
ENDBRANCH  16  17
ENDBRANCH  10  16
ENDBRANCH   2   4
BRANCH   1  22
ATOM     19  C   UNL     1      53.043   4.666   5.100  0.00  0.00    +0.000 A 
ATOM     20  C   UNL     1      53.955   4.275   6.083  0.00  0.00    +0.000 A 
ATOM     21  C   UNL     1      51.701   4.312   5.296  0.00  0.00    +0.000 A 
ATOM     22  C   UNL     1      52.211   3.251   7.408  0.00  0.00    +0.000 A 
ATOM     23  C   UNL     1      53.554   3.569   7.217  0.00  0.00    +0.000 A 
ATOM     24  C   UNL     1      51.288   3.606   6.426  0.00  0.00    +0.000 A 
BRANCH  19  26
ATOM     25  O   UNL     1      53.326   7.543   4.948  0.00  0.00    +0.000 OA
ATOM     26  N   UNL     1      53.453   5.404   3.927  0.00  0.00    +0.000 N 
ATOM     27  C   UNL     1      53.551   6.817   3.985  0.00  0.00    +0.000 C 
ATOM     28  C   UNL     1      53.731   4.588   2.741  0.00  0.00    +0.000 C 
BRANCH  27  29
ATOM     29  C   UNL     1      53.963   7.491   2.761  0.00  0.00    +0.000 C 
BRANCH  29  30
ATOM     30  N   UNL     1      54.404   8.161   1.540  0.00  0.00    +0.000 N 
ATOM     31  N   UNL     1      56.226  11.169   2.026  0.00  0.00    +0.000 N 
ATOM     32  C   UNL     1      53.973   9.583   1.650  0.00  0.00    +0.000 C 
ATOM     33  C   UNL     1      55.860   8.430   1.708  0.00  0.00    +0.000 C 
ATOM     34  C   UNL     1      54.771  10.901   1.866  0.00  0.00    +0.000 C 
ATOM     35  C   UNL     1      56.658   9.749   1.925  0.00  0.00    +0.000 C 
ATOM     36  C   UNL     1      56.431  11.576   3.410  0.00  0.00    +0.000 C 
ENDBRANCH  29  30
ENDBRANCH  27  29
ENDBRANCH  19  26
ENDBRANCH   1  22
BRANCH   2  37
ATOM     37  C   UNL     1      51.595   4.538   9.890  0.00  0.00    +0.000 A 
ATOM     38  C   UNL     1      50.509   5.342   9.548  0.00  0.00    +0.000 A 
ATOM     39  C   UNL     1      52.734   5.075  10.488  0.00  0.00    +0.000 A 
ATOM     40  C   UNL     1      50.572   6.709   9.802  0.00  0.00    +0.000 A 
ATOM     41  C   UNL     1      52.787   6.442  10.737  0.00  0.00    +0.000 A 
ATOM     42  C   UNL     1      51.708   7.258  10.395  0.00  0.00    +0.000 A 
ENDBRANCH   2  37
TORSDOF 9
ENDMDL
MODEL 3
REMARK VINA RESULT:      -5.8      3.959      5.792
REMARK  Name = 135423438_Nintedanib.pdbqt.pdb
REMARK  9 active torsions:
REMARK  status: ('A' for Active; 'I' for Inactive)
REMARK    1  A    between atoms: N_1  and  C_22
REMARK    2  A    between atoms: C_2  and  C_4
REMARK    3  A    between atoms: C_2  and  C_37
REMARK    4  A    between atoms: C_7  and  O_13
REMARK    5  A    between atoms: C_10  and  C_16
REMARK    6  A    between atoms: C_16  and  O_17
REMARK    7  A    between atoms: C_19  and  N_26
REMARK    8  A    between atoms: C_27  and  C_29
REMARK    9  A    between atoms: C_29  and  N_30
REMARK                            x       y       z     vdW  Elec       q    Type
REMARK                         _______ _______ _______ _____ _____    ______ ____
ROOT
ATOM      1  N   UNL     1      52.451   0.819  12.386  0.00  0.00    +0.000 NA
ATOM      2  C   UNL     1      52.577   2.001  12.916  0.00  0.00    +0.000 C 
ENDROOT
BRANCH   2   4
ATOM      3  N   UNL     1      53.413   1.484  16.445  0.00  0.00    +0.000 N 
ATOM      4  C   UNL     1      53.003   2.051  14.321  0.00  0.00    +0.000 A 
ATOM      5  C   UNL     1      53.577   3.176  15.011  0.00  0.00    +0.000 A 
ATOM      6  C   UNL     1      53.822   2.789  16.327  0.00  0.00    +0.000 A 
ATOM      7  C   UNL     1      52.914   1.025  15.253  0.00  0.00    +0.000 A 
ATOM      8  C   UNL     1      53.917   4.490  14.630  0.00  0.00    +0.000 A 
ATOM      9  C   UNL     1      54.382   3.643  17.282  0.00  0.00    +0.000 A 
ATOM     10  C   UNL     1      54.706   4.944  16.874  0.00  0.00    +0.000 A 
ATOM     11  C   UNL     1      54.478   5.361  15.567  0.00  0.00    +0.000 A 
ATOM     12  H   UNL     1      53.472   0.949  17.299  0.00  0.00    +0.000 HD
BRANCH   7  13
ATOM     13  O   UNL     1      52.442  -0.211  15.131  0.00  0.00    +0.000 OA
ATOM     14  H   UNL     1      52.981  -0.839  15.645  0.00  0.00    +0.000 HD
ENDBRANCH   7  13
BRANCH  10  16
ATOM     15  O   UNL     1      55.829   6.955  17.442  0.00  0.00    +0.000 OA
ATOM     16  C   UNL     1      55.303   5.916  17.814  0.00  0.00    +0.000 C 
BRANCH  16  17
ATOM     17  O   UNL     1      55.154   5.443  19.084  0.00  0.00    +0.000 OA
ATOM     18  C   UNL     1      54.655   6.317  20.063  0.00  0.00    +0.000 C 
ENDBRANCH  16  17
ENDBRANCH  10  16
ENDBRANCH   2   4
BRANCH   1  22
ATOM     19  C   UNL     1      51.160   0.246   8.398  0.00  0.00    +0.000 A 
ATOM     20  C   UNL     1      52.516   0.268   8.732  0.00  0.00    +0.000 A 
ATOM     21  C   UNL     1      50.242   0.424   9.441  0.00  0.00    +0.000 A 
ATOM     22  C   UNL     1      52.017   0.668  11.064  0.00  0.00    +0.000 A 
ATOM     23  C   UNL     1      52.945   0.465  10.043  0.00  0.00    +0.000 A 
ATOM     24  C   UNL     1      50.659   0.621  10.757  0.00  0.00    +0.000 A 
BRANCH  19  26
ATOM     25  O   UNL     1      51.787  -2.046   6.744  0.00  0.00    +0.000 OA
ATOM     26  N   UNL     1      50.711   0.049   7.038  0.00  0.00    +0.000 N 
ATOM     27  C   UNL     1      51.091  -1.122   6.335  0.00  0.00    +0.000 C 
ATOM     28  C   UNL     1      49.879   1.126   6.492  0.00  0.00    +0.000 C 
BRANCH  27  29
ATOM     29  C   UNL     1      50.607  -1.246   4.967  0.00  0.00    +0.000 C 
BRANCH  29  30
ATOM     30  N   UNL     1      50.125  -1.400   3.596  0.00  0.00    +0.000 N 
ATOM     31  N   UNL     1      52.012   0.304   1.118  0.00  0.00    +0.000 N 
ATOM     32  C   UNL     1      50.014  -0.030   3.023  0.00  0.00    +0.000 C 
ATOM     33  C   UNL     1      51.301  -1.811   2.779  0.00  0.00    +0.000 C 
ATOM     34  C   UNL     1      50.842   0.719   1.939  0.00  0.00    +0.000 C 
ATOM     35  C   UNL     1      52.130  -1.062   1.695  0.00  0.00    +0.000 C 
ATOM     36  C   UNL     1      53.156   1.066   1.598  0.00  0.00    +0.000 C 
ENDBRANCH  29  30
ENDBRANCH  27  29
ENDBRANCH  19  26
ENDBRANCH   1  22
BRANCH   2  37
ATOM     37  C   UNL     1      52.320   3.272  12.215  0.00  0.00    +0.000 A 
ATOM     38  C   UNL     1      53.278   3.776  11.337  0.00  0.00    +0.000 A 
ATOM     39  C   UNL     1      51.107   3.928  12.419  0.00  0.00    +0.000 A 
ATOM     40  C   UNL     1      53.017   4.963  10.659  0.00  0.00    +0.000 A 
ATOM     41  C   UNL     1      50.857   5.114  11.737  0.00  0.00    +0.000 A 
ATOM     42  C   UNL     1      51.809   5.630  10.859  0.00  0.00    +0.000 A 
ENDBRANCH   2  37
TORSDOF 9
ENDMDL
MODEL 4
REMARK VINA RESULT:      -5.6     20.050     23.768
REMARK  Name = 135423438_Nintedanib.pdbqt.pdb
REMARK  9 active torsions:
REMARK  status: ('A' for Active; 'I' for Inactive)
REMARK    1  A    between atoms: N_1  and  C_22
REMARK    2  A    between atoms: C_2  and  C_4
REMARK    3  A    between atoms: C_2  and  C_37
REMARK    4  A    between atoms: C_7  and  O_13
REMARK    5  A    between atoms: C_10  and  C_16
REMARK    6  A    between atoms: C_16  and  O_17
REMARK    7  A    between atoms: C_19  and  N_26
REMARK    8  A    between atoms: C_27  and  C_29
REMARK    9  A    between atoms: C_29  and  N_30
REMARK                            x       y       z     vdW  Elec       q    Type
REMARK                         _______ _______ _______ _____ _____    ______ ____
ROOT
ATOM      1  N   UNL     1      39.103  -0.674 -10.696  0.00  0.00    +0.000 NA
ATOM      2  C   UNL     1      40.258  -1.275 -10.669  0.00  0.00    +0.000 C 
ENDROOT
BRANCH   2   4
ATOM      3  N   UNL     1      40.589  -4.579 -12.217  0.00  0.00    +0.000 N 
ATOM      4  C   UNL     1      40.272  -2.690 -11.062  0.00  0.00    +0.000 A 
ATOM      5  C   UNL     1      39.745  -3.800 -10.311  0.00  0.00    +0.000 A 
ATOM      6  C   UNL     1      39.961  -4.958 -11.056  0.00  0.00    +0.000 A 
ATOM      7  C   UNL     1      40.780  -3.221 -12.240  0.00  0.00    +0.000 A 
ATOM      8  C   UNL     1      39.109  -3.925  -9.059  0.00  0.00    +0.000 A 
ATOM      9  C   UNL     1      39.573  -6.229 -10.621  0.00  0.00    +0.000 A 
ATOM     10  C   UNL     1      38.939  -6.319  -9.374  0.00  0.00    +0.000 A 
ATOM     11  C   UNL     1      38.713  -5.184  -8.604  0.00  0.00    +0.000 A 
ATOM     12  H   UNL     1      40.862  -5.221 -12.946  0.00  0.00    +0.000 HD
BRANCH   7  13
ATOM     13  O   UNL     1      41.357  -2.622 -13.277  0.00  0.00    +0.000 OA
ATOM     14  H   UNL     1      41.986  -1.943 -12.976  0.00  0.00    +0.000 HD
ENDBRANCH   7  13
BRANCH  10  16
ATOM     15  O   UNL     1      37.526  -8.222  -9.273  0.00  0.00    +0.000 OA
ATOM     16  C   UNL     1      38.494  -7.621  -8.832  0.00  0.00    +0.000 C 
BRANCH  16  17
ATOM     17  O   UNL     1      39.330  -7.979  -7.816  0.00  0.00    +0.000 OA
ATOM     18  C   UNL     1      39.781  -9.308  -7.766  0.00  0.00    +0.000 C 
ENDBRANCH  16  17
ENDBRANCH  10  16
ENDBRANCH   2   4
BRANCH   1  22
ATOM     19  C   UNL     1      38.627   3.373  -9.558  0.00  0.00    +0.000 A 
ATOM     20  C   UNL     1      38.840   3.008 -10.889  0.00  0.00    +0.000 A 
ATOM     21  C   UNL     1      38.579   2.341  -8.612  0.00  0.00    +0.000 A 
ATOM     22  C   UNL     1      38.983   0.665 -10.306  0.00  0.00    +0.000 A 
ATOM     23  C   UNL     1      39.006   1.676 -11.266  0.00  0.00    +0.000 A 
ATOM     24  C   UNL     1      38.744   1.006  -8.976  0.00  0.00    +0.000 A 
BRANCH  19  26
ATOM     25  O   UNL     1      40.781   5.204  -8.933  0.00  0.00    +0.000 OA
ATOM     26  N   UNL     1      38.462   4.754  -9.161  0.00  0.00    +0.000 N 
ATOM     27  C   UNL     1      39.604   5.546  -8.881  0.00  0.00    +0.000 C 
ATOM     28  C   UNL     1      37.074   5.217  -9.076  0.00  0.00    +0.000 C 
BRANCH  27  29
ATOM     29  C   UNL     1      39.357   6.924  -8.480  0.00  0.00    +0.000 C 
BRANCH  29  30
ATOM     30  N   UNL     1      39.093   8.297  -8.054  0.00  0.00    +0.000 N 
ATOM     31  N   UNL     1      35.674   9.103  -7.542  0.00  0.00    +0.000 N 
ATOM     32  C   UNL     1      38.047   8.836  -8.967  0.00  0.00    +0.000 C 
ATOM     33  C   UNL     1      38.216   8.206  -6.854  0.00  0.00    +0.000 C 
ATOM     34  C   UNL     1      36.548   9.187  -8.744  0.00  0.00    +0.000 C 
ATOM     35  C   UNL     1      36.715   8.556  -6.631  0.00  0.00    +0.000 C 
ATOM     36  C   UNL     1      34.721   8.030  -7.787  0.00  0.00    +0.000 C 
ENDBRANCH  29  30
ENDBRANCH  27  29
ENDBRANCH  19  26
ENDBRANCH   1  22
BRANCH   2  37
ATOM     37  C   UNL     1      41.530  -0.643 -10.275  0.00  0.00    +0.000 A 
ATOM     38  C   UNL     1      42.253   0.088 -11.215  0.00  0.00    +0.000 A 
ATOM     39  C   UNL     1      41.967  -0.763  -8.957  0.00  0.00    +0.000 A 
ATOM     40  C   UNL     1      43.439   0.704 -10.828  0.00  0.00    +0.000 A 
ATOM     41  C   UNL     1      43.155  -0.144  -8.580  0.00  0.00    +0.000 A 
ATOM     42  C   UNL     1      43.889   0.587  -9.514  0.00  0.00    +0.000 A 
ENDBRANCH   2  37
TORSDOF 9
ENDMDL
MODEL 5
REMARK VINA RESULT:      -5.6     19.600     23.619
REMARK  Name = 135423438_Nintedanib.pdbqt.pdb
REMARK  9 active torsions:
REMARK  status: ('A' for Active; 'I' for Inactive)
REMARK    1  A    between atoms: N_1  and  C_22
REMARK    2  A    between atoms: C_2  and  C_4
REMARK    3  A    between atoms: C_2  and  C_37
REMARK    4  A    between atoms: C_7  and  O_13
REMARK    5  A    between atoms: C_10  and  C_16
REMARK    6  A    between atoms: C_16  and  O_17
REMARK    7  A    between atoms: C_19  and  N_26
REMARK    8  A    between atoms: C_27  and  C_29
REMARK    9  A    between atoms: C_29  and  N_30
REMARK                            x       y       z     vdW  Elec       q    Type
REMARK                         _______ _______ _______ _____ _____    ______ ____
ROOT
ATOM      1  N   UNL     1      38.097   4.714  -7.091  0.00  0.00    +0.000 NA
ATOM      2  C   UNL     1      38.877   4.347  -8.066  0.00  0.00    +0.000 C 
ENDROOT
BRANCH   2   4
ATOM      3  N   UNL     1      40.274   1.089  -7.141  0.00  0.00    +0.000 N 
ATOM      4  C   UNL     1      39.638   3.106  -7.868  0.00  0.00    +0.000 A 
ATOM      5  C   UNL     1      40.896   2.757  -8.475  0.00  0.00    +0.000 A 
ATOM      6  C   UNL     1      41.261   1.498  -8.004  0.00  0.00    +0.000 A 
ATOM      7  C   UNL     1      39.293   2.043  -7.044  0.00  0.00    +0.000 A 
ATOM      8  C   UNL     1      41.755   3.399  -9.390  0.00  0.00    +0.000 A 
ATOM      9  C   UNL     1      42.437   0.849  -8.393  0.00  0.00    +0.000 A 
ATOM     10  C   UNL     1      43.271   1.515  -9.300  0.00  0.00    +0.000 A 
ATOM     11  C   UNL     1      42.935   2.771  -9.793  0.00  0.00    +0.000 A 
ATOM     12  H   UNL     1      40.284   0.207  -6.650  0.00  0.00    +0.000 HD
BRANCH   7  13
ATOM     13  O   UNL     1      38.241   1.873  -6.251  0.00  0.00    +0.000 OA
ATOM     14  H   UNL     1      37.556   1.343  -6.695  0.00  0.00    +0.000 HD
ENDBRANCH   7  13
BRANCH  10  16
ATOM     15  O   UNL     1      45.512   1.572 -10.079  0.00  0.00    +0.000 OA
ATOM     16  C   UNL     1      44.535   0.906  -9.769  0.00  0.00    +0.000 C 
BRANCH  16  17
ATOM     17  O   UNL     1      44.389  -0.450  -9.779  0.00  0.00    +0.000 OA
ATOM     18  C   UNL     1      44.175  -1.083 -11.014  0.00  0.00    +0.000 C 
ENDBRANCH  16  17
ENDBRANCH  10  16
ENDBRANCH   2   4
BRANCH   1  22
ATOM     19  C   UNL     1      35.795   8.261  -7.245  0.00  0.00    +0.000 A 
ATOM     20  C   UNL     1      35.332   7.064  -7.798  0.00  0.00    +0.000 A 
ATOM     21  C   UNL     1      37.057   8.238  -6.637  0.00  0.00    +0.000 A 
ATOM     22  C   UNL     1      37.358   5.900  -7.172  0.00  0.00    +0.000 A 
ATOM     23  C   UNL     1      36.092   5.896  -7.757  0.00  0.00    +0.000 A 
ATOM     24  C   UNL     1      37.825   7.076  -6.589  0.00  0.00    +0.000 A 
BRANCH  19  26
ATOM     25  O   UNL     1      36.227  10.457  -9.081  0.00  0.00    +0.000 OA
ATOM     26  N   UNL     1      35.013   9.476  -7.293  0.00  0.00    +0.000 N 
ATOM     27  C   UNL     1      35.331  10.479  -8.243  0.00  0.00    +0.000 C 
ATOM     28  C   UNL     1      33.930   9.561  -6.309  0.00  0.00    +0.000 C 
BRANCH  27  29
ATOM     29  C   UNL     1      34.504  11.678  -8.224  0.00  0.00    +0.000 C 
BRANCH  29  30
ATOM     30  N   UNL     1      33.700  12.898  -8.202  0.00  0.00    +0.000 N 
ATOM     31  N   UNL     1      31.549  13.255  -5.401  0.00  0.00    +0.000 N 
ATOM     32  C   UNL     1      32.290  12.479  -7.966  0.00  0.00    +0.000 C 
ATOM     33  C   UNL     1      33.902  13.514  -6.861  0.00  0.00    +0.000 C 
ATOM     34  C   UNL     1      31.348  12.633  -6.738  0.00  0.00    +0.000 C 
ATOM     35  C   UNL     1      32.960  13.667  -5.632  0.00  0.00    +0.000 C 
ATOM     36  C   UNL     1      31.578  12.170  -4.430  0.00  0.00    +0.000 C 
ENDBRANCH  29  30
ENDBRANCH  27  29
ENDBRANCH  19  26
ENDBRANCH   1  22
BRANCH   2  37
ATOM     37  C   UNL     1      39.050   5.082  -9.332  0.00  0.00    +0.000 A 
ATOM     38  C   UNL     1      38.379   4.649 -10.474  0.00  0.00    +0.000 A 
ATOM     39  C   UNL     1      39.857   6.219  -9.352  0.00  0.00    +0.000 A 
ATOM     40  C   UNL     1      38.526   5.364 -11.658  0.00  0.00    +0.000 A 
ATOM     41  C   UNL     1      39.998   6.926 -10.542  0.00  0.00    +0.000 A 
ATOM     42  C   UNL     1      39.334   6.500 -11.692  0.00  0.00    +0.000 A 
ENDBRANCH   2  37
TORSDOF 9
ENDMDL
MODEL 6
REMARK VINA RESULT:      -5.5     21.608     24.913
REMARK  Name = 135423438_Nintedanib.pdbqt.pdb
REMARK  9 active torsions:
REMARK  status: ('A' for Active; 'I' for Inactive)
REMARK    1  A    between atoms: N_1  and  C_22
REMARK    2  A    between atoms: C_2  and  C_4
REMARK    3  A    between atoms: C_2  and  C_37
REMARK    4  A    between atoms: C_7  and  O_13
REMARK    5  A    between atoms: C_10  and  C_16
REMARK    6  A    between atoms: C_16  and  O_17
REMARK    7  A    between atoms: C_19  and  N_26
REMARK    8  A    between atoms: C_27  and  C_29
REMARK    9  A    between atoms: C_29  and  N_30
REMARK                            x       y       z     vdW  Elec       q    Type
REMARK                         _______ _______ _______ _____ _____    ______ ____
ROOT
ATOM      1  N   UNL     1      34.999  19.218   3.111  0.00  0.00    +0.000 NA
ATOM      2  C   UNL     1      35.553  19.955   2.191  0.00  0.00    +0.000 C 
ENDROOT
BRANCH   2   4
ATOM      3  N   UNL     1      37.563  22.576   3.774  0.00  0.00    +0.000 N 
ATOM      4  C   UNL     1      36.549  20.935   2.643  0.00  0.00    +0.000 A 
ATOM      5  C   UNL     1      37.855  21.161   2.083  0.00  0.00    +0.000 A 
ATOM      6  C   UNL     1      38.459  22.185   2.811  0.00  0.00    +0.000 A 
ATOM      7  C   UNL     1      36.408  21.840   3.687  0.00  0.00    +0.000 A 
ATOM      8  C   UNL     1      38.583  20.580   1.024  0.00  0.00    +0.000 A 
ATOM      9  C   UNL     1      39.744  22.661   2.535  0.00  0.00    +0.000 A 
ATOM     10  C   UNL     1      40.439  22.066   1.474  0.00  0.00    +0.000 A 
ATOM     11  C   UNL     1      39.868  21.039   0.731  0.00  0.00    +0.000 A 
ATOM     12  H   UNL     1      37.740  23.310   4.445  0.00  0.00    +0.000 HD
BRANCH   7  13
ATOM     13  O   UNL     1      35.388  22.055   4.510  0.00  0.00    +0.000 OA
ATOM     14  H   UNL     1      34.587  21.602   4.193  0.00  0.00    +0.000 HD
ENDBRANCH   7  13
BRANCH  10  16
ATOM     15  O   UNL     1      42.282  23.561   1.496  0.00  0.00    +0.000 OA
ATOM     16  C   UNL     1      41.805  22.504   1.110  0.00  0.00    +0.000 C 
BRANCH  16  17
ATOM     17  O   UNL     1      42.371  21.552   0.315  0.00  0.00    +0.000 OA
ATOM     18  C   UNL     1      43.673  21.124   0.620  0.00  0.00    +0.000 C 
ENDBRANCH  16  17
ENDBRANCH  10  16
ENDBRANCH   2   4
BRANCH   1  22
ATOM     19  C   UNL     1      32.019  16.347   2.230  0.00  0.00    +0.000 A 
ATOM     20  C   UNL     1      33.358  15.984   2.396  0.00  0.00    +0.000 A 
ATOM     21  C   UNL     1      31.703  17.705   2.366  0.00  0.00    +0.000 A 
ATOM     22  C   UNL     1      34.014  18.280   2.781  0.00  0.00    +0.000 A 
ATOM     23  C   UNL     1      34.344  16.929   2.678  0.00  0.00    +0.000 A 
ATOM     24  C   UNL     1      32.680  18.659   2.648  0.00  0.00    +0.000 A 
BRANCH  19  26
ATOM     25  O   UNL     1      30.845  14.514   4.139  0.00  0.00    +0.000 OA
ATOM     26  N   UNL     1      30.995  15.371   1.931  0.00  0.00    +0.000 N 
ATOM     27  C   UNL     1      30.504  14.530   2.961  0.00  0.00    +0.000 C 
ATOM     28  C   UNL     1      30.551  15.340   0.534  0.00  0.00    +0.000 C 
BRANCH  27  29
ATOM     29  C   UNL     1      29.479  13.568   2.581  0.00  0.00    +0.000 C 
BRANCH  29  30
ATOM     30  N   UNL     1      28.438  12.623   2.182  0.00  0.00    +0.000 N 
ATOM     31  N   UNL     1      28.003   9.834   4.334  0.00  0.00    +0.000 N 
ATOM     32  C   UNL     1      29.057  11.269   2.198  0.00  0.00    +0.000 C 
ATOM     33  C   UNL     1      27.577  12.411   3.379  0.00  0.00    +0.000 C 
ATOM     34  C   UNL     1      28.869  10.047   3.143  0.00  0.00    +0.000 C 
ATOM     35  C   UNL     1      27.390  11.189   4.324  0.00  0.00    +0.000 C 
ATOM     36  C   UNL     1      28.885   9.777   5.492  0.00  0.00    +0.000 C 
ENDBRANCH  29  30
ENDBRANCH  27  29
ENDBRANCH  19  26
ENDBRANCH   1  22
BRANCH   2  37
ATOM     37  C   UNL     1      35.249  19.876   0.751  0.00  0.00    +0.000 A 
ATOM     38  C   UNL     1      34.458  20.860   0.161  0.00  0.00    +0.000 A 
ATOM     39  C   UNL     1      35.790  18.833  -0.001  0.00  0.00    +0.000 A 
ATOM     40  C   UNL     1      34.199  20.792  -1.204  0.00  0.00    +0.000 A 
ATOM     41  C   UNL     1      35.523  18.774  -1.365  0.00  0.00    +0.000 A 
ATOM     42  C   UNL     1      34.730  19.752  -1.966  0.00  0.00    +0.000 A 
ENDBRANCH   2  37
TORSDOF 9
ENDMDL
MODEL 7
REMARK VINA RESULT:      -5.5     14.197     15.928
REMARK  Name = 135423438_Nintedanib.pdbqt.pdb
REMARK  9 active torsions:
REMARK  status: ('A' for Active; 'I' for Inactive)
REMARK    1  A    between atoms: N_1  and  C_22
REMARK    2  A    between atoms: C_2  and  C_4
REMARK    3  A    between atoms: C_2  and  C_37
REMARK    4  A    between atoms: C_7  and  O_13
REMARK    5  A    between atoms: C_10  and  C_16
REMARK    6  A    between atoms: C_16  and  O_17
REMARK    7  A    between atoms: C_19  and  N_26
REMARK    8  A    between atoms: C_27  and  C_29
REMARK    9  A    between atoms: C_29  and  N_30
REMARK                            x       y       z     vdW  Elec       q    Type
REMARK                         _______ _______ _______ _____ _____    ______ ____
ROOT
ATOM      1  N   UNL     1      50.893  18.611  11.304  0.00  0.00    +0.000 NA
ATOM      2  C   UNL     1      51.606  17.920  12.146  0.00  0.00    +0.000 C 
ENDROOT
BRANCH   2   4
ATOM      3  N   UNL     1      49.669  16.101  14.669  0.00  0.00    +0.000 N 
ATOM      4  C   UNL     1      50.905  17.393  13.324  0.00  0.00    +0.000 A 
ATOM      5  C   UNL     1      50.835  17.996  14.629  0.00  0.00    +0.000 A 
ATOM      6  C   UNL     1      50.063  17.166  15.440  0.00  0.00    +0.000 A 
ATOM      7  C   UNL     1      50.162  16.222  13.394  0.00  0.00    +0.000 A 
ATOM      8  C   UNL     1      51.367  19.172  15.197  0.00  0.00    +0.000 A 
ATOM      9  C   UNL     1      49.790  17.450  16.782  0.00  0.00    +0.000 A 
ATOM     10  C   UNL     1      50.329  18.628  17.315  0.00  0.00    +0.000 A 
ATOM     11  C   UNL     1      51.108  19.475  16.535  0.00  0.00    +0.000 A 
ATOM     12  H   UNL     1      49.093  15.343  15.004  0.00  0.00    +0.000 HD
BRANCH   7  13
ATOM     13  O   UNL     1      49.896  15.313  12.462  0.00  0.00    +0.000 OA
ATOM     14  H   UNL     1      50.246  14.442  12.719  0.00  0.00    +0.000 HD
ENDBRANCH   7  13
BRANCH  10  16
ATOM     15  O   UNL     1      50.603  19.998  19.233  0.00  0.00    +0.000 OA
ATOM     16  C   UNL     1      50.095  19.010  18.725  0.00  0.00    +0.000 C 
BRANCH  16  17
ATOM     17  O   UNL     1      49.256  18.096  19.290  0.00  0.00    +0.000 OA
ATOM     18  C   UNL     1      48.210  18.568  20.100  0.00  0.00    +0.000 C 
ENDBRANCH  16  17
ENDBRANCH  10  16
ENDBRANCH   2   4
BRANCH   1  22
ATOM     19  C   UNL     1      52.557  20.379   7.839  0.00  0.00    +0.000 A 
ATOM     20  C   UNL     1      51.878  19.159   7.784  0.00  0.00    +0.000 A 
ATOM     21  C   UNL     1      52.665  20.994   9.093  0.00  0.00    +0.000 A 
ATOM     22  C   UNL     1      51.479  19.183  10.169  0.00  0.00    +0.000 A 
ATOM     23  C   UNL     1      51.337  18.570   8.925  0.00  0.00    +0.000 A 
ATOM     24  C   UNL     1      52.127  20.415  10.241  0.00  0.00    +0.000 A 
BRANCH  19  26
ATOM     25  O   UNL     1      54.862  19.394   6.391  0.00  0.00    +0.000 OA
ATOM     26  N   UNL     1      53.127  20.990   6.659  0.00  0.00    +0.000 N 
ATOM     27  C   UNL     1      54.262  20.406   6.044  0.00  0.00    +0.000 C 
ATOM     28  C   UNL     1      52.453  22.208   6.199  0.00  0.00    +0.000 C 
BRANCH  27  29
ATOM     29  C   UNL     1      54.784  21.083   4.864  0.00  0.00    +0.000 C 
BRANCH  29  30
ATOM     30  N   UNL     1      55.325  21.779   3.699  0.00  0.00    +0.000 N 
ATOM     31  N   UNL     1      53.254  21.765   0.816  0.00  0.00    +0.000 N 
ATOM     32  C   UNL     1      55.221  20.838   2.550  0.00  0.00    +0.000 C 
ATOM     33  C   UNL     1      54.261  22.710   3.231  0.00  0.00    +0.000 C 
ATOM     34  C   UNL     1      54.312  20.830   1.287  0.00  0.00    +0.000 C 
ATOM     35  C   UNL     1      53.351  22.701   1.968  0.00  0.00    +0.000 C 
ATOM     36  C   UNL     1      51.983  21.064   0.945  0.00  0.00    +0.000 C 
ENDBRANCH  29  30
ENDBRANCH  27  29
ENDBRANCH  19  26
ENDBRANCH   1  22
BRANCH   2  37
ATOM     37  C   UNL     1      53.045  17.638  12.001  0.00  0.00    +0.000 A 
ATOM     38  C   UNL     1      53.458  16.561  11.220  0.00  0.00    +0.000 A 
ATOM     39  C   UNL     1      53.967  18.479  12.624  0.00  0.00    +0.000 A 
ATOM     40  C   UNL     1      54.820  16.318  11.067  0.00  0.00    +0.000 A 
ATOM     41  C   UNL     1      55.326  18.227  12.465  0.00  0.00    +0.000 A 
ATOM     42  C   UNL     1      55.751  17.149  11.688  0.00  0.00    +0.000 A 
ENDBRANCH   2  37
TORSDOF 9
ENDMDL
MODEL 8
REMARK VINA RESULT:      -5.5     19.689     23.594
REMARK  Name = 135423438_Nintedanib.pdbqt.pdb
REMARK  9 active torsions:
REMARK  status: ('A' for Active; 'I' for Inactive)
REMARK    1  A    between atoms: N_1  and  C_22
REMARK    2  A    between atoms: C_2  and  C_4
REMARK    3  A    between atoms: C_2  and  C_37
REMARK    4  A    between atoms: C_7  and  O_13
REMARK    5  A    between atoms: C_10  and  C_16
REMARK    6  A    between atoms: C_16  and  O_17
REMARK    7  A    between atoms: C_19  and  N_26
REMARK    8  A    between atoms: C_27  and  C_29
REMARK    9  A    between atoms: C_29  and  N_30
REMARK                            x       y       z     vdW  Elec       q    Type
REMARK                         _______ _______ _______ _____ _____    ______ ____
ROOT
ATOM      1  N   UNL     1      37.644   5.593  -6.744  0.00  0.00    +0.000 NA
ATOM      2  C   UNL     1      38.238   5.116  -7.799  0.00  0.00    +0.000 C 
ENDROOT
BRANCH   2   4
ATOM      3  N   UNL     1      38.705   1.507  -7.378  0.00  0.00    +0.000 N 
ATOM      4  C   UNL     1      38.674   3.715  -7.733  0.00  0.00    +0.000 A 
ATOM      5  C   UNL     1      39.963   3.193  -8.103  0.00  0.00    +0.000 A 
ATOM      6  C   UNL     1      39.947   1.819  -7.872  0.00  0.00    +0.000 A 
ATOM      7  C   UNL     1      37.928   2.634  -7.283  0.00  0.00    +0.000 A 
ATOM      8  C   UNL     1      41.142   3.767  -8.620  0.00  0.00    +0.000 A 
ATOM      9  C   UNL     1      41.045   0.990  -8.126  0.00  0.00    +0.000 A 
ATOM     10  C   UNL     1      42.203   1.591  -8.636  0.00  0.00    +0.000 A 
ATOM     11  C   UNL     1      42.251   2.959  -8.882  0.00  0.00    +0.000 A 
ATOM     12  H   UNL     1      38.418   0.575  -7.119  0.00  0.00    +0.000 HD
BRANCH   7  13
ATOM     13  O   UNL     1      36.686   2.578  -6.813  0.00  0.00    +0.000 OA
ATOM     14  H   UNL     1      36.404   1.655  -6.693  0.00  0.00    +0.000 HD
ENDBRANCH   7  13
BRANCH  10  16
ATOM     15  O   UNL     1      44.518   1.298  -9.070  0.00  0.00    +0.000 OA
ATOM     16  C   UNL     1      43.413   0.794  -8.936  0.00  0.00    +0.000 C 
BRANCH  16  17
ATOM     17  O   UNL     1      43.059  -0.520  -9.024  0.00  0.00    +0.000 OA
ATOM     18  C   UNL     1      43.179  -1.156 -10.270  0.00  0.00    +0.000 C 
ENDBRANCH  16  17
ENDBRANCH  10  16
ENDBRANCH   2   4
BRANCH   1  22
ATOM     19  C   UNL     1      36.293   9.597  -6.522  0.00  0.00    +0.000 A 
ATOM     20  C   UNL     1      35.559   8.613  -7.189  0.00  0.00    +0.000 A 
ATOM     21  C   UNL     1      37.499   9.201  -5.927  0.00  0.00    +0.000 A 
ATOM     22  C   UNL     1      37.222   6.927  -6.699  0.00  0.00    +0.000 A 
ATOM     23  C   UNL     1      36.006   7.295  -7.272  0.00  0.00    +0.000 A 
ATOM     24  C   UNL     1      37.956   7.886  -6.003  0.00  0.00    +0.000 A 
BRANCH  19  26
ATOM     25  O   UNL     1      33.540  10.427  -6.190  0.00  0.00    +0.000 OA
ATOM     26  N   UNL     1      35.838  10.966  -6.440  0.00  0.00    +0.000 N 
ATOM     27  C   UNL     1      34.456  11.238  -6.277  0.00  0.00    +0.000 C 
ATOM     28  C   UNL     1      36.889  11.981  -6.545  0.00  0.00    +0.000 C 
BRANCH  27  29
ATOM     29  C   UNL     1      34.073  12.642  -6.211  0.00  0.00    +0.000 C 
BRANCH  29  30
ATOM     30  N   UNL     1      33.668  14.043  -6.124  0.00  0.00    +0.000 N 
ATOM     31  N   UNL     1      32.342  15.055  -2.990  0.00  0.00    +0.000 N 
ATOM     32  C   UNL     1      32.280  14.057  -5.585  0.00  0.00    +0.000 C 
ATOM     33  C   UNL     1      34.313  14.594  -4.899  0.00  0.00    +0.000 C 
ATOM     34  C   UNL     1      31.699  14.497  -4.210  0.00  0.00    +0.000 C 
ATOM     35  C   UNL     1      33.731  15.034  -3.524  0.00  0.00    +0.000 C 
ATOM     36  C   UNL     1      32.268  14.023  -1.964  0.00  0.00    +0.000 C 
ENDBRANCH  29  30
ENDBRANCH  27  29
ENDBRANCH  19  26
ENDBRANCH   1  22
BRANCH   2  37
ATOM     37  C   UNL     1      38.502   5.876  -9.034  0.00  0.00    +0.000 A 
ATOM     38  C   UNL     1      39.542   6.803  -9.060  0.00  0.00    +0.000 A 
ATOM     39  C   UNL     1      37.725   5.626 -10.164  0.00  0.00    +0.000 A 
ATOM     40  C   UNL     1      39.802   7.496 -10.238  0.00  0.00    +0.000 A 
ATOM     41  C   UNL     1      37.992   6.326 -11.337  0.00  0.00    +0.000 A 
ATOM     42  C   UNL     1      39.029   7.259 -11.374  0.00  0.00    +0.000 A 
ENDBRANCH   2  37
TORSDOF 9
ENDMDL
MODEL 9
REMARK VINA RESULT:      -5.3     19.735     23.746
REMARK  Name = 135423438_Nintedanib.pdbqt.pdb
REMARK  9 active torsions:
REMARK  status: ('A' for Active; 'I' for Inactive)
REMARK    1  A    between atoms: N_1  and  C_22
REMARK    2  A    between atoms: C_2  and  C_4
REMARK    3  A    between atoms: C_2  and  C_37
REMARK    4  A    between atoms: C_7  and  O_13
REMARK    5  A    between atoms: C_10  and  C_16
REMARK    6  A    between atoms: C_16  and  O_17
REMARK    7  A    between atoms: C_19  and  N_26
REMARK    8  A    between atoms: C_27  and  C_29
REMARK    9  A    between atoms: C_29  and  N_30
REMARK                            x       y       z     vdW  Elec       q    Type
REMARK                         _______ _______ _______ _____ _____    ______ ____
ROOT
ATOM      1  N   UNL     1      38.852   5.175  -7.763  0.00  0.00    +0.000 NA
ATOM      2  C   UNL     1      38.448   3.956  -7.975  0.00  0.00    +0.000 C 
ENDROOT
BRANCH   2   4
ATOM      3  N   UNL     1      40.602   1.104  -7.170  0.00  0.00    +0.000 N 
ATOM      4  C   UNL     1      39.461   2.898  -7.864  0.00  0.00    +0.000 A 
ATOM      5  C   UNL     1      40.633   2.735  -8.682  0.00  0.00    +0.000 A 
ATOM      6  C   UNL     1      41.317   1.610  -8.226  0.00  0.00    +0.000 A 
ATOM      7  C   UNL     1      39.486   1.867  -6.934  0.00  0.00    +0.000 A 
ATOM      8  C   UNL     1      41.171   3.441  -9.778  0.00  0.00    +0.000 A 
ATOM      9  C   UNL     1      42.509   1.157  -8.801  0.00  0.00    +0.000 A 
ATOM     10  C   UNL     1      43.020   1.883  -9.885  0.00  0.00    +0.000 A 
ATOM     11  C   UNL     1      42.359   3.007 -10.368  0.00  0.00    +0.000 A 
ATOM     12  H   UNL     1      40.873   0.287  -6.644  0.00  0.00    +0.000 HD
BRANCH   7  13
ATOM     13  O   UNL     1      38.647   1.577  -5.945  0.00  0.00    +0.000 OA
ATOM     14  H   UNL     1      38.791   0.668  -5.626  0.00  0.00    +0.000 HD
ENDBRANCH   7  13
BRANCH  10  16
ATOM     15  O   UNL     1      44.391   1.450 -11.773  0.00  0.00    +0.000 OA
ATOM     16  C   UNL     1      44.274   1.477 -10.557  0.00  0.00    +0.000 C 
BRANCH  16  17
ATOM     17  O   UNL     1      45.198   1.167  -9.604  0.00  0.00    +0.000 OA
ATOM     18  C   UNL     1      45.988   0.021  -9.796  0.00  0.00    +0.000 C 
ENDBRANCH  16  17
ENDBRANCH  10  16
ENDBRANCH   2   4
BRANCH   1  22
ATOM     19  C   UNL     1      36.261   8.507  -8.062  0.00  0.00    +0.000 A 
ATOM     20  C   UNL     1      36.425   7.813  -6.861  0.00  0.00    +0.000 A 
ATOM     21  C   UNL     1      36.991   8.051  -9.168  0.00  0.00    +0.000 A 
ATOM     22  C   UNL     1      37.968   6.254  -7.879  0.00  0.00    +0.000 A 
ATOM     23  C   UNL     1      37.271   6.710  -6.761  0.00  0.00    +0.000 A 
ATOM     24  C   UNL     1      37.841   6.950  -9.080  0.00  0.00    +0.000 A 
BRANCH  19  26
ATOM     25  O   UNL     1      36.993  11.249  -7.492  0.00  0.00    +0.000 OA
ATOM     26  N   UNL     1      35.379   9.647  -8.172  0.00  0.00    +0.000 N 
ATOM     27  C   UNL     1      35.863  10.942  -7.861  0.00  0.00    +0.000 C 
ATOM     28  C   UNL     1      34.012   9.340  -8.605  0.00  0.00    +0.000 C 
BRANCH  27  29
ATOM     29  C   UNL     1      34.914  12.040  -7.988  0.00  0.00    +0.000 C 
BRANCH  29  30
ATOM     30  N   UNL     1      33.963  13.138  -8.145  0.00  0.00    +0.000 N 
ATOM     31  N   UNL     1      33.146  14.886  -5.166  0.00  0.00    +0.000 N 
ATOM     32  C   UNL     1      32.896  12.931  -7.128  0.00  0.00    +0.000 C 
ATOM     33  C   UNL     1      34.575  14.325  -7.486  0.00  0.00    +0.000 C 
ATOM     34  C   UNL     1      32.539  13.695  -5.820  0.00  0.00    +0.000 C 
ATOM     35  C   UNL     1      34.218  15.089  -6.177  0.00  0.00    +0.000 C 
ATOM     36  C   UNL     1      33.796  14.415  -3.950  0.00  0.00    +0.000 C 
ENDBRANCH  29  30
ENDBRANCH  27  29
ENDBRANCH  19  26
ENDBRANCH   1  22
BRANCH   2  37
ATOM     37  C   UNL     1      37.066   3.572  -8.317  0.00  0.00    +0.000 A 
ATOM     38  C   UNL     1      36.140   3.364  -7.297  0.00  0.00    +0.000 A 
ATOM     39  C   UNL     1      36.706   3.459  -9.659  0.00  0.00    +0.000 A 
ATOM     40  C   UNL     1      34.831   3.028  -7.630  0.00  0.00    +0.000 A 
ATOM     41  C   UNL     1      35.395   3.121  -9.981  0.00  0.00    +0.000 A 
ATOM     42  C   UNL     1      34.460   2.907  -8.969  0.00  0.00    +0.000 A 
ENDBRANCH   2  37
TORSDOF 9
ENDMDL
