MODEL 1
REMARK VINA RESULT:      -8.3      0.000      0.000
REMARK  Name = 14132199_RiccardinD.pdbqt.pdb
REMARK  3 active torsions:
REMARK  status: ('A' for Active; 'I' for Inactive)
REMARK    1  A    between atoms: C_11  and  O_30
REMARK    2  A    between atoms: C_16  and  O_32
REMARK    3  A    between atoms: C_28  and  O_34
REMARK                            x       y       z     vdW  Elec       q    Type
REMARK                         _______ _______ _______ _____ _____    ______ ____
ROOT
ATOM      1  O   UNL     1      50.642  -1.146   5.524  0.00  0.00    +0.000 OA
ATOM      2  C   UNL     1      50.824   3.626  10.579  0.00  0.00    +0.000 C 
ATOM      3  C   UNL     1      50.976   4.937  11.142  0.00  0.00    +0.000 A 
ATOM      4  C   UNL     1      51.326   6.054  10.340  0.00  0.00    +0.000 A 
ATOM      5  C   UNL     1      50.675   2.298   9.818  0.00  0.00    +0.000 C 
ATOM      6  C   UNL     1      52.165   4.402   5.027  0.00  0.00    +0.000 C 
ATOM      7  C   UNL     1      51.672   5.883   8.912  0.00  0.00    +0.000 A 
ATOM      8  C   UNL     1      52.177   5.150   6.240  0.00  0.00    +0.000 A 
ATOM      9  C   UNL     1      52.007   3.221   4.065  0.00  0.00    +0.000 C 
ATOM     10  C   UNL     1      50.578   1.186   8.931  0.00  0.00    +0.000 A 
ATOM     11  C   UNL     1      50.902   6.398   7.858  0.00  0.00    +0.000 A 
ATOM     12  C   UNL     1      51.726   1.883   3.678  0.00  0.00    +0.000 A 
ATOM     13  C   UNL     1      52.776   5.089   8.573  0.00  0.00    +0.000 A 
ATOM     14  C   UNL     1      51.132   6.021   6.533  0.00  0.00    +0.000 A 
ATOM     15  C   UNL     1      53.024   4.716   7.256  0.00  0.00    +0.000 A 
ATOM     16  C   UNL     1      51.342   7.311  10.972  0.00  0.00    +0.000 A 
ATOM     17  C   UNL     1      50.715   5.084  12.506  0.00  0.00    +0.000 A 
ATOM     18  C   UNL     1      51.100   7.450  12.338  0.00  0.00    +0.000 A 
ATOM     19  C   UNL     1      50.795   6.334  13.108  0.00  0.00    +0.000 A 
ATOM     20  C   UNL     1      51.330   1.039   4.710  0.00  0.00    +0.000 A 
ATOM     21  C   UNL     1      51.720   0.443   8.628  0.00  0.00    +0.000 A 
ATOM     22  C   UNL     1      49.399   0.985   8.211  0.00  0.00    +0.000 A 
ATOM     23  C   UNL     1      51.033  -0.302   4.497  0.00  0.00    +0.000 A 
ATOM     24  C   UNL     1      51.830   1.390   2.386  0.00  0.00    +0.000 A 
ATOM     25  C   UNL     1      50.561  -0.546   6.767  0.00  0.00    +0.000 A 
ATOM     26  C   UNL     1      51.712  -0.437   7.549  0.00  0.00    +0.000 A 
ATOM     27  C   UNL     1      49.382   0.107   7.130  0.00  0.00    +0.000 A 
ATOM     28  C   UNL     1      51.138  -0.795   3.201  0.00  0.00    +0.000 A 
ATOM     29  C   UNL     1      51.532   0.042   2.151  0.00  0.00    +0.000 A 
ENDROOT
BRANCH  11  30
ATOM     30  O   UNL     1      49.887   7.276   8.134  0.00  0.00    +0.000 OA
ATOM     31  H   UNL     1      49.088   6.975   7.660  0.00  0.00    +0.000 HD
ENDBRANCH  11  30
BRANCH  16  32
ATOM     32  O   UNL     1      51.577   8.472  10.284  0.00  0.00    +0.000 OA
ATOM     33  H   UNL     1      52.369   8.880  10.682  0.00  0.00    +0.000 HD
ENDBRANCH  16  32
BRANCH  28  34
ATOM     34  O   UNL     1      50.861  -2.102   2.913  0.00  0.00    +0.000 OA
ATOM     35  H   UNL     1      50.366  -2.467   3.669  0.00  0.00    +0.000 HD
ENDBRANCH  28  34
TORSDOF 3
ENDMDL
MODEL 2
REMARK VINA RESULT:      -8.2     12.602     14.349
REMARK  Name = 14132199_RiccardinD.pdbqt.pdb
REMARK  3 active torsions:
REMARK  status: ('A' for Active; 'I' for Inactive)
REMARK    1  A    between atoms: C_11  and  O_30
REMARK    2  A    between atoms: C_16  and  O_32
REMARK    3  A    between atoms: C_28  and  O_34
REMARK                            x       y       z     vdW  Elec       q    Type
REMARK                         _______ _______ _______ _____ _____    ______ ____
ROOT
ATOM      1  O   UNL     1      43.322  -6.949  17.420  0.00  0.00    +0.000 OA
ATOM      2  C   UNL     1      40.780  -0.488  17.823  0.00  0.00    +0.000 C 
ATOM      3  C   UNL     1      40.285   0.761  17.321  0.00  0.00    +0.000 A 
ATOM      4  C   UNL     1      40.235   1.036  15.930  0.00  0.00    +0.000 A 
ATOM      5  C   UNL     1      41.311  -1.883  18.194  0.00  0.00    +0.000 C 
ATOM      6  C   UNL     1      42.410  -3.284  13.052  0.00  0.00    +0.000 C 
ATOM      7  C   UNL     1      40.813   0.090  14.949  0.00  0.00    +0.000 A 
ATOM      8  C   UNL     1      41.939  -1.989  13.420  0.00  0.00    +0.000 A 
ATOM      9  C   UNL     1      42.898  -4.728  13.183  0.00  0.00    +0.000 C 
ATOM     10  C   UNL     1      41.815  -3.211  18.319  0.00  0.00    +0.000 A 
ATOM     11  C   UNL     1      40.049  -0.619  14.010  0.00  0.00    +0.000 A 
ATOM     12  C   UNL     1      43.265  -5.926  13.856  0.00  0.00    +0.000 A 
ATOM     13  C   UNL     1      42.184  -0.195  15.010  0.00  0.00    +0.000 A 
ATOM     14  C   UNL     1      40.595  -1.665  13.264  0.00  0.00    +0.000 A 
ATOM     15  C   UNL     1      42.743  -1.227  14.263  0.00  0.00    +0.000 A 
ATOM     16  C   UNL     1      39.633   2.246  15.541  0.00  0.00    +0.000 A 
ATOM     17  C   UNL     1      39.803   1.682  18.254  0.00  0.00    +0.000 A 
ATOM     18  C   UNL     1      39.171   3.171  16.477  0.00  0.00    +0.000 A 
ATOM     19  C   UNL     1      39.264   2.892  17.835  0.00  0.00    +0.000 A 
ATOM     20  C   UNL     1      43.127  -5.893  15.239  0.00  0.00    +0.000 A 
ATOM     21  C   UNL     1      43.193  -3.425  18.363  0.00  0.00    +0.000 A 
ATOM     22  C   UNL     1      40.941  -4.291  18.180  0.00  0.00    +0.000 A 
ATOM     23  C   UNL     1      43.456  -6.980  16.041  0.00  0.00    +0.000 A 
ATOM     24  C   UNL     1      43.743  -7.071  13.237  0.00  0.00    +0.000 A 
ATOM     25  C   UNL     1      42.826  -5.762  17.928  0.00  0.00    +0.000 A 
ATOM     26  C   UNL     1      43.706  -4.707  18.179  0.00  0.00    +0.000 A 
ATOM     27  C   UNL     1      41.445  -5.576  17.994  0.00  0.00    +0.000 A 
ATOM     28  C   UNL     1      43.935  -8.128  15.420  0.00  0.00    +0.000 A 
ATOM     29  C   UNL     1      44.078  -8.177  14.029  0.00  0.00    +0.000 A 
ENDROOT
BRANCH  11  30
ATOM     30  O   UNL     1      38.731  -0.290  13.831  0.00  0.00    +0.000 OA
ATOM     31  H   UNL     1      38.207  -1.114  13.850  0.00  0.00    +0.000 HD
ENDBRANCH  11  30
BRANCH  16  32
ATOM     32  O   UNL     1      39.446   2.581  14.225  0.00  0.00    +0.000 OA
ATOM     33  H   UNL     1      38.499   2.792  14.121  0.00  0.00    +0.000 HD
ENDBRANCH  16  32
BRANCH  28  34
ATOM     34  O   UNL     1      44.279  -9.235  16.142  0.00  0.00    +0.000 OA
ATOM     35  H   UNL     1      43.968 -10.013  15.645  0.00  0.00    +0.000 HD
ENDBRANCH  28  34
TORSDOF 3
ENDMDL
MODEL 3
REMARK VINA RESULT:      -8.0      2.161      4.253
REMARK  Name = 14132199_RiccardinD.pdbqt.pdb
REMARK  3 active torsions:
REMARK  status: ('A' for Active; 'I' for Inactive)
REMARK    1  A    between atoms: C_11  and  O_30
REMARK    2  A    between atoms: C_16  and  O_32
REMARK    3  A    between atoms: C_28  and  O_34
REMARK                            x       y       z     vdW  Elec       q    Type
REMARK                         _______ _______ _______ _____ _____    ______ ____
ROOT
ATOM      1  O   UNL     1      52.434  -0.750   4.088  0.00  0.00    +0.000 OA
ATOM      2  C   UNL     1      51.978   4.675   8.416  0.00  0.00    +0.000 C 
ATOM      3  C   UNL     1      51.594   5.373   9.609  0.00  0.00    +0.000 A 
ATOM      4  C   UNL     1      50.809   4.752  10.615  0.00  0.00    +0.000 A 
ATOM      5  C   UNL     1      52.324   3.780   7.215  0.00  0.00    +0.000 C 
ATOM      6  C   UNL     1      49.416  -0.457   9.003  0.00  0.00    +0.000 C 
ATOM      7  C   UNL     1      50.247   3.398  10.410  0.00  0.00    +0.000 A 
ATOM      8  C   UNL     1      49.442   0.803   9.670  0.00  0.00    +0.000 A 
ATOM      9  C   UNL     1      49.692  -1.535   7.952  0.00  0.00    +0.000 C 
ATOM     10  C   UNL     1      52.539   2.791   6.210  0.00  0.00    +0.000 A 
ATOM     11  C   UNL     1      50.630   2.276  11.160  0.00  0.00    +0.000 A 
ATOM     12  C   UNL     1      50.239  -2.087   6.762  0.00  0.00    +0.000 A 
ATOM     13  C   UNL     1      49.351   3.190   9.351  0.00  0.00    +0.000 A 
ATOM     14  C   UNL     1      50.253   0.985  10.786  0.00  0.00    +0.000 A 
ATOM     15  C   UNL     1      48.959   1.909   8.976  0.00  0.00    +0.000 A 
ATOM     16  C   UNL     1      50.581   5.490  11.791  0.00  0.00    +0.000 A 
ATOM     17  C   UNL     1      52.069   6.677   9.770  0.00  0.00    +0.000 A 
ATOM     18  C   UNL     1      51.040   6.798  11.939  0.00  0.00    +0.000 A 
ATOM     19  C   UNL     1      51.777   7.395  10.923  0.00  0.00    +0.000 A 
ATOM     20  C   UNL     1      51.040  -1.224   6.023  0.00  0.00    +0.000 A 
ATOM     21  C   UNL     1      51.601   2.630   5.189  0.00  0.00    +0.000 A 
ATOM     22  C   UNL     1      53.564   1.858   6.376  0.00  0.00    +0.000 A 
ATOM     23  C   UNL     1      51.638  -1.609   4.828  0.00  0.00    +0.000 A 
ATOM     24  C   UNL     1      50.019  -3.380   6.311  0.00  0.00    +0.000 A 
ATOM     25  C   UNL     1      52.594   0.509   4.638  0.00  0.00    +0.000 A 
ATOM     26  C   UNL     1      51.632   1.490   4.389  0.00  0.00    +0.000 A 
ATOM     27  C   UNL     1      53.602   0.715   5.580  0.00  0.00    +0.000 A 
ATOM     28  C   UNL     1      51.416  -2.905   4.377  0.00  0.00    +0.000 A 
ATOM     29  C   UNL     1      50.615  -3.787   5.110  0.00  0.00    +0.000 A 
ENDROOT
BRANCH  11  30
ATOM     30  O   UNL     1      51.406   2.448  12.275  0.00  0.00    +0.000 OA
ATOM     31  H   UNL     1      51.141   3.283  12.705  0.00  0.00    +0.000 HD
ENDBRANCH  11  30
BRANCH  16  32
ATOM     32  O   UNL     1      49.914   4.964  12.866  0.00  0.00    +0.000 OA
ATOM     33  H   UNL     1      50.219   5.454  13.653  0.00  0.00    +0.000 HD
ENDBRANCH  16  32
BRANCH  28  34
ATOM     34  O   UNL     1      51.970  -3.356   3.212  0.00  0.00    +0.000 OA
ATOM     35  H   UNL     1      51.240  -3.519   2.588  0.00  0.00    +0.000 HD
ENDBRANCH  28  34
TORSDOF 3
ENDMDL
MODEL 4
REMARK VINA RESULT:      -7.5      3.277      8.932
REMARK  Name = 14132199_RiccardinD.pdbqt.pdb
REMARK  3 active torsions:
REMARK  status: ('A' for Active; 'I' for Inactive)
REMARK    1  A    between atoms: C_11  and  O_30
REMARK    2  A    between atoms: C_16  and  O_32
REMARK    3  A    between atoms: C_28  and  O_34
REMARK                            x       y       z     vdW  Elec       q    Type
REMARK                         _______ _______ _______ _____ _____    ______ ____
ROOT
ATOM      1  O   UNL     1      56.810   7.873  11.012  0.00  0.00    +0.000 OA
ATOM      2  C   UNL     1      52.482   3.380   7.940  0.00  0.00    +0.000 C 
ATOM      3  C   UNL     1      51.293   2.589   7.800  0.00  0.00    +0.000 A 
ATOM      4  C   UNL     1      50.299   2.555   8.812  0.00  0.00    +0.000 A 
ATOM      5  C   UNL     1      53.679   4.298   8.232  0.00  0.00    +0.000 C 
ATOM      6  C   UNL     1      51.935   5.679  13.198  0.00  0.00    +0.000 C 
ATOM      7  C   UNL     1      50.513   3.238  10.108  0.00  0.00    +0.000 A 
ATOM      8  C   UNL     1      51.267   4.723  12.379  0.00  0.00    +0.000 A 
ATOM      9  C   UNL     1      52.984   6.693  13.664  0.00  0.00    +0.000 C 
ATOM     10  C   UNL     1      54.683   5.203   8.689  0.00  0.00    +0.000 A 
ATOM     11  C   UNL     1      49.759   4.339  10.540  0.00  0.00    +0.000 A 
ATOM     12  C   UNL     1      54.167   7.476  13.584  0.00  0.00    +0.000 A 
ATOM     13  C   UNL     1      51.583   2.833  10.918  0.00  0.00    +0.000 A 
ATOM     14  C   UNL     1      50.140   5.093  11.652  0.00  0.00    +0.000 A 
ATOM     15  C   UNL     1      51.965   3.569  12.035  0.00  0.00    +0.000 A 
ATOM     16  C   UNL     1      49.125   1.834   8.529  0.00  0.00    +0.000 A 
ATOM     17  C   UNL     1      51.124   1.889   6.603  0.00  0.00    +0.000 A 
ATOM     18  C   UNL     1      48.970   1.121   7.340  0.00  0.00    +0.000 A 
ATOM     19  C   UNL     1      49.974   1.142   6.380  0.00  0.00    +0.000 A 
ATOM     20  C   UNL     1      54.894   7.331  12.408  0.00  0.00    +0.000 A 
ATOM     21  C   UNL     1      55.716   4.735   9.502  0.00  0.00    +0.000 A 
ATOM     22  C   UNL     1      54.504   6.575   8.500  0.00  0.00    +0.000 A 
ATOM     23  C   UNL     1      56.081   8.018  12.182  0.00  0.00    +0.000 A 
ATOM     24  C   UNL     1      54.623   8.332  14.575  0.00  0.00    +0.000 A 
ATOM     25  C   UNL     1      56.256   7.004  10.090  0.00  0.00    +0.000 A 
ATOM     26  C   UNL     1      56.517   5.637  10.199  0.00  0.00    +0.000 A 
ATOM     27  C   UNL     1      55.301   7.484   9.194  0.00  0.00    +0.000 A 
ATOM     28  C   UNL     1      56.537   8.876  13.177  0.00  0.00    +0.000 A 
ATOM     29  C   UNL     1      55.816   9.035  14.365  0.00  0.00    +0.000 A 
ENDROOT
BRANCH  11  30
ATOM     30  O   UNL     1      48.633   4.696   9.846  0.00  0.00    +0.000 OA
ATOM     31  H   UNL     1      47.855   4.406  10.360  0.00  0.00    +0.000 HD
ENDBRANCH  11  30
BRANCH  16  32
ATOM     32  O   UNL     1      48.059   1.803   9.389  0.00  0.00    +0.000 OA
ATOM     33  H   UNL     1      48.416   1.580  10.270  0.00  0.00    +0.000 HD
ENDBRANCH  16  32
BRANCH  28  34
ATOM     34  O   UNL     1      57.695   9.586  13.027  0.00  0.00    +0.000 OA
ATOM     35  H   UNL     1      58.031   9.784  13.920  0.00  0.00    +0.000 HD
ENDBRANCH  28  34
TORSDOF 3
ENDMDL
MODEL 5
REMARK VINA RESULT:      -6.7     12.839     15.230
REMARK  Name = 14132199_RiccardinD.pdbqt.pdb
REMARK  3 active torsions:
REMARK  status: ('A' for Active; 'I' for Inactive)
REMARK    1  A    between atoms: C_11  and  O_30
REMARK    2  A    between atoms: C_16  and  O_32
REMARK    3  A    between atoms: C_28  and  O_34
REMARK                            x       y       z     vdW  Elec       q    Type
REMARK                         _______ _______ _______ _____ _____    ______ ____
ROOT
ATOM      1  O   UNL     1      44.948  -4.950  20.775  0.00  0.00    +0.000 OA
ATOM      2  C   UNL     1      41.532   0.090  17.415  0.00  0.00    +0.000 C 
ATOM      3  C   UNL     1      40.849   0.703  16.312  0.00  0.00    +0.000 A 
ATOM      4  C   UNL     1      40.714   0.045  15.062  0.00  0.00    +0.000 A 
ATOM      5  C   UNL     1      42.267  -0.714  18.500  0.00  0.00    +0.000 C 
ATOM      6  C   UNL     1      43.381  -4.908  15.217  0.00  0.00    +0.000 C 
ATOM      7  C   UNL     1      41.387  -1.249  14.811  0.00  0.00    +0.000 A 
ATOM      8  C   UNL     1      42.744  -3.716  14.764  0.00  0.00    +0.000 A 
ATOM      9  C   UNL     1      44.073  -5.905  16.150  0.00  0.00    +0.000 C 
ATOM     10  C   UNL     1      42.957  -1.622  19.356  0.00  0.00    +0.000 A 
ATOM     11  C   UNL     1      40.700  -2.454  14.599  0.00  0.00    +0.000 A 
ATOM     12  C   UNL     1      44.627  -6.382  17.369  0.00  0.00    +0.000 A 
ATOM     13  C   UNL     1      42.786  -1.309  14.876  0.00  0.00    +0.000 A 
ATOM     14  C   UNL     1      41.364  -3.682  14.597  0.00  0.00    +0.000 A 
ATOM     15  C   UNL     1      43.460  -2.526  14.863  0.00  0.00    +0.000 A 
ATOM     16  C   UNL     1      39.934   0.689  14.084  0.00  0.00    +0.000 A 
ATOM     17  C   UNL     1      40.273   1.957  16.531  0.00  0.00    +0.000 A 
ATOM     18  C   UNL     1      39.377   1.949  14.301  0.00  0.00    +0.000 A 
ATOM     19  C   UNL     1      39.555   2.587  15.522  0.00  0.00    +0.000 A 
ATOM     20  C   UNL     1      44.532  -5.508  18.445  0.00  0.00    +0.000 A 
ATOM     21  C   UNL     1      44.353  -1.637  19.364  0.00  0.00    +0.000 A 
ATOM     22  C   UNL     1      42.241  -2.627  20.009  0.00  0.00    +0.000 A 
ATOM     23  C   UNL     1      45.038  -5.822  19.701  0.00  0.00    +0.000 A 
ATOM     24  C   UNL     1      45.241  -7.615  17.534  0.00  0.00    +0.000 A 
ATOM     25  C   UNL     1      44.306  -3.757  20.499  0.00  0.00    +0.000 A 
ATOM     26  C   UNL     1      45.035  -2.702  19.948  0.00  0.00    +0.000 A 
ATOM     27  C   UNL     1      42.915  -3.696  20.595  0.00  0.00    +0.000 A 
ATOM     28  C   UNL     1      45.654  -7.057  19.866  0.00  0.00    +0.000 A 
ATOM     29  C   UNL     1      45.756  -7.950  18.793  0.00  0.00    +0.000 A 
ENDROOT
BRANCH  11  30
ATOM     30  O   UNL     1      39.343  -2.429  14.408  0.00  0.00    +0.000 OA
ATOM     31  H   UNL     1      39.023  -1.532  14.624  0.00  0.00    +0.000 HD
ENDBRANCH  11  30
BRANCH  16  32
ATOM     32  O   UNL     1      39.658   0.111  12.873  0.00  0.00    +0.000 OA
ATOM     33  H   UNL     1      40.386   0.359  12.271  0.00  0.00    +0.000 HD
ENDBRANCH  16  32
BRANCH  28  34
ATOM     34  O   UNL     1      46.175  -7.437  21.071  0.00  0.00    +0.000 OA
ATOM     35  H   UNL     1      45.449  -7.414  21.720  0.00  0.00    +0.000 HD
ENDBRANCH  28  34
TORSDOF 3
ENDMDL
MODEL 6
REMARK VINA RESULT:      -6.6      3.671      6.819
REMARK  Name = 14132199_RiccardinD.pdbqt.pdb
REMARK  3 active torsions:
REMARK  status: ('A' for Active; 'I' for Inactive)
REMARK    1  A    between atoms: C_11  and  O_30
REMARK    2  A    between atoms: C_16  and  O_32
REMARK    3  A    between atoms: C_28  and  O_34
REMARK                            x       y       z     vdW  Elec       q    Type
REMARK                         _______ _______ _______ _____ _____    ______ ____
ROOT
ATOM      1  O   UNL     1      54.711  -0.899  11.141  0.00  0.00    +0.000 OA
ATOM      2  C   UNL     1      52.224   4.746   7.931  0.00  0.00    +0.000 C 
ATOM      3  C   UNL     1      51.703   6.080   7.836  0.00  0.00    +0.000 A 
ATOM      4  C   UNL     1      51.452   6.864   8.991  0.00  0.00    +0.000 A 
ATOM      5  C   UNL     1      52.808   3.351   8.204  0.00  0.00    +0.000 C 
ATOM      6  C   UNL     1      52.576   3.861  13.616  0.00  0.00    +0.000 C 
ATOM      7  C   UNL     1      51.598   6.286  10.346  0.00  0.00    +0.000 A 
ATOM      8  C   UNL     1      52.071   4.849  12.722  0.00  0.00    +0.000 A 
ATOM      9  C   UNL     1      53.207   2.559  14.115  0.00  0.00    +0.000 C 
ATOM     10  C   UNL     1      53.348   2.115   8.671  0.00  0.00    +0.000 A 
ATOM     11  C   UNL     1      52.569   6.705  11.269  0.00  0.00    +0.000 A 
ATOM     12  C   UNL     1      53.799   1.271  14.007  0.00  0.00    +0.000 A 
ATOM     13  C   UNL     1      50.792   5.198  10.709  0.00  0.00    +0.000 A 
ATOM     14  C   UNL     1      52.824   5.984  12.438  0.00  0.00    +0.000 A 
ATOM     15  C   UNL     1      51.028   4.479  11.877  0.00  0.00    +0.000 A 
ATOM     16  C   UNL     1      51.044   8.194   8.782  0.00  0.00    +0.000 A 
ATOM     17  C   UNL     1      51.500   6.600   6.555  0.00  0.00    +0.000 A 
ATOM     18  C   UNL     1      50.824   8.703   7.502  0.00  0.00    +0.000 A 
ATOM     19  C   UNL     1      51.044   7.901   6.388  0.00  0.00    +0.000 A 
ATOM     20  C   UNL     1      53.980   0.810  12.708  0.00  0.00    +0.000 A 
ATOM     21  C   UNL     1      52.487   1.076   9.025  0.00  0.00    +0.000 A 
ATOM     22  C   UNL     1      54.709   2.034   8.971  0.00  0.00    +0.000 A 
ATOM     23  C   UNL     1      54.533  -0.436  12.435  0.00  0.00    +0.000 A 
ATOM     24  C   UNL     1      54.180   0.479  15.079  0.00  0.00    +0.000 A 
ATOM     25  C   UNL     1      54.307  -0.022  10.151  0.00  0.00    +0.000 A 
ATOM     26  C   UNL     1      52.967  -0.006   9.759  0.00  0.00    +0.000 A 
ATOM     27  C   UNL     1      55.197   0.955   9.705  0.00  0.00    +0.000 A 
ATOM     28  C   UNL     1      54.915  -1.230  13.510  0.00  0.00    +0.000 A 
ATOM     29  C   UNL     1      54.742  -0.779  14.824  0.00  0.00    +0.000 A 
ENDROOT
BRANCH  11  30
ATOM     30  O   UNL     1      53.298   7.835  11.010  0.00  0.00    +0.000 OA
ATOM     31  H   UNL     1      52.883   8.298  10.257  0.00  0.00    +0.000 HD
ENDBRANCH  11  30
BRANCH  16  32
ATOM     32  O   UNL     1      50.858   9.073   9.817  0.00  0.00    +0.000 OA
ATOM     33  H   UNL     1      51.403   8.752  10.560  0.00  0.00    +0.000 HD
ENDBRANCH  16  32
BRANCH  28  34
ATOM     34  O   UNL     1      55.467  -2.465  13.321  0.00  0.00    +0.000 OA
ATOM     35  H   UNL     1      54.906  -3.108  13.792  0.00  0.00    +0.000 HD
ENDBRANCH  28  34
TORSDOF 3
ENDMDL
MODEL 7
REMARK VINA RESULT:      -6.5      5.547      8.646
REMARK  Name = 14132199_RiccardinD.pdbqt.pdb
REMARK  3 active torsions:
REMARK  status: ('A' for Active; 'I' for Inactive)
REMARK    1  A    between atoms: C_11  and  O_30
REMARK    2  A    between atoms: C_16  and  O_32
REMARK    3  A    between atoms: C_28  and  O_34
REMARK                            x       y       z     vdW  Elec       q    Type
REMARK                         _______ _______ _______ _____ _____    ______ ____
ROOT
ATOM      1  O   UNL     1      51.110   3.915   9.791  0.00  0.00    +0.000 OA
ATOM      2  C   UNL     1      53.899   0.454  15.139  0.00  0.00    +0.000 C 
ATOM      3  C   UNL     1      54.522   0.302  16.423  0.00  0.00    +0.000 A 
ATOM      4  C   UNL     1      54.887   1.424  17.210  0.00  0.00    +0.000 A 
ATOM      5  C   UNL     1      53.218   0.789  13.802  0.00  0.00    +0.000 C 
ATOM      6  C   UNL     1      53.730   6.171  14.416  0.00  0.00    +0.000 C 
ATOM      7  C   UNL     1      54.754   2.799  16.677  0.00  0.00    +0.000 A 
ATOM      8  C   UNL     1      54.274   5.229  15.338  0.00  0.00    +0.000 A 
ATOM      9  C   UNL     1      53.019   6.730  13.181  0.00  0.00    +0.000 C 
ATOM     10  C   UNL     1      52.601   1.310  12.626  0.00  0.00    +0.000 A 
ATOM     11  C   UNL     1      53.863   3.750  17.194  0.00  0.00    +0.000 A 
ATOM     12  C   UNL     1      52.321   6.681  11.944  0.00  0.00    +0.000 A 
ATOM     13  C   UNL     1      55.486   3.156  15.535  0.00  0.00    +0.000 A 
ATOM     14  C   UNL     1      53.603   4.948  16.524  0.00  0.00    +0.000 A 
ATOM     15  C   UNL     1      55.245   4.351  14.865  0.00  0.00    +0.000 A 
ATOM     16  C   UNL     1      55.391   1.163  18.497  0.00  0.00    +0.000 A 
ATOM     17  C   UNL     1      54.709  -1.000  16.895  0.00  0.00    +0.000 A 
ATOM     18  C   UNL     1      55.594  -0.138  18.956  0.00  0.00    +0.000 A 
ATOM     19  C   UNL     1      55.261  -1.220  18.151  0.00  0.00    +0.000 A 
ATOM     20  C   UNL     1      52.046   5.403  11.469  0.00  0.00    +0.000 A 
ATOM     21  C   UNL     1      53.390   1.655  11.528  0.00  0.00    +0.000 A 
ATOM     22  C   UNL     1      51.253   1.670  12.663  0.00  0.00    +0.000 A 
ATOM     23  C   UNL     1      51.382   5.187  10.267  0.00  0.00    +0.000 A 
ATOM     24  C   UNL     1      51.925   7.789  11.210  0.00  0.00    +0.000 A 
ATOM     25  C   UNL     1      51.539   2.886  10.609  0.00  0.00    +0.000 A 
ATOM     26  C   UNL     1      52.857   2.437  10.506  0.00  0.00    +0.000 A 
ATOM     27  C   UNL     1      50.712   2.453  11.645  0.00  0.00    +0.000 A 
ATOM     28  C   UNL     1      50.986   6.299   9.532  0.00  0.00    +0.000 A 
ATOM     29  C   UNL     1      51.253   7.591   9.997  0.00  0.00    +0.000 A 
ENDROOT
BRANCH  11  30
ATOM     30  O   UNL     1      53.217   3.494  18.375  0.00  0.00    +0.000 OA
ATOM     31  H   UNL     1      53.881   3.192  19.025  0.00  0.00    +0.000 HD
ENDBRANCH  11  30
BRANCH  16  32
ATOM     32  O   UNL     1      55.693   2.165  19.381  0.00  0.00    +0.000 OA
ATOM     33  H   UNL     1      56.401   1.825  19.960  0.00  0.00    +0.000 HD
ENDBRANCH  16  32
BRANCH  28  34
ATOM     34  O   UNL     1      50.328   6.166   8.342  0.00  0.00    +0.000 OA
ATOM     35  H   UNL     1      50.160   7.063   8.002  0.00  0.00    +0.000 HD
ENDBRANCH  28  34
TORSDOF 3
ENDMDL
MODEL 8
REMARK VINA RESULT:      -6.5     14.147     17.396
REMARK  Name = 14132199_RiccardinD.pdbqt.pdb
REMARK  3 active torsions:
REMARK  status: ('A' for Active; 'I' for Inactive)
REMARK    1  A    between atoms: C_11  and  O_30
REMARK    2  A    between atoms: C_16  and  O_32
REMARK    3  A    between atoms: C_28  and  O_34
REMARK                            x       y       z     vdW  Elec       q    Type
REMARK                         _______ _______ _______ _____ _____    ______ ____
ROOT
ATOM      1  O   UNL     1      40.836  -4.565  22.180  0.00  0.00    +0.000 OA
ATOM      2  C   UNL     1      41.319  -3.490  15.326  0.00  0.00    +0.000 C 
ATOM      3  C   UNL     1      41.290  -2.726  14.112  0.00  0.00    +0.000 A 
ATOM      4  C   UNL     1      40.951  -1.348  14.108  0.00  0.00    +0.000 A 
ATOM      5  C   UNL     1      41.331  -4.155  16.712  0.00  0.00    +0.000 C 
ATOM      6  C   UNL     1      39.623   0.304  19.322  0.00  0.00    +0.000 C 
ATOM      7  C   UNL     1      40.491  -0.677  15.345  0.00  0.00    +0.000 A 
ATOM      8  C   UNL     1      39.746   0.235  17.903  0.00  0.00    +0.000 A 
ATOM      9  C   UNL     1      39.638  -0.127  20.790  0.00  0.00    +0.000 C 
ATOM     10  C   UNL     1      41.294  -4.571  18.076  0.00  0.00    +0.000 A 
ATOM     11  C   UNL     1      41.212   0.336  15.994  0.00  0.00    +0.000 A 
ATOM     12  C   UNL     1      39.807  -1.014  21.888  0.00  0.00    +0.000 A 
ATOM     13  C   UNL     1      39.318  -1.131  15.964  0.00  0.00    +0.000 A 
ATOM     14  C   UNL     1      40.861   0.777  17.272  0.00  0.00    +0.000 A 
ATOM     15  C   UNL     1      38.951  -0.691  17.232  0.00  0.00    +0.000 A 
ATOM     16  C   UNL     1      41.058  -0.669  12.881  0.00  0.00    +0.000 A 
ATOM     17  C   UNL     1      41.659  -3.379  12.934  0.00  0.00    +0.000 A 
ATOM     18  C   UNL     1      41.409  -1.330  11.704  0.00  0.00    +0.000 A 
ATOM     19  C   UNL     1      41.701  -2.688  11.729  0.00  0.00    +0.000 A 
ATOM     20  C   UNL     1      40.225  -2.297  21.553  0.00  0.00    +0.000 A 
ATOM     21  C   UNL     1      40.090  -5.002  18.634  0.00  0.00    +0.000 A 
ATOM     22  C   UNL     1      42.402  -4.339  18.892  0.00  0.00    +0.000 A 
ATOM     23  C   UNL     1      40.423  -3.284  22.511  0.00  0.00    +0.000 A 
ATOM     24  C   UNL     1      39.578  -0.688  23.216  0.00  0.00    +0.000 A 
ATOM     25  C   UNL     1      41.046  -4.774  20.829  0.00  0.00    +0.000 A 
ATOM     26  C   UNL     1      39.964  -5.117  20.016  0.00  0.00    +0.000 A 
ATOM     27  C   UNL     1      42.285  -4.451  20.276  0.00  0.00    +0.000 A 
ATOM     28  C   UNL     1      40.193  -2.957  23.843  0.00  0.00    +0.000 A 
ATOM     29  C   UNL     1      39.774  -1.669  24.196  0.00  0.00    +0.000 A 
ENDROOT
BRANCH  11  30
ATOM     30  O   UNL     1      42.296   0.895  15.370  0.00  0.00    +0.000 OA
ATOM     31  H   UNL     1      43.093   0.406  15.652  0.00  0.00    +0.000 HD
ENDBRANCH  11  30
BRANCH  16  32
ATOM     32  O   UNL     1      40.845   0.680  12.770  0.00  0.00    +0.000 OA
ATOM     33  H   UNL     1      41.002   0.914  11.836  0.00  0.00    +0.000 HD
ENDBRANCH  16  32
BRANCH  28  34
ATOM     34  O   UNL     1      40.367  -3.874  24.840  0.00  0.00    +0.000 OA
ATOM     35  H   UNL     1      39.780  -4.627  24.647  0.00  0.00    +0.000 HD
ENDBRANCH  28  34
TORSDOF 3
ENDMDL
MODEL 9
REMARK VINA RESULT:      -6.4      5.027      8.126
REMARK  Name = 14132199_RiccardinD.pdbqt.pdb
REMARK  3 active torsions:
REMARK  status: ('A' for Active; 'I' for Inactive)
REMARK    1  A    between atoms: C_11  and  O_30
REMARK    2  A    between atoms: C_16  and  O_32
REMARK    3  A    between atoms: C_28  and  O_34
REMARK                            x       y       z     vdW  Elec       q    Type
REMARK                         _______ _______ _______ _____ _____    ______ ____
ROOT
ATOM      1  O   UNL     1      52.118   3.408   9.724  0.00  0.00    +0.000 OA
ATOM      2  C   UNL     1      54.686   2.976  16.172  0.00  0.00    +0.000 C 
ATOM      3  C   UNL     1      54.992   3.435  17.497  0.00  0.00    +0.000 A 
ATOM      4  C   UNL     1      54.684   4.755  17.916  0.00  0.00    +0.000 A 
ATOM      5  C   UNL     1      54.268   2.634  14.733  0.00  0.00    +0.000 C 
ATOM      6  C   UNL     1      52.446   7.643  13.636  0.00  0.00    +0.000 C 
ATOM      7  C   UNL     1      54.149   5.749  16.959  0.00  0.00    +0.000 A 
ATOM      8  C   UNL     1      53.080   7.300  14.865  0.00  0.00    +0.000 A 
ATOM      9  C   UNL     1      51.888   7.506  12.217  0.00  0.00    +0.000 C 
ATOM     10  C   UNL     1      53.795   2.522  13.392  0.00  0.00    +0.000 A 
ATOM     11  C   UNL     1      52.859   6.292  17.042  0.00  0.00    +0.000 A 
ATOM     12  C   UNL     1      51.584   6.852  10.993  0.00  0.00    +0.000 A 
ATOM     13  C   UNL     1      54.929   6.108  15.850  0.00  0.00    +0.000 A 
ATOM     14  C   UNL     1      52.314   7.044  15.998  0.00  0.00    +0.000 A 
ATOM     15  C   UNL     1      54.402   6.866  14.809  0.00  0.00    +0.000 A 
ATOM     16  C   UNL     1      54.927   5.068  19.266  0.00  0.00    +0.000 A 
ATOM     17  C   UNL     1      55.560   2.513  18.380  0.00  0.00    +0.000 A 
ATOM     18  C   UNL     1      55.512   4.150  20.139  0.00  0.00    +0.000 A 
ATOM     19  C   UNL     1      55.837   2.875  19.692  0.00  0.00    +0.000 A 
ATOM     20  C   UNL     1      51.959   5.514  10.927  0.00  0.00    +0.000 A 
ATOM     21  C   UNL     1      54.620   2.907  12.335  0.00  0.00    +0.000 A 
ATOM     22  C   UNL     1      52.448   2.235  13.163  0.00  0.00    +0.000 A 
ATOM     23  C   UNL     1      51.742   4.739   9.793  0.00  0.00    +0.000 A 
ATOM     24  C   UNL     1      50.969   7.449   9.902  0.00  0.00    +0.000 A 
ATOM     25  C   UNL     1      52.711   2.913  10.871  0.00  0.00    +0.000 A 
ATOM     26  C   UNL     1      54.082   3.094  11.063  0.00  0.00    +0.000 A 
ATOM     27  C   UNL     1      51.901   2.419  11.895  0.00  0.00    +0.000 A 
ATOM     28  C   UNL     1      51.126   5.340   8.701  0.00  0.00    +0.000 A 
ATOM     29  C   UNL     1      50.741   6.684   8.752  0.00  0.00    +0.000 A 
ENDROOT
BRANCH  11  30
ATOM     30  O   UNL     1      52.106   6.067  18.164  0.00  0.00    +0.000 OA
ATOM     31  H   UNL     1      52.688   5.686  18.849  0.00  0.00    +0.000 HD
ENDBRANCH  11  30
BRANCH  16  32
ATOM     32  O   UNL     1      54.588   6.279  19.809  0.00  0.00    +0.000 OA
ATOM     33  H   UNL     1      53.637   6.409  19.633  0.00  0.00    +0.000 HD
ENDBRANCH  16  32
BRANCH  28  34
ATOM     34  O   UNL     1      50.879   4.643   7.552  0.00  0.00    +0.000 OA
ATOM     35  H   UNL     1      50.457   5.257   6.925  0.00  0.00    +0.000 HD
ENDBRANCH  28  34
TORSDOF 3
ENDMDL
