MODEL 1
REMARK VINA RESULT:      -5.7      0.000      0.000
REMARK  Name = 146026348_FluorouracilMononitrate.pdbqt.pdb
REMARK  2 active torsions:
REMARK  status: ('A' for Active; 'I' for Inactive)
REMARK    1  A    between atoms: N_4  and  O_10
REMARK    2  A    between atoms: O_10  and  N_13
REMARK                            x       y       z     vdW  Elec       q    Type
REMARK                         _______ _______ _______ _____ _____    ______ ____
ROOT
ATOM      1  F   UNL     1      43.033  -2.561  15.498  0.00  0.00    +0.000 F 
ATOM      2  O   UNL     1      41.897  -0.029  15.165  0.00  0.00    +0.000 OA
ATOM      3  O   UNL     1      40.972  -1.256  10.748  0.00  0.00    +0.000 OA
ATOM      4  N   UNL     1      41.559  -0.539  12.906  0.00  0.00    +0.000 N 
ATOM      5  N   UNL     1      42.621  -2.099  14.307  0.00  0.00    +0.000 N 
ATOM      6  C   UNL     1      42.025  -0.807  14.224  0.00  0.00    +0.000 A 
ATOM      7  C   UNL     1      41.510  -1.426  11.829  0.00  0.00    +0.000 A 
ATOM      8  C   UNL     1      42.163  -2.669  12.170  0.00  0.00    +0.000 A 
ATOM      9  C   UNL     1      42.626  -2.921  13.240  0.00  0.00    +0.000 A 
ENDROOT
BRANCH   4  10
ATOM     10  O   UNL     1      40.870   0.676  12.741  0.00  0.00    +0.000 OA
BRANCH  10  13
ATOM     11  O   UNL     1      39.271   1.588  14.033  0.00  0.00    +0.000 OA
ATOM     12  O   UNL     1      38.861  -0.255  12.833  0.00  0.00    +0.000 OA
ATOM     13  N   UNL     1      39.549   0.672  13.254  0.00  0.00    +0.000 N 
ENDBRANCH  10  13
ENDBRANCH   4  10
TORSDOF 2
ENDMDL
MODEL 2
REMARK VINA RESULT:      -5.3     19.768     21.025
REMARK  Name = 146026348_FluorouracilMononitrate.pdbqt.pdb
REMARK  2 active torsions:
REMARK  status: ('A' for Active; 'I' for Inactive)
REMARK    1  A    between atoms: N_4  and  O_10
REMARK    2  A    between atoms: O_10  and  N_13
REMARK                            x       y       z     vdW  Elec       q    Type
REMARK                         _______ _______ _______ _____ _____    ______ ____
ROOT
ATOM      1  F   UNL     1      34.455  16.466  19.735  0.00  0.00    +0.000 F 
ATOM      2  O   UNL     1      35.077  18.970  18.660  0.00  0.00    +0.000 OA
ATOM      3  O   UNL     1      39.572  17.972  19.479  0.00  0.00    +0.000 OA
ATOM      4  N   UNL     1      37.321  18.582  19.198  0.00  0.00    +0.000 N 
ATOM      5  N   UNL     1      35.694  16.982  19.761  0.00  0.00    +0.000 N 
ATOM      6  C   UNL     1      35.937  18.254  19.166  0.00  0.00    +0.000 A 
ATOM      7  C   UNL     1      38.376  17.758  19.595  0.00  0.00    +0.000 A 
ATOM      8  C   UNL     1      37.872  16.522  20.146  0.00  0.00    +0.000 A 
ATOM      9  C   UNL     1      36.717  16.224  20.201  0.00  0.00    +0.000 A 
ENDROOT
BRANCH   4  10
ATOM     10  O   UNL     1      37.678  19.779  18.551  0.00  0.00    +0.000 OA
BRANCH  10  13
ATOM     11  O   UNL     1      38.948  21.114  19.840  0.00  0.00    +0.000 OA
ATOM     12  O   UNL     1      36.755  21.490  19.614  0.00  0.00    +0.000 OA
ATOM     13  N   UNL     1      37.810  20.893  19.416  0.00  0.00    +0.000 N 
ENDBRANCH  10  13
ENDBRANCH   4  10
TORSDOF 2
ENDMDL
MODEL 3
REMARK VINA RESULT:      -5.2      1.881      2.741
REMARK  Name = 146026348_FluorouracilMononitrate.pdbqt.pdb
REMARK  2 active torsions:
REMARK  status: ('A' for Active; 'I' for Inactive)
REMARK    1  A    between atoms: N_4  and  O_10
REMARK    2  A    between atoms: O_10  and  N_13
REMARK                            x       y       z     vdW  Elec       q    Type
REMARK                         _______ _______ _______ _____ _____    ______ ____
ROOT
ATOM      1  F   UNL     1      42.358  -4.340  12.830  0.00  0.00    +0.000 F 
ATOM      2  O   UNL     1      41.799  -3.111  15.277  0.00  0.00    +0.000 OA
ATOM      3  O   UNL     1      40.584   0.696  12.847  0.00  0.00    +0.000 OA
ATOM      4  N   UNL     1      41.335  -1.133  14.114  0.00  0.00    +0.000 N 
ATOM      5  N   UNL     1      42.045  -3.039  12.936  0.00  0.00    +0.000 N 
ATOM      6  C   UNL     1      41.744  -2.492  14.217  0.00  0.00    +0.000 A 
ATOM      7  C   UNL     1      41.083  -0.413  12.945  0.00  0.00    +0.000 A 
ATOM      8  C   UNL     1      41.453  -1.189  11.784  0.00  0.00    +0.000 A 
ATOM      9  C   UNL     1      41.860  -2.310  11.819  0.00  0.00    +0.000 A 
ENDROOT
BRANCH   4  10
ATOM     10  O   UNL     1      40.926  -0.529  15.316  0.00  0.00    +0.000 OA
BRANCH  10  13
ATOM     11  O   UNL     1      41.212   1.603  15.974  0.00  0.00    +0.000 OA
ATOM     12  O   UNL     1      42.947   0.196  15.865  0.00  0.00    +0.000 OA
ATOM     13  N   UNL     1      41.768   0.523  15.755  0.00  0.00    +0.000 N 
ENDBRANCH  10  13
ENDBRANCH   4  10
TORSDOF 2
ENDMDL
MODEL 4
REMARK VINA RESULT:      -4.4      2.252      2.746
REMARK  Name = 146026348_FluorouracilMononitrate.pdbqt.pdb
REMARK  2 active torsions:
REMARK  status: ('A' for Active; 'I' for Inactive)
REMARK    1  A    between atoms: N_4  and  O_10
REMARK    2  A    between atoms: O_10  and  N_13
REMARK                            x       y       z     vdW  Elec       q    Type
REMARK                         _______ _______ _______ _____ _____    ______ ____
ROOT
ATOM      1  F   UNL     1      43.497  -2.426  18.420  0.00  0.00    +0.000 F 
ATOM      2  O   UNL     1      42.599   0.137  17.763  0.00  0.00    +0.000 OA
ATOM      3  O   UNL     1      42.423  -1.293  13.314  0.00  0.00    +0.000 OA
ATOM      4  N   UNL     1      42.649  -0.484  15.507  0.00  0.00    +0.000 N 
ATOM      5  N   UNL     1      43.339  -2.014  17.153  0.00  0.00    +0.000 N 
ATOM      6  C   UNL     1      42.848  -0.699  16.899  0.00  0.00    +0.000 A 
ATOM      7  C   UNL     1      42.743  -1.428  14.483  0.00  0.00    +0.000 A 
ATOM      8  C   UNL     1      43.245  -2.681  14.997  0.00  0.00    +0.000 A 
ATOM      9  C   UNL     1      43.489  -2.895  16.146  0.00  0.00    +0.000 A 
ENDROOT
BRANCH   4  10
ATOM     10  O   UNL     1      42.077   0.753  15.160  0.00  0.00    +0.000 OA
BRANCH  10  13
ATOM     11  O   UNL     1      39.990   0.280  15.853  0.00  0.00    +0.000 OA
ATOM     12  O   UNL     1      40.357   1.108  13.808  0.00  0.00    +0.000 OA
ATOM     13  N   UNL     1      40.681   0.704  14.922  0.00  0.00    +0.000 N 
ENDBRANCH  10  13
ENDBRANCH   4  10
TORSDOF 2
ENDMDL
MODEL 5
REMARK VINA RESULT:      -4.2     19.466     20.500
REMARK  Name = 146026348_FluorouracilMononitrate.pdbqt.pdb
REMARK  2 active torsions:
REMARK  status: ('A' for Active; 'I' for Inactive)
REMARK    1  A    between atoms: N_4  and  O_10
REMARK    2  A    between atoms: O_10  and  N_13
REMARK                            x       y       z     vdW  Elec       q    Type
REMARK                         _______ _______ _______ _____ _____    ______ ____
ROOT
ATOM      1  F   UNL     1      32.961  15.434  20.321  0.00  0.00    +0.000 F 
ATOM      2  O   UNL     1      33.449  17.673  18.722  0.00  0.00    +0.000 OA
ATOM      3  O   UNL     1      37.988  17.123  19.707  0.00  0.00    +0.000 OA
ATOM      4  N   UNL     1      35.709  17.534  19.315  0.00  0.00    +0.000 N 
ATOM      5  N   UNL     1      34.169  16.009  20.226  0.00  0.00    +0.000 N 
ATOM      6  C   UNL     1      34.345  17.132  19.365  0.00  0.00    +0.000 A 
ATOM      7  C   UNL     1      36.806  16.875  19.874  0.00  0.00    +0.000 A 
ATOM      8  C   UNL     1      36.367  15.764  20.686  0.00  0.00    +0.000 A 
ATOM      9  C   UNL     1      35.230  15.423  20.812  0.00  0.00    +0.000 A 
ENDROOT
BRANCH   4  10
ATOM     10  O   UNL     1      36.003  18.578  18.420  0.00  0.00    +0.000 OA
BRANCH  10  13
ATOM     11  O   UNL     1      35.786  20.178  19.986  0.00  0.00    +0.000 OA
ATOM     12  O   UNL     1      37.492  20.214  18.540  0.00  0.00    +0.000 OA
ATOM     13  N   UNL     1      36.463  19.766  19.040  0.00  0.00    +0.000 N 
ENDBRANCH  10  13
ENDBRANCH   4  10
TORSDOF 2
ENDMDL
MODEL 6
REMARK VINA RESULT:      -4.1     13.701     14.325
REMARK  Name = 146026348_FluorouracilMononitrate.pdbqt.pdb
REMARK  2 active torsions:
REMARK  status: ('A' for Active; 'I' for Inactive)
REMARK    1  A    between atoms: N_4  and  O_10
REMARK    2  A    between atoms: O_10  and  N_13
REMARK                            x       y       z     vdW  Elec       q    Type
REMARK                         _______ _______ _______ _____ _____    ______ ____
ROOT
ATOM      1  F   UNL     1      52.536   5.213   5.407  0.00  0.00    +0.000 F 
ATOM      2  O   UNL     1      51.433   4.891   7.954  0.00  0.00    +0.000 OA
ATOM      3  O   UNL     1      50.475   9.469   7.888  0.00  0.00    +0.000 OA
ATOM      4  N   UNL     1      51.080   7.204   8.032  0.00  0.00    +0.000 N 
ATOM      5  N   UNL     1      52.126   6.247   6.158  0.00  0.00    +0.000 N 
ATOM      6  C   UNL     1      51.547   5.999   7.436  0.00  0.00    +0.000 A 
ATOM      7  C   UNL     1      51.015   8.468   7.445  0.00  0.00    +0.000 A 
ATOM      8  C   UNL     1      51.653   8.455   6.149  0.00  0.00    +0.000 A 
ATOM      9  C   UNL     1      52.117   7.486   5.630  0.00  0.00    +0.000 A 
ENDROOT
BRANCH   4  10
ATOM     10  O   UNL     1      50.406   7.054   9.258  0.00  0.00    +0.000 OA
BRANCH  10  13
ATOM     11  O   UNL     1      52.132   7.870  10.447  0.00  0.00    +0.000 OA
ATOM     12  O   UNL     1      50.991   6.085  11.163  0.00  0.00    +0.000 OA
ATOM     13  N   UNL     1      51.258   7.000  10.389  0.00  0.00    +0.000 N 
ENDBRANCH  10  13
ENDBRANCH   4  10
TORSDOF 2
ENDMDL
MODEL 7
REMARK VINA RESULT:      -3.9     14.718     15.141
REMARK  Name = 146026348_FluorouracilMononitrate.pdbqt.pdb
REMARK  2 active torsions:
REMARK  status: ('A' for Active; 'I' for Inactive)
REMARK    1  A    between atoms: N_4  and  O_10
REMARK    2  A    between atoms: O_10  and  N_13
REMARK                            x       y       z     vdW  Elec       q    Type
REMARK                         _______ _______ _______ _____ _____    ______ ____
ROOT
ATOM      1  F   UNL     1      54.902   5.450   9.322  0.00  0.00    +0.000 F 
ATOM      2  O   UNL     1      52.224   6.161   9.690  0.00  0.00    +0.000 OA
ATOM      3  O   UNL     1      52.453   8.336   5.556  0.00  0.00    +0.000 OA
ATOM      4  N   UNL     1      52.338   7.397   7.705  0.00  0.00    +0.000 N 
ATOM      5  N   UNL     1      54.253   6.288   8.500  0.00  0.00    +0.000 N 
ATOM      6  C   UNL     1      52.877   6.579   8.738  0.00  0.00    +0.000 A 
ATOM      7  C   UNL     1      52.958   7.771   6.512  0.00  0.00    +0.000 A 
ATOM      8  C   UNL     1      54.338   7.345   6.506  0.00  0.00    +0.000 A 
ATOM      9  C   UNL     1      54.857   6.712   7.374  0.00  0.00    +0.000 A 
ENDROOT
BRANCH   4  10
ATOM     10  O   UNL     1      50.960   7.664   7.800  0.00  0.00    +0.000 OA
BRANCH  10  13
ATOM     11  O   UNL     1      50.243   9.773   7.492  0.00  0.00    +0.000 OA
ATOM     12  O   UNL     1      50.825   9.047   9.526  0.00  0.00    +0.000 OA
ATOM     13  N   UNL     1      50.649   8.947   8.314  0.00  0.00    +0.000 N 
ENDBRANCH  10  13
ENDBRANCH   4  10
TORSDOF 2
ENDMDL
MODEL 8
REMARK VINA RESULT:      -3.8     23.081     24.079
REMARK  Name = 146026348_FluorouracilMononitrate.pdbqt.pdb
REMARK  2 active torsions:
REMARK  status: ('A' for Active; 'I' for Inactive)
REMARK    1  A    between atoms: N_4  and  O_10
REMARK    2  A    between atoms: O_10  and  N_13
REMARK                            x       y       z     vdW  Elec       q    Type
REMARK                         _______ _______ _______ _____ _____    ______ ____
ROOT
ATOM      1  F   UNL     1      46.150  11.754  -8.619  0.00  0.00    +0.000 F 
ATOM      2  O   UNL     1      46.015  10.594  -6.080  0.00  0.00    +0.000 OA
ATOM      3  O   UNL     1      48.214  14.390  -4.459  0.00  0.00    +0.000 OA
ATOM      4  N   UNL     1      47.255  12.398  -5.251  0.00  0.00    +0.000 N 
ATOM      5  N   UNL     1      46.765  12.278  -7.547  0.00  0.00    +0.000 N 
ATOM      6  C   UNL     1      46.624  11.642  -6.278  0.00  0.00    +0.000 A 
ATOM      7  C   UNL     1      47.814  13.672  -5.361  0.00  0.00    +0.000 A 
ATOM      8  C   UNL     1      47.825  14.101  -6.740  0.00  0.00    +0.000 A 
ATOM      9  C   UNL     1      47.366  13.478  -7.649  0.00  0.00    +0.000 A 
ENDROOT
BRANCH   4  10
ATOM     10  O   UNL     1      47.093  11.902  -3.945  0.00  0.00    +0.000 OA
BRANCH  10  13
ATOM     11  O   UNL     1      49.208  11.158  -3.770  0.00  0.00    +0.000 OA
ATOM     12  O   UNL     1      47.489   9.880  -3.129  0.00  0.00    +0.000 OA
ATOM     13  N   UNL     1      48.018  10.890  -3.587  0.00  0.00    +0.000 N 
ENDBRANCH  10  13
ENDBRANCH   4  10
TORSDOF 2
ENDMDL
MODEL 9
REMARK VINA RESULT:      -3.8     21.492     22.220
REMARK  Name = 146026348_FluorouracilMononitrate.pdbqt.pdb
REMARK  2 active torsions:
REMARK  status: ('A' for Active; 'I' for Inactive)
REMARK    1  A    between atoms: N_4  and  O_10
REMARK    2  A    between atoms: O_10  and  N_13
REMARK                            x       y       z     vdW  Elec       q    Type
REMARK                         _______ _______ _______ _____ _____    ______ ____
ROOT
ATOM      1  F   UNL     1      42.053   5.162 -10.216  0.00  0.00    +0.000 F 
ATOM      2  O   UNL     1      40.244   5.671  -8.148  0.00  0.00    +0.000 OA
ATOM      3  O   UNL     1      40.005   1.045  -7.502  0.00  0.00    +0.000 OA
ATOM      4  N   UNL     1      39.970   3.361  -7.894  0.00  0.00    +0.000 N 
ATOM      5  N   UNL     1      41.385   4.189  -9.579  0.00  0.00    +0.000 N 
ATOM      6  C   UNL     1      40.500   4.527  -8.513  0.00  0.00    +0.000 A 
ATOM      7  C   UNL     1      40.337   2.035  -8.132  0.00  0.00    +0.000 A 
ATOM      8  C   UNL     1      41.254   1.959  -9.247  0.00  0.00    +0.000 A 
ATOM      9  C   UNL     1      41.681   2.901  -9.841  0.00  0.00    +0.000 A 
ENDROOT
BRANCH   4  10
ATOM     10  O   UNL     1      39.156   3.587  -6.770  0.00  0.00    +0.000 OA
BRANCH  10  13
ATOM     11  O   UNL     1      37.269   3.296  -7.958  0.00  0.00    +0.000 OA
ATOM     12  O   UNL     1      37.409   4.901  -6.407  0.00  0.00    +0.000 OA
ATOM     13  N   UNL     1      37.825   3.960  -7.079  0.00  0.00    +0.000 N 
ENDBRANCH  10  13
ENDBRANCH   4  10
TORSDOF 2
ENDMDL
