REMARK  Name = 146026348_FluorouracilMononitrate.pdbqt.pdb
REMARK  2 active torsions:
REMARK  status: ('A' for Active; 'I' for Inactive)
REMARK    1  A    between atoms: N_4  and  O_10
REMARK    2  A    between atoms: O_10  and  N_13
REMARK                            x       y       z     vdW  Elec       q    Type
REMARK                         _______ _______ _______ _____ _____    ______ ____
ROOT
ATOM      1  F   UNL     1       3.038   1.416  -0.160  0.00  0.00    +0.000 F 
ATOM      2  O   UNL     1       0.417   2.106   0.521  0.00  0.00    +0.000 OA
ATOM      3  O   UNL     1      -0.599  -2.457   0.372  0.00  0.00    +0.000 OA
ATOM      4  N   UNL     1      -0.174  -0.148   0.301  0.00  0.00    +0.000 N 
ATOM      5  N   UNL     1       2.033   0.527  -0.144  0.00  0.00    +0.000 N 
ATOM      6  C   UNL     1       0.728   0.951   0.243  0.00  0.00    +0.000 A 
ATOM      7  C   UNL     1       0.134  -1.503   0.169  0.00  0.00    +0.000 A 
ATOM      8  C   UNL     1       1.518  -1.671  -0.209  0.00  0.00    +0.000 A 
ATOM      9  C   UNL     1       2.301  -0.779  -0.333  0.00  0.00    +0.000 A 
ENDROOT
BRANCH   4  10
ATOM     10  O   UNL     1      -1.468   0.152   0.764  0.00  0.00    +0.000 OA
BRANCH  10  13
ATOM     11  O   UNL     1      -1.984   0.326  -1.418  0.00  0.00    +0.000 OA
ATOM     12  O   UNL     1      -3.535   0.670   0.156  0.00  0.00    +0.000 OA
ATOM     13  N   UNL     1      -2.410   0.408  -0.263  0.00  0.00    +0.000 N 
ENDBRANCH  10  13
ENDBRANCH   4  10
TORSDOF 2
