MODEL 1
REMARK VINA RESULT:      -7.2      0.000      0.000
REMARK  Name = 179268_Nortopsentin.pdbqt.pdb
REMARK  2 active torsions:
REMARK  status: ('A' for Active; 'I' for Inactive)
REMARK    1  A    between atoms: C_3  and  C_9
REMARK    2  A    between atoms: C_4  and  C_20
REMARK                            x       y       z     vdW  Elec       q    Type
REMARK                         _______ _______ _______ _____ _____    ______ ____
ROOT
ATOM      1  N   UNL     1      35.529  13.361  22.486  0.00  0.00    +0.000 N 
ATOM      2  N   UNL     1      35.206  12.830  20.363  0.00  0.00    +0.000 NA
ATOM      3  C   UNL     1      35.560  11.994  22.436  0.00  0.00    +0.000 A 
ATOM      4  C   UNL     1      35.313  13.829  21.215  0.00  0.00    +0.000 A 
ATOM      5  C   UNL     1      35.357  11.687  21.109  0.00  0.00    +0.000 A 
ATOM      6  H   UNL     1      35.643  13.936  23.307  0.00  0.00    +0.000 HD
ENDROOT
BRANCH   3   9
ATOM      7 BR   UNL     1      36.008   5.105  24.668  0.00  0.00    +0.000 Br
ATOM      8  N   UNL     1      36.137  10.362  25.637  0.00  0.00    +0.000 N 
ATOM      9  C   UNL     1      35.766  11.064  23.564  0.00  0.00    +0.000 A 
ATOM     10  C   UNL     1      35.775   9.640  23.553  0.00  0.00    +0.000 A 
ATOM     11  C   UNL     1      36.011   9.228  24.869  0.00  0.00    +0.000 A 
ATOM     12  C   UNL     1      35.991  11.475  24.857  0.00  0.00    +0.000 A 
ATOM     13  C   UNL     1      35.608   8.654  22.561  0.00  0.00    +0.000 A 
ATOM     14  C   UNL     1      36.087   7.882  25.243  0.00  0.00    +0.000 A 
ATOM     15  C   UNL     1      35.681   7.306  22.913  0.00  0.00    +0.000 A 
ATOM     16  C   UNL     1      35.916   6.937  24.231  0.00  0.00    +0.000 A 
ATOM     17  H   UNL     1      36.313  10.374  26.632  0.00  0.00    +0.000 HD
ENDBRANCH   3   9
BRANCH   4  20
ATOM     18 BR   UNL     1      38.822  19.743  18.930  0.00  0.00    +0.000 Br
ATOM     19  N   UNL     1      34.344  17.275  20.498  0.00  0.00    +0.000 N 
ATOM     20  C   UNL     1      35.215  15.265  20.854  0.00  0.00    +0.000 A 
ATOM     21  C   UNL     1      36.258  16.127  20.413  0.00  0.00    +0.000 A 
ATOM     22  C   UNL     1      35.683  17.381  20.198  0.00  0.00    +0.000 A 
ATOM     23  C   UNL     1      34.051  15.999  20.897  0.00  0.00    +0.000 A 
ATOM     24  C   UNL     1      37.637  15.966  20.174  0.00  0.00    +0.000 A 
ATOM     25  C   UNL     1      36.414  18.487  19.754  0.00  0.00    +0.000 A 
ATOM     26  C   UNL     1      38.387  17.058  19.732  0.00  0.00    +0.000 A 
ATOM     27  C   UNL     1      37.778  18.290  19.529  0.00  0.00    +0.000 A 
ATOM     28  H   UNL     1      33.677  18.032  20.434  0.00  0.00    +0.000 HD
ENDBRANCH   4  20
TORSDOF 2
ENDMDL
MODEL 2
REMARK VINA RESULT:      -7.1      1.970      2.899
REMARK  Name = 179268_Nortopsentin.pdbqt.pdb
REMARK  2 active torsions:
REMARK  status: ('A' for Active; 'I' for Inactive)
REMARK    1  A    between atoms: C_3  and  C_9
REMARK    2  A    between atoms: C_4  and  C_20
REMARK                            x       y       z     vdW  Elec       q    Type
REMARK                         _______ _______ _______ _____ _____    ______ ____
ROOT
ATOM      1  N   UNL     1      35.363  13.365  20.769  0.00  0.00    +0.000 N 
ATOM      2  N   UNL     1      35.895  14.447  22.624  0.00  0.00    +0.000 NA
ATOM      3  C   UNL     1      34.842  12.624  21.794  0.00  0.00    +0.000 A 
ATOM      4  C   UNL     1      35.992  14.458  21.311  0.00  0.00    +0.000 A 
ATOM      5  C   UNL     1      35.183  13.314  22.935  0.00  0.00    +0.000 A 
ATOM      6  H   UNL     1      35.304  13.157  19.784  0.00  0.00    +0.000 HD
ENDROOT
BRANCH   3   9
ATOM      7 BR   UNL     1      34.596   5.504  23.166  0.00  0.00    +0.000 Br
ATOM      8  N   UNL     1      32.433   9.969  21.172  0.00  0.00    +0.000 N 
ATOM      9  C   UNL     1      34.081  11.363  21.686  0.00  0.00    +0.000 A 
ATOM     10  C   UNL     1      34.446  10.063  22.137  0.00  0.00    +0.000 A 
ATOM     11  C   UNL     1      33.391   9.208  21.800  0.00  0.00    +0.000 A 
ATOM     12  C   UNL     1      32.841  11.271  21.099  0.00  0.00    +0.000 A 
ATOM     13  C   UNL     1      35.564   9.519  22.798  0.00  0.00    +0.000 A 
ATOM     14  C   UNL     1      33.398   7.839  22.090  0.00  0.00    +0.000 A 
ATOM     15  C   UNL     1      35.592   8.156  23.097  0.00  0.00    +0.000 A 
ATOM     16  C   UNL     1      34.524   7.340  22.746  0.00  0.00    +0.000 A 
ATOM     17  H   UNL     1      31.554   9.618  20.815  0.00  0.00    +0.000 HD
ENDBRANCH   3   9
BRANCH   4  20
ATOM     18 BR   UNL     1      36.005  21.369  19.133  0.00  0.00    +0.000 Br
ATOM     19  N   UNL     1      38.184  16.486  19.212  0.00  0.00    +0.000 N 
ATOM     20  C   UNL     1      36.683  15.506  20.520  0.00  0.00    +0.000 A 
ATOM     21  C   UNL     1      36.299  16.865  20.349  0.00  0.00    +0.000 A 
ATOM     22  C   UNL     1      37.259  17.457  19.524  0.00  0.00    +0.000 A 
ATOM     23  C   UNL     1      37.845  15.303  19.809  0.00  0.00    +0.000 A 
ATOM     24  C   UNL     1      35.230  17.656  20.814  0.00  0.00    +0.000 A 
ATOM     25  C   UNL     1      37.207  18.799  19.137  0.00  0.00    +0.000 A 
ATOM     26  C   UNL     1      35.159  18.999  20.440  0.00  0.00    +0.000 A 
ATOM     27  C   UNL     1      36.133  19.550  19.618  0.00  0.00    +0.000 A 
ATOM     28  H   UNL     1      38.996  16.630  18.626  0.00  0.00    +0.000 HD
ENDBRANCH   4  20
TORSDOF 2
ENDMDL
MODEL 3
REMARK VINA RESULT:      -7.0     13.001     16.771
REMARK  Name = 179268_Nortopsentin.pdbqt.pdb
REMARK  2 active torsions:
REMARK  status: ('A' for Active; 'I' for Inactive)
REMARK    1  A    between atoms: C_3  and  C_9
REMARK    2  A    between atoms: C_4  and  C_20
REMARK                            x       y       z     vdW  Elec       q    Type
REMARK                         _______ _______ _______ _____ _____    ______ ____
ROOT
ATOM      1  N   UNL     1      40.899   0.070  16.196  0.00  0.00    +0.000 N 
ATOM      2  N   UNL     1      39.993   1.476  14.748  0.00  0.00    +0.000 NA
ATOM      3  C   UNL     1      40.536   1.169  16.923  0.00  0.00    +0.000 A 
ATOM      4  C   UNL     1      40.555   0.293  14.887  0.00  0.00    +0.000 A 
ATOM      5  C   UNL     1      39.976   2.029  16.006  0.00  0.00    +0.000 A 
ATOM      6  H   UNL     1      41.343  -0.765  16.546  0.00  0.00    +0.000 HD
ENDROOT
BRANCH   3   9
ATOM      7 BR   UNL     1      44.711   0.177  22.774  0.00  0.00    +0.000 Br
ATOM      8  N   UNL     1      40.271   2.037  20.447  0.00  0.00    +0.000 N 
ATOM      9  C   UNL     1      40.711   1.377  18.375  0.00  0.00    +0.000 A 
ATOM     10  C   UNL     1      41.796   0.976  19.206  0.00  0.00    +0.000 A 
ATOM     11  C   UNL     1      41.491   1.405  20.502  0.00  0.00    +0.000 A 
ATOM     12  C   UNL     1      39.793   2.025  19.167  0.00  0.00    +0.000 A 
ATOM     13  C   UNL     1      43.009   0.293  18.995  0.00  0.00    +0.000 A 
ATOM     14  C   UNL     1      42.336   1.185  21.596  0.00  0.00    +0.000 A 
ATOM     15  C   UNL     1      43.867   0.063  20.071  0.00  0.00    +0.000 A 
ATOM     16  C   UNL     1      43.527   0.505  21.344  0.00  0.00    +0.000 A 
ATOM     17  H   UNL     1      39.795   2.452  21.237  0.00  0.00    +0.000 HD
ENDBRANCH   3   9
BRANCH   4  20
ATOM     18 BR   UNL     1      43.382  -6.080  12.912  0.00  0.00    +0.000 Br
ATOM     19  N   UNL     1      40.756  -1.569  11.753  0.00  0.00    +0.000 N 
ATOM     20  C   UNL     1      40.786  -0.671  13.782  0.00  0.00    +0.000 A 
ATOM     21  C   UNL     1      41.453  -1.926  13.844  0.00  0.00    +0.000 A 
ATOM     22  C   UNL     1      41.420  -2.467  12.557  0.00  0.00    +0.000 A 
ATOM     23  C   UNL     1      40.369  -0.478  12.484  0.00  0.00    +0.000 A 
ATOM     24  C   UNL     1      42.084  -2.660  14.868  0.00  0.00    +0.000 A 
ATOM     25  C   UNL     1      41.984  -3.705  12.237  0.00  0.00    +0.000 A 
ATOM     26  C   UNL     1      42.655  -3.898  14.570  0.00  0.00    +0.000 A 
ATOM     27  C   UNL     1      42.600  -4.402  13.277  0.00  0.00    +0.000 A 
ATOM     28  H   UNL     1      40.581  -1.698  10.765  0.00  0.00    +0.000 HD
ENDBRANCH   4  20
TORSDOF 2
ENDMDL
MODEL 4
REMARK VINA RESULT:      -7.0     15.355     18.734
REMARK  Name = 179268_Nortopsentin.pdbqt.pdb
REMARK  2 active torsions:
REMARK  status: ('A' for Active; 'I' for Inactive)
REMARK    1  A    between atoms: C_3  and  C_9
REMARK    2  A    between atoms: C_4  and  C_20
REMARK                            x       y       z     vdW  Elec       q    Type
REMARK                         _______ _______ _______ _____ _____    ______ ____
ROOT
ATOM      1  N   UNL     1      51.360  17.764  13.760  0.00  0.00    +0.000 N 
ATOM      2  N   UNL     1      50.166  16.160  14.706  0.00  0.00    +0.000 NA
ATOM      3  C   UNL     1      50.807  17.055  12.729  0.00  0.00    +0.000 A 
ATOM      4  C   UNL     1      50.950  17.192  14.938  0.00  0.00    +0.000 A 
ATOM      5  C   UNL     1      50.070  16.065  13.339  0.00  0.00    +0.000 A 
ATOM      6  H   UNL     1      51.965  18.567  13.682  0.00  0.00    +0.000 HD
ENDROOT
BRANCH   3   9
ATOM      7 BR   UNL     1      47.631  17.648   6.232  0.00  0.00    +0.000 Br
ATOM      8  N   UNL     1      51.972  17.751   9.353  0.00  0.00    +0.000 N 
ATOM      9  C   UNL     1      50.971  17.307  11.284  0.00  0.00    +0.000 A 
ATOM     10  C   UNL     1      49.976  17.332  10.266  0.00  0.00    +0.000 A 
ATOM     11  C   UNL     1      50.634  17.613   9.064  0.00  0.00    +0.000 A 
ATOM     12  C   UNL     1      52.184  17.568  10.691  0.00  0.00    +0.000 A 
ATOM     13  C   UNL     1      48.580  17.144  10.237  0.00  0.00    +0.000 A 
ATOM     14  C   UNL     1      49.969  17.715   7.837  0.00  0.00    +0.000 A 
ATOM     15  C   UNL     1      47.897  17.242   9.025  0.00  0.00    +0.000 A 
ATOM     16  C   UNL     1      48.588  17.523   7.852  0.00  0.00    +0.000 A 
ATOM     17  H   UNL     1      52.695  17.958   8.677  0.00  0.00    +0.000 HD
ENDBRANCH   3   9
BRANCH   4  20
ATOM     18 BR   UNL     1      48.689  19.738  21.334  0.00  0.00    +0.000 Br
ATOM     19  N   UNL     1      52.607  18.249  18.014  0.00  0.00    +0.000 N 
ATOM     20  C   UNL     1      51.339  17.677  16.286  0.00  0.00    +0.000 A 
ATOM     21  C   UNL     1      50.484  18.123  17.332  0.00  0.00    +0.000 A 
ATOM     22  C   UNL     1      51.307  18.476  18.404  0.00  0.00    +0.000 A 
ATOM     23  C   UNL     1      52.637  17.766  16.734  0.00  0.00    +0.000 A 
ATOM     24  C   UNL     1      49.090  18.262  17.478  0.00  0.00    +0.000 A 
ATOM     25  C   UNL     1      50.810  18.962  19.617  0.00  0.00    +0.000 A 
ATOM     26  C   UNL     1      48.572  18.747  18.680  0.00  0.00    +0.000 A 
ATOM     27  C   UNL     1      49.424  19.087  19.723  0.00  0.00    +0.000 A 
ATOM     28  H   UNL     1      53.420  18.417  18.591  0.00  0.00    +0.000 HD
ENDBRANCH   4  20
TORSDOF 2
ENDMDL
MODEL 5
REMARK VINA RESULT:      -6.9     22.491     24.011
REMARK  Name = 179268_Nortopsentin.pdbqt.pdb
REMARK  2 active torsions:
REMARK  status: ('A' for Active; 'I' for Inactive)
REMARK    1  A    between atoms: C_3  and  C_9
REMARK    2  A    between atoms: C_4  and  C_20
REMARK                            x       y       z     vdW  Elec       q    Type
REMARK                         _______ _______ _______ _____ _____    ______ ____
ROOT
ATOM      1  N   UNL     1      50.789   0.232   9.036  0.00  0.00    +0.000 N 
ATOM      2  N   UNL     1      48.844   0.324  10.085  0.00  0.00    +0.000 NA
ATOM      3  C   UNL     1      49.940  -0.561   8.315  0.00  0.00    +0.000 A 
ATOM      4  C   UNL     1      50.090   0.748  10.098  0.00  0.00    +0.000 A 
ATOM      5  C   UNL     1      48.738  -0.489   8.983  0.00  0.00    +0.000 A 
ATOM      6  H   UNL     1      51.761   0.414   8.835  0.00  0.00    +0.000 HD
ENDROOT
BRANCH   3   9
ATOM      7 BR   UNL     1      51.356  -0.370   1.201  0.00  0.00    +0.000 Br
ATOM      8  N   UNL     1      50.675  -3.059   5.772  0.00  0.00    +0.000 N 
ATOM      9  C   UNL     1      50.255  -1.322   7.089  0.00  0.00    +0.000 A 
ATOM     10  C   UNL     1      50.477  -0.833   5.770  0.00  0.00    +0.000 A 
ATOM     11  C   UNL     1      50.738  -1.946   4.965  0.00  0.00    +0.000 A 
ATOM     12  C   UNL     1      50.384  -2.691   7.056  0.00  0.00    +0.000 A 
ATOM     13  C   UNL     1      50.483   0.442   5.172  0.00  0.00    +0.000 A 
ATOM     14  C   UNL     1      51.006  -1.850   3.595  0.00  0.00    +0.000 A 
ATOM     15  C   UNL     1      50.747   0.562   3.807  0.00  0.00    +0.000 A 
ATOM     16  C   UNL     1      51.003  -0.570   3.042  0.00  0.00    +0.000 A 
ATOM     17  H   UNL     1      50.823  -4.010   5.464  0.00  0.00    +0.000 HD
ENDBRANCH   3   9
BRANCH   4  20
ATOM     18 BR   UNL     1      52.168   7.508  11.679  0.00  0.00    +0.000 Br
ATOM     19  N   UNL     1      51.522   2.375  13.035  0.00  0.00    +0.000 N 
ATOM     20  C   UNL     1      50.665   1.661  11.117  0.00  0.00    +0.000 A 
ATOM     21  C   UNL     1      50.929   3.054  10.991  0.00  0.00    +0.000 A 
ATOM     22  C   UNL     1      51.466   3.475  12.210  0.00  0.00    +0.000 A 
ATOM     23  C   UNL     1      51.040   1.273  12.383  0.00  0.00    +0.000 A 
ATOM     24  C   UNL     1      50.763   4.002   9.962  0.00  0.00    +0.000 A 
ATOM     25  C   UNL     1      51.849   4.797  12.456  0.00  0.00    +0.000 A 
ATOM     26  C   UNL     1      51.140   5.327  10.186  0.00  0.00    +0.000 A 
ATOM     27  C   UNL     1      51.671   5.707  11.412  0.00  0.00    +0.000 A 
ATOM     28  H   UNL     1      51.870   2.384  13.984  0.00  0.00    +0.000 HD
ENDBRANCH   4  20
TORSDOF 2
ENDMDL
MODEL 6
REMARK VINA RESULT:      -6.8     21.467     23.681
REMARK  Name = 179268_Nortopsentin.pdbqt.pdb
REMARK  2 active torsions:
REMARK  status: ('A' for Active; 'I' for Inactive)
REMARK    1  A    between atoms: C_3  and  C_9
REMARK    2  A    between atoms: C_4  and  C_20
REMARK                            x       y       z     vdW  Elec       q    Type
REMARK                         _______ _______ _______ _____ _____    ______ ____
ROOT
ATOM      1  N   UNL     1      51.849   6.053   7.738  0.00  0.00    +0.000 N 
ATOM      2  N   UNL     1      50.031   7.305   7.890  0.00  0.00    +0.000 NA
ATOM      3  C   UNL     1      51.745   6.705   6.540  0.00  0.00    +0.000 A 
ATOM      4  C   UNL     1      50.795   6.442   8.526  0.00  0.00    +0.000 A 
ATOM      5  C   UNL     1      50.610   7.476   6.656  0.00  0.00    +0.000 A 
ATOM      6  H   UNL     1      52.567   5.399   8.008  0.00  0.00    +0.000 HD
ENDROOT
BRANCH   3   9
ATOM      7 BR   UNL     1      54.653   9.936   0.731  0.00  0.00    +0.000 Br
ATOM      8  N   UNL     1      54.111   5.709   3.961  0.00  0.00    +0.000 N 
ATOM      9  C   UNL     1      52.656   6.596   5.383  0.00  0.00    +0.000 A 
ATOM     10  C   UNL     1      52.961   7.575   4.395  0.00  0.00    +0.000 A 
ATOM     11  C   UNL     1      53.877   6.989   3.515  0.00  0.00    +0.000 A 
ATOM     12  C   UNL     1      53.378   5.463   5.088  0.00  0.00    +0.000 A 
ATOM     13  C   UNL     1      52.554   8.902   4.154  0.00  0.00    +0.000 A 
ATOM     14  C   UNL     1      54.406   7.661   2.407  0.00  0.00    +0.000 A 
ATOM     15  C   UNL     1      53.070   9.591   3.056  0.00  0.00    +0.000 A 
ATOM     16  C   UNL     1      53.978   8.973   2.205  0.00  0.00    +0.000 A 
ATOM     17  H   UNL     1      54.733   5.045   3.520  0.00  0.00    +0.000 HD
ENDBRANCH   3   9
BRANCH   4  20
ATOM     18 BR   UNL     1      52.435   7.122  15.552  0.00  0.00    +0.000 Br
ATOM     19  N   UNL     1      49.725   4.767  11.589  0.00  0.00    +0.000 N 
ATOM     20  C   UNL     1      50.555   5.954   9.907  0.00  0.00    +0.000 A 
ATOM     21  C   UNL     1      51.152   6.418  11.113  0.00  0.00    +0.000 A 
ATOM     22  C   UNL     1      50.613   5.656  12.151  0.00  0.00    +0.000 A 
ATOM     23  C   UNL     1      49.683   4.939  10.231  0.00  0.00    +0.000 A 
ATOM     24  C   UNL     1      52.098   7.414  11.427  0.00  0.00    +0.000 A 
ATOM     25  C   UNL     1      50.969   5.835  13.491  0.00  0.00    +0.000 A 
ATOM     26  C   UNL     1      52.469   7.609  12.759  0.00  0.00    +0.000 A 
ATOM     27  C   UNL     1      51.910   6.830  13.763  0.00  0.00    +0.000 A 
ATOM     28  H   UNL     1      49.184   4.087  12.105  0.00  0.00    +0.000 HD
ENDBRANCH   4  20
TORSDOF 2
ENDMDL
MODEL 7
REMARK VINA RESULT:      -6.7      2.622      3.339
REMARK  Name = 179268_Nortopsentin.pdbqt.pdb
REMARK  2 active torsions:
REMARK  status: ('A' for Active; 'I' for Inactive)
REMARK    1  A    between atoms: C_3  and  C_9
REMARK    2  A    between atoms: C_4  and  C_20
REMARK                            x       y       z     vdW  Elec       q    Type
REMARK                         _______ _______ _______ _____ _____    ______ ____
ROOT
ATOM      1  N   UNL     1      36.003  13.534  21.270  0.00  0.00    +0.000 N 
ATOM      2  N   UNL     1      35.332  15.154  22.618  0.00  0.00    +0.000 NA
ATOM      3  C   UNL     1      35.236  12.928  22.227  0.00  0.00    +0.000 A 
ATOM      4  C   UNL     1      36.037  14.878  21.541  0.00  0.00    +0.000 A 
ATOM      5  C   UNL     1      34.831  13.951  23.053  0.00  0.00    +0.000 A 
ATOM      6  H   UNL     1      36.468  13.084  20.496  0.00  0.00    +0.000 HD
ENDROOT
BRANCH   3   9
ATOM      7 BR   UNL     1      30.129   7.842  23.057  0.00  0.00    +0.000 Br
ATOM      8  N   UNL     1      35.235   9.294  22.421  0.00  0.00    +0.000 N 
ATOM      9  C   UNL     1      34.921  11.490  22.338  0.00  0.00    +0.000 A 
ATOM     10  C   UNL     1      33.651  10.868  22.510  0.00  0.00    +0.000 A 
ATOM     11  C   UNL     1      33.880   9.489  22.559  0.00  0.00    +0.000 A 
ATOM     12  C   UNL     1      35.871  10.496  22.287  0.00  0.00    +0.000 A 
ATOM     13  C   UNL     1      32.327  11.332  22.631  0.00  0.00    +0.000 A 
ATOM     14  C   UNL     1      32.854   8.551  22.722  0.00  0.00    +0.000 A 
ATOM     15  C   UNL     1      31.288  10.414  22.793  0.00  0.00    +0.000 A 
ATOM     16  C   UNL     1      31.558   9.052  22.836  0.00  0.00    +0.000 A 
ATOM     17  H   UNL     1      35.696   8.394  22.418  0.00  0.00    +0.000 HD
ENDBRANCH   3   9
BRANCH   4  20
ATOM     18 BR   UNL     1      36.719  21.859  19.720  0.00  0.00    +0.000 Br
ATOM     19  N   UNL     1      38.232  16.747  19.301  0.00  0.00    +0.000 N 
ATOM     20  C   UNL     1      36.769  15.881  20.727  0.00  0.00    +0.000 A 
ATOM     21  C   UNL     1      36.551  17.285  20.670  0.00  0.00    +0.000 A 
ATOM     22  C   UNL     1      37.483  17.804  19.767  0.00  0.00    +0.000 A 
ATOM     23  C   UNL     1      37.808  15.580  19.875  0.00  0.00    +0.000 A 
ATOM     24  C   UNL     1      35.653  18.172  21.296  0.00  0.00    +0.000 A 
ATOM     25  C   UNL     1      37.566  19.164  19.456  0.00  0.00    +0.000 A 
ATOM     26  C   UNL     1      35.718  19.535  20.999  0.00  0.00    +0.000 A 
ATOM     27  C   UNL     1      36.659  20.011  20.096  0.00  0.00    +0.000 A 
ATOM     28  H   UNL     1      38.986  16.826  18.632  0.00  0.00    +0.000 HD
ENDBRANCH   4  20
TORSDOF 2
ENDMDL
MODEL 8
REMARK VINA RESULT:      -6.6     22.068     24.170
REMARK  Name = 179268_Nortopsentin.pdbqt.pdb
REMARK  2 active torsions:
REMARK  status: ('A' for Active; 'I' for Inactive)
REMARK    1  A    between atoms: C_3  and  C_9
REMARK    2  A    between atoms: C_4  and  C_20
REMARK                            x       y       z     vdW  Elec       q    Type
REMARK                         _______ _______ _______ _____ _____    ______ ____
ROOT
ATOM      1  N   UNL     1      50.938   2.522   8.474  0.00  0.00    +0.000 N 
ATOM      2  N   UNL     1      50.864   2.330   6.271  0.00  0.00    +0.000 NA
ATOM      3  C   UNL     1      51.285   3.750   7.982  0.00  0.00    +0.000 A 
ATOM      4  C   UNL     1      50.692   1.691   7.410  0.00  0.00    +0.000 A 
ATOM      5  C   UNL     1      51.232   3.608   6.614  0.00  0.00    +0.000 A 
ATOM      6  H   UNL     1      50.872   2.258   9.445  0.00  0.00    +0.000 HD
ENDROOT
BRANCH   3   9
ATOM      7 BR   UNL     1      50.615   7.413  14.209  0.00  0.00    +0.000 Br
ATOM      8  N   UNL     1      52.556   6.914   9.252  0.00  0.00    +0.000 N 
ATOM      9  C   UNL     1      51.637   4.955   8.759  0.00  0.00    +0.000 A 
ATOM     10  C   UNL     1      51.246   5.306  10.083  0.00  0.00    +0.000 A 
ATOM     11  C   UNL     1      51.838   6.542  10.364  0.00  0.00    +0.000 A 
ATOM     12  C   UNL     1      52.440   5.962   8.278  0.00  0.00    +0.000 A 
ATOM     13  C   UNL     1      50.448   4.704  11.075  0.00  0.00    +0.000 A 
ATOM     14  C   UNL     1      51.673   7.205  11.586  0.00  0.00    +0.000 A 
ATOM     15  C   UNL     1      50.271   5.347  12.300  0.00  0.00    +0.000 A 
ATOM     16  C   UNL     1      50.877   6.574  12.541  0.00  0.00    +0.000 A 
ATOM     17  H   UNL     1      53.092   7.767   9.164  0.00  0.00    +0.000 HD
ENDBRANCH   3   9
BRANCH   4  20
ATOM     18 BR   UNL     1      50.831  -4.914   4.433  0.00  0.00    +0.000 Br
ATOM     19  N   UNL     1      49.378  -1.581   8.354  0.00  0.00    +0.000 N 
ATOM     20  C   UNL     1      50.285   0.269   7.531  0.00  0.00    +0.000 A 
ATOM     21  C   UNL     1      50.552  -0.795   6.625  0.00  0.00    +0.000 A 
ATOM     22  C   UNL     1      49.971  -1.944   7.166  0.00  0.00    +0.000 A 
ATOM     23  C   UNL     1      49.562  -0.245   8.584  0.00  0.00    +0.000 A 
ATOM     24  C   UNL     1      51.231  -0.898   5.395  0.00  0.00    +0.000 A 
ATOM     25  C   UNL     1      50.032  -3.194   6.543  0.00  0.00    +0.000 A 
ATOM     26  C   UNL     1      51.303  -2.137   4.754  0.00  0.00    +0.000 A 
ATOM     27  C   UNL     1      50.713  -3.256   5.326  0.00  0.00    +0.000 A 
ATOM     28  H   UNL     1      48.879  -2.213   8.966  0.00  0.00    +0.000 HD
ENDBRANCH   4  20
TORSDOF 2
ENDMDL
MODEL 9
REMARK VINA RESULT:      -6.5     22.394     23.900
REMARK  Name = 179268_Nortopsentin.pdbqt.pdb
REMARK  2 active torsions:
REMARK  status: ('A' for Active; 'I' for Inactive)
REMARK    1  A    between atoms: C_3  and  C_9
REMARK    2  A    between atoms: C_4  and  C_20
REMARK                            x       y       z     vdW  Elec       q    Type
REMARK                         _______ _______ _______ _____ _____    ______ ____
ROOT
ATOM      1  N   UNL     1      50.385   1.012   8.654  0.00  0.00    +0.000 N 
ATOM      2  N   UNL     1      48.671   0.602   9.991  0.00  0.00    +0.000 NA
ATOM      3  C   UNL     1      49.885  -0.197   8.257  0.00  0.00    +0.000 A 
ATOM      4  C   UNL     1      49.625   1.462   9.704  0.00  0.00    +0.000 A 
ATOM      5  C   UNL     1      48.822  -0.433   9.100  0.00  0.00    +0.000 A 
ATOM      6  H   UNL     1      51.173   1.499   8.254  0.00  0.00    +0.000 HD
ENDROOT
BRANCH   3   9
ATOM      7 BR   UNL     1      51.541  -0.762   1.215  0.00  0.00    +0.000 Br
ATOM      8  N   UNL     1      51.168  -2.851   6.123  0.00  0.00    +0.000 N 
ATOM      9  C   UNL     1      50.384  -1.053   7.162  0.00  0.00    +0.000 A 
ATOM     10  C   UNL     1      50.569  -0.725   5.789  0.00  0.00    +0.000 A 
ATOM     11  C   UNL     1      51.062  -1.873   5.162  0.00  0.00    +0.000 A 
ATOM     12  C   UNL     1      50.761  -2.365   7.334  0.00  0.00    +0.000 A 
ATOM     13  C   UNL     1      50.369   0.431   5.009  0.00  0.00    +0.000 A 
ATOM     14  C   UNL     1      51.365  -1.926   3.796  0.00  0.00    +0.000 A 
ATOM     15  C   UNL     1      50.665   0.401   3.646  0.00  0.00    +0.000 A 
ATOM     16  C   UNL     1      51.153  -0.760   3.060  0.00  0.00    +0.000 A 
ATOM     17  H   UNL     1      51.499  -3.793   5.961  0.00  0.00    +0.000 HD
ENDBRANCH   3   9
BRANCH   4  20
ATOM     18 BR   UNL     1      53.763   5.139  14.381  0.00  0.00    +0.000 Br
ATOM     19  N   UNL     1      49.568   4.844  11.077  0.00  0.00    +0.000 N 
ATOM     20  C   UNL     1      49.852   2.746  10.414  0.00  0.00    +0.000 A 
ATOM     21  C   UNL     1      50.890   3.062  11.334  0.00  0.00    +0.000 A 
ATOM     22  C   UNL     1      50.687   4.385  11.734  0.00  0.00    +0.000 A 
ATOM     23  C   UNL     1      49.055   3.860  10.277  0.00  0.00    +0.000 A 
ATOM     24  C   UNL     1      51.986   2.356  11.868  0.00  0.00    +0.000 A 
ATOM     25  C   UNL     1      51.523   5.042  12.642  0.00  0.00    +0.000 A 
ATOM     26  C   UNL     1      52.833   2.993  12.778  0.00  0.00    +0.000 A 
ATOM     27  C   UNL     1      52.597   4.310  13.150  0.00  0.00    +0.000 A 
ATOM     28  H   UNL     1      49.183   5.774  11.175  0.00  0.00    +0.000 HD
ENDBRANCH   4  20
TORSDOF 2
ENDMDL
