MODEL 1
REMARK VINA RESULT:      -4.4      0.000      0.000
REMARK  Name = 21574552_Mertensene.pdbqt.pdb
REMARK  1 active torsions:
REMARK  status: ('A' for Active; 'I' for Inactive)
REMARK    1  A    between atoms: C_4  and  C_13
REMARK                            x       y       z     vdW  Elec       q    Type
REMARK                         _______ _______ _______ _____ _____    ______ ____
ROOT
ATOM      1 BR   UNL     1      31.854  16.383  21.385  0.00  0.00    +0.000 Br
ATOM      2 CL   UNL     1      36.202  12.465  20.336  0.00  0.00    +0.000 Cl
ATOM      3 CL   UNL     1      33.142  11.103  20.954  0.00  0.00    +0.000 Cl
ATOM      4  C   UNL     1      34.646  15.543  22.043  0.00  0.00    +0.000 C 
ATOM      5  C   UNL     1      35.372  14.269  22.018  0.00  0.00    +0.000 C 
ATOM      6  C   UNL     1      35.247  12.831  21.793  0.00  0.00    +0.000 C 
ATOM      7  C   UNL     1      33.177  15.148  21.748  0.00  0.00    +0.000 C 
ATOM      8  C   UNL     1      33.752  12.587  21.548  0.00  0.00    +0.000 C 
ATOM      9  C   UNL     1      32.938  13.757  21.545  0.00  0.00    +0.000 C 
ATOM     10  C   UNL     1      34.732  16.176  23.450  0.00  0.00    +0.000 C 
ATOM     11  C   UNL     1      35.785  11.995  22.960  0.00  0.00    +0.000 C 
ENDROOT
BRANCH   4  13
ATOM     12 CL   UNL     1      36.156  18.270  18.905  0.00  0.00    +0.000 Cl
ATOM     13  C   UNL     1      35.150  16.445  20.994  0.00  0.00    +0.000 C 
ATOM     14  C   UNL     1      35.560  17.183  20.142  0.00  0.00    +0.000 C 
ENDBRANCH   4  13
TORSDOF 1
ENDMDL
MODEL 2
REMARK VINA RESULT:      -4.2     21.145     22.434
REMARK  Name = 21574552_Mertensene.pdbqt.pdb
REMARK  1 active torsions:
REMARK  status: ('A' for Active; 'I' for Inactive)
REMARK    1  A    between atoms: C_4  and  C_13
REMARK                            x       y       z     vdW  Elec       q    Type
REMARK                         _______ _______ _______ _____ _____    ______ ____
ROOT
ATOM      1 BR   UNL     1      51.497   5.776   8.881  0.00  0.00    +0.000 Br
ATOM      2 CL   UNL     1      51.525   1.324  12.822  0.00  0.00    +0.000 Cl
ATOM      3 CL   UNL     1      52.832   0.566   9.769  0.00  0.00    +0.000 Cl
ATOM      4  C   UNL     1      49.905   4.222  10.876  0.00  0.00    +0.000 C 
ATOM      5  C   UNL     1      49.969   2.856  11.407  0.00  0.00    +0.000 C 
ATOM      6  C   UNL     1      50.642   1.565  11.295  0.00  0.00    +0.000 C 
ATOM      7  C   UNL     1      50.949   4.232   9.731  0.00  0.00    +0.000 C 
ATOM      8  C   UNL     1      51.612   1.713  10.115  0.00  0.00    +0.000 C 
ATOM      9  C   UNL     1      51.643   3.006   9.514  0.00  0.00    +0.000 C 
ATOM     10  C   UNL     1      48.502   4.499  10.290  0.00  0.00    +0.000 C 
ATOM     11  C   UNL     1      49.668   0.398  11.098  0.00  0.00    +0.000 C 
ENDROOT
BRANCH   4  13
ATOM     12 CL   UNL     1      51.018   7.168  13.981  0.00  0.00    +0.000 Cl
ATOM     13  C   UNL     1      50.278   5.197  11.913  0.00  0.00    +0.000 C 
ATOM     14  C   UNL     1      50.581   5.995  12.757  0.00  0.00    +0.000 C 
ENDBRANCH   4  13
TORSDOF 1
ENDMDL
MODEL 3
REMARK VINA RESULT:      -4.0     25.281     26.736
REMARK  Name = 21574552_Mertensene.pdbqt.pdb
REMARK  1 active torsions:
REMARK  status: ('A' for Active; 'I' for Inactive)
REMARK    1  A    between atoms: C_4  and  C_13
REMARK                            x       y       z     vdW  Elec       q    Type
REMARK                         _______ _______ _______ _____ _____    ______ ____
ROOT
ATOM      1 BR   UNL     1      53.813  -1.343   6.406  0.00  0.00    +0.000 Br
ATOM      2 CL   UNL     1      48.706   1.499   7.503  0.00  0.00    +0.000 Cl
ATOM      3 CL   UNL     1      51.290   2.311   9.569  0.00  0.00    +0.000 Cl
ATOM      4  C   UNL     1      50.865  -1.612   6.814  0.00  0.00    +0.000 C 
ATOM      5  C   UNL     1      49.849  -0.839   7.537  0.00  0.00    +0.000 C 
ATOM      6  C   UNL     1      49.629   0.293   8.434  0.00  0.00    +0.000 C 
ATOM      7  C   UNL     1      52.206  -0.955   7.227  0.00  0.00    +0.000 C 
ATOM      8  C   UNL     1      51.029   0.817   8.778  0.00  0.00    +0.000 C 
ATOM      9  C   UNL     1      52.106   0.144   8.130  0.00  0.00    +0.000 C 
ATOM     10  C   UNL     1      50.849  -3.083   7.287  0.00  0.00    +0.000 C 
ATOM     11  C   UNL     1      48.829  -0.084   9.685  0.00  0.00    +0.000 C 
ENDROOT
BRANCH   4  13
ATOM     12 CL   UNL     1      50.269  -1.230   2.448  0.00  0.00    +0.000 Cl
ATOM     13  C   UNL     1      50.667  -1.492   5.361  0.00  0.00    +0.000 C 
ATOM     14  C   UNL     1      50.505  -1.391   4.176  0.00  0.00    +0.000 C 
ENDBRANCH   4  13
TORSDOF 1
ENDMDL
MODEL 4
REMARK VINA RESULT:      -4.0     21.319     22.734
REMARK  Name = 21574552_Mertensene.pdbqt.pdb
REMARK  1 active torsions:
REMARK  status: ('A' for Active; 'I' for Inactive)
REMARK    1  A    between atoms: C_4  and  C_13
REMARK                            x       y       z     vdW  Elec       q    Type
REMARK                         _______ _______ _______ _____ _____    ______ ____
ROOT
ATOM      1 BR   UNL     1      52.863   3.267  12.204  0.00  0.00    +0.000 Br
ATOM      2 CL   UNL     1      51.012   6.588   7.633  0.00  0.00    +0.000 Cl
ATOM      3 CL   UNL     1      54.190   7.215   8.686  0.00  0.00    +0.000 Cl
ATOM      4  C   UNL     1      50.680   4.997  11.122  0.00  0.00    +0.000 C 
ATOM      5  C   UNL     1      50.623   6.104  10.160  0.00  0.00    +0.000 C 
ATOM      6  C   UNL     1      51.419   6.993   9.318  0.00  0.00    +0.000 C 
ATOM      7  C   UNL     1      52.196   4.737  11.309  0.00  0.00    +0.000 C 
ATOM      8  C   UNL     1      52.881   6.645   9.630  0.00  0.00    +0.000 C 
ATOM      9  C   UNL     1      53.068   5.576  10.554  0.00  0.00    +0.000 C 
ATOM     10  C   UNL     1      50.066   5.434  12.471  0.00  0.00    +0.000 C 
ATOM     11  C   UNL     1      51.115   8.475   9.559  0.00  0.00    +0.000 C 
ENDROOT
BRANCH   4  13
ATOM     12 CL   UNL     1      48.725   1.396   9.459  0.00  0.00    +0.000 Cl
ATOM     13  C   UNL     1      50.023   3.801  10.572  0.00  0.00    +0.000 C 
ATOM     14  C   UNL     1      49.491   2.824  10.121  0.00  0.00    +0.000 C 
ENDBRANCH   4  13
TORSDOF 1
ENDMDL
MODEL 5
REMARK VINA RESULT:      -4.0     21.090     22.424
REMARK  Name = 21574552_Mertensene.pdbqt.pdb
REMARK  1 active torsions:
REMARK  status: ('A' for Active; 'I' for Inactive)
REMARK    1  A    between atoms: C_4  and  C_13
REMARK                            x       y       z     vdW  Elec       q    Type
REMARK                         _______ _______ _______ _____ _____    ______ ____
ROOT
ATOM      1 BR   UNL     1      50.725   1.511  11.077  0.00  0.00    +0.000 Br
ATOM      2 CL   UNL     1      53.074   6.969  11.295  0.00  0.00    +0.000 Cl
ATOM      3 CL   UNL     1      53.290   5.181  14.186  0.00  0.00    +0.000 Cl
ATOM      4  C   UNL     1      50.317   4.411  10.481  0.00  0.00    +0.000 C 
ATOM      5  C   UNL     1      50.838   5.662  11.042  0.00  0.00    +0.000 C 
ATOM      6  C   UNL     1      51.663   6.241  12.100  0.00  0.00    +0.000 C 
ATOM      7  C   UNL     1      50.843   3.316  11.443  0.00  0.00    +0.000 C 
ATOM      8  C   UNL     1      52.082   5.056  12.982  0.00  0.00    +0.000 C 
ATOM      9  C   UNL     1      51.635   3.778  12.535  0.00  0.00    +0.000 C 
ATOM     10  C   UNL     1      48.772   4.418  10.512  0.00  0.00    +0.000 C 
ATOM     11  C   UNL     1      50.934   7.326  12.899  0.00  0.00    +0.000 C 
ENDROOT
BRANCH   4  13
ATOM     12 CL   UNL     1      51.895   3.774   6.399  0.00  0.00    +0.000 Cl
ATOM     13  C   UNL     1      50.845   4.193   9.126  0.00  0.00    +0.000 C 
ATOM     14  C   UNL     1      51.275   4.018   8.019  0.00  0.00    +0.000 C 
ENDBRANCH   4  13
TORSDOF 1
ENDMDL
MODEL 6
REMARK VINA RESULT:      -4.0     21.509     22.588
REMARK  Name = 21574552_Mertensene.pdbqt.pdb
REMARK  1 active torsions:
REMARK  status: ('A' for Active; 'I' for Inactive)
REMARK    1  A    between atoms: C_4  and  C_13
REMARK                            x       y       z     vdW  Elec       q    Type
REMARK                         _______ _______ _______ _____ _____    ______ ____
ROOT
ATOM      1 BR   UNL     1      54.169   7.020   8.380  0.00  0.00    +0.000 Br
ATOM      2 CL   UNL     1      50.904   3.721  12.096  0.00  0.00    +0.000 Cl
ATOM      3 CL   UNL     1      51.308   2.418   8.975  0.00  0.00    +0.000 Cl
ATOM      4  C   UNL     1      51.913   6.993  10.340  0.00  0.00    +0.000 C 
ATOM      5  C   UNL     1      50.961   5.978  10.801  0.00  0.00    +0.000 C 
ATOM      6  C   UNL     1      50.493   4.608  10.608  0.00  0.00    +0.000 C 
ATOM      7  C   UNL     1      52.660   6.307   9.168  0.00  0.00    +0.000 C 
ATOM      8  C   UNL     1      51.290   4.072   9.410  0.00  0.00    +0.000 C 
ATOM      9  C   UNL     1      52.256   4.972   8.872  0.00  0.00    +0.000 C 
ATOM     10  C   UNL     1      51.155   8.230   9.808  0.00  0.00    +0.000 C 
ATOM     11  C   UNL     1      48.980   4.519  10.381  0.00  0.00    +0.000 C 
ENDROOT
BRANCH   4  13
ATOM     12 CL   UNL     1      54.742   8.046  13.573  0.00  0.00    +0.000 Cl
ATOM     13  C   UNL     1      52.859   7.339  11.412  0.00  0.00    +0.000 C 
ATOM     14  C   UNL     1      53.629   7.623  12.289  0.00  0.00    +0.000 C 
ENDBRANCH   4  13
TORSDOF 1
ENDMDL
MODEL 7
REMARK VINA RESULT:      -3.9     17.583     19.320
REMARK  Name = 21574552_Mertensene.pdbqt.pdb
REMARK  1 active torsions:
REMARK  status: ('A' for Active; 'I' for Inactive)
REMARK    1  A    between atoms: C_4  and  C_13
REMARK                            x       y       z     vdW  Elec       q    Type
REMARK                         _______ _______ _______ _____ _____    ______ ____
ROOT
ATOM      1 BR   UNL     1      31.186  -4.112  13.265  0.00  0.00    +0.000 Br
ATOM      2 CL   UNL     1      28.624   1.224  13.835  0.00  0.00    +0.000 Cl
ATOM      3 CL   UNL     1      30.194   0.063  16.626  0.00  0.00    +0.000 Cl
ATOM      4  C   UNL     1      28.716  -2.488  12.823  0.00  0.00    +0.000 C 
ATOM      5  C   UNL     1      28.132  -1.305  13.463  0.00  0.00    +0.000 C 
ATOM      6  C   UNL     1      28.268  -0.359  14.568  0.00  0.00    +0.000 C 
ATOM      7  C   UNL     1      29.914  -2.860  13.733  0.00  0.00    +0.000 C 
ATOM      8  C   UNL     1      29.460  -0.865  15.392  0.00  0.00    +0.000 C 
ATOM      9  C   UNL     1      30.117  -2.016  14.865  0.00  0.00    +0.000 C 
ATOM     10  C   UNL     1      27.696  -3.649  12.822  0.00  0.00    +0.000 C 
ATOM     11  C   UNL     1      26.994  -0.239  15.411  0.00  0.00    +0.000 C 
ENDROOT
BRANCH   4  13
ATOM     12 CL   UNL     1      30.118  -1.504   8.746  0.00  0.00    +0.000 Cl
ATOM     13  C   UNL     1      29.189  -2.162  11.469  0.00  0.00    +0.000 C 
ATOM     14  C   UNL     1      29.572  -1.895  10.363  0.00  0.00    +0.000 C 
ENDBRANCH   4  13
TORSDOF 1
ENDMDL
MODEL 8
REMARK VINA RESULT:      -3.8     24.383     25.684
REMARK  Name = 21574552_Mertensene.pdbqt.pdb
REMARK  1 active torsions:
REMARK  status: ('A' for Active; 'I' for Inactive)
REMARK    1  A    between atoms: C_4  and  C_13
REMARK                            x       y       z     vdW  Elec       q    Type
REMARK                         _______ _______ _______ _____ _____    ______ ____
ROOT
ATOM      1 BR   UNL     1      54.537  -0.927   9.760  0.00  0.00    +0.000 Br
ATOM      2 CL   UNL     1      48.663  -0.355   9.035  0.00  0.00    +0.000 Cl
ATOM      3 CL   UNL     1      50.233  -2.268   6.694  0.00  0.00    +0.000 Cl
ATOM      4  C   UNL     1      52.225   0.964   9.651  0.00  0.00    +0.000 C 
ATOM      5  C   UNL     1      50.913   0.952   8.995  0.00  0.00    +0.000 C 
ATOM      6  C   UNL     1      50.049   0.219   8.075  0.00  0.00    +0.000 C 
ATOM      7  C   UNL     1      52.945  -0.284   9.081  0.00  0.00    +0.000 C 
ATOM      8  C   UNL     1      50.896  -0.959   7.573  0.00  0.00    +0.000 C 
ATOM      9  C   UNL     1      52.199  -1.056   8.143  0.00  0.00    +0.000 C 
ATOM     10  C   UNL     1      53.008   2.234   9.248  0.00  0.00    +0.000 C 
ATOM     11  C   UNL     1      49.528   1.087   6.924  0.00  0.00    +0.000 C 
ENDROOT
BRANCH   4  13
ATOM     12 CL   UNL     1      51.751   0.601  14.033  0.00  0.00    +0.000 Cl
ATOM     13  C   UNL     1      52.075   0.842  11.110  0.00  0.00    +0.000 C 
ATOM     14  C   UNL     1      51.948   0.743  12.299  0.00  0.00    +0.000 C 
ENDBRANCH   4  13
TORSDOF 1
ENDMDL
MODEL 9
REMARK VINA RESULT:      -3.7     23.627     24.858
REMARK  Name = 21574552_Mertensene.pdbqt.pdb
REMARK  1 active torsions:
REMARK  status: ('A' for Active; 'I' for Inactive)
REMARK    1  A    between atoms: C_4  and  C_13
REMARK                            x       y       z     vdW  Elec       q    Type
REMARK                         _______ _______ _______ _____ _____    ______ ____
ROOT
ATOM      1 BR   UNL     1      53.943   1.074   7.296  0.00  0.00    +0.000 Br
ATOM      2 CL   UNL     1      49.025   2.996  10.029  0.00  0.00    +0.000 Cl
ATOM      3 CL   UNL     1      50.782   0.613  11.713  0.00  0.00    +0.000 Cl
ATOM      4  C   UNL     1      51.027   1.666   7.023  0.00  0.00    +0.000 C 
ATOM      5  C   UNL     1      49.889   1.692   7.950  0.00  0.00    +0.000 C 
ATOM      6  C   UNL     1      49.463   1.422   9.320  0.00  0.00    +0.000 C 
ATOM      7  C   UNL     1      52.188   1.082   7.867  0.00  0.00    +0.000 C 
ATOM      8  C   UNL     1      50.693   0.827  10.019  0.00  0.00    +0.000 C 
ATOM      9  C   UNL     1      51.869   0.752   9.217  0.00  0.00    +0.000 C 
ATOM     10  C   UNL     1      50.727   0.717   5.841  0.00  0.00    +0.000 C 
ATOM     11  C   UNL     1      48.248   0.491   9.396  0.00  0.00    +0.000 C 
ENDROOT
BRANCH   4  13
ATOM     12 CL   UNL     1      52.011   5.766   5.691  0.00  0.00    +0.000 Cl
ATOM     13  C   UNL     1      51.358   3.027   6.575  0.00  0.00    +0.000 C 
ATOM     14  C   UNL     1      51.627   4.139   6.211  0.00  0.00    +0.000 C 
ENDBRANCH   4  13
TORSDOF 1
ENDMDL
