MODEL 1
REMARK VINA RESULT:      -7.1      0.000      0.000
REMARK  Name = 222284_BetaSitosterol.pdbqt.pdb
REMARK  5 active torsions:
REMARK  status: ('A' for Active; 'I' for Inactive)
REMARK    1  A    between atoms: C_5  and  C_22
REMARK    2  A    between atoms: C_19  and  O_20
REMARK    3  A    between atoms: C_22  and  C_24
REMARK    4  A    between atoms: C_25  and  C_26
REMARK    5  A    between atoms: C_26  and  C_30
REMARK                            x       y       z     vdW  Elec       q    Type
REMARK                         _______ _______ _______ _____ _____    ______ ____
ROOT
ATOM      1  C   UNL     1      53.079   1.807  10.136  0.00  0.00    +0.000 C 
ATOM      2  C   UNL     1      52.027   2.806  10.841  0.00  0.00    +0.000 C 
ATOM      3  C   UNL     1      52.073   4.268  10.631  0.00  0.00    +0.000 C 
ATOM      4  C   UNL     1      52.861   4.984   9.562  0.00  0.00    +0.000 C 
ATOM      5  C   UNL     1      52.214   0.644   9.673  0.00  0.00    +0.000 C 
ATOM      6  C   UNL     1      53.662   2.581   9.038  0.00  0.00    +0.000 C 
ATOM      7  C   UNL     1      52.934   6.530   9.436  0.00  0.00    +0.000 C 
ATOM      8  C   UNL     1      50.767   2.131  10.879  0.00  0.00    +0.000 C 
ATOM      9  C   UNL     1      53.594   4.064   8.764  0.00  0.00    +0.000 C 
ATOM     10  C   UNL     1      50.878   0.831  10.128  0.00  0.00    +0.000 C 
ATOM     11  C   UNL     1      51.238   5.140  11.371  0.00  0.00    +0.000 C 
ATOM     12  C   UNL     1      54.110   1.359  11.203  0.00  0.00    +0.000 C 
ATOM     13  C   UNL     1      51.748   7.328  10.265  0.00  0.00    +0.000 C 
ATOM     14  C   UNL     1      52.720   6.943   8.018  0.00  0.00    +0.000 C 
ATOM     15  C   UNL     1      51.119   6.617  11.151  0.00  0.00    +0.000 C 
ATOM     16  C   UNL     1      54.298   7.021  10.000  0.00  0.00    +0.000 C 
ATOM     17  C   UNL     1      50.975   8.269   9.487  0.00  0.00    +0.000 C 
ATOM     18  C   UNL     1      51.781   7.941   7.320  0.00  0.00    +0.000 C 
ATOM     19  C   UNL     1      50.857   8.675   8.120  0.00  0.00    +0.000 C 
ENDROOT
BRANCH  19  20
ATOM     20  O   UNL     1      50.455   9.931   7.770  0.00  0.00    +0.000 OA
ATOM     21  H   UNL     1      49.722  10.240   8.329  0.00  0.00    +0.000 HD
ENDBRANCH  19  20
BRANCH   5  22
ATOM     22  C   UNL     1      52.669  -0.437   8.855  0.00  0.00    +0.000 C 
ATOM     23  C   UNL     1      53.814  -1.331   9.260  0.00  0.00    +0.000 C 
BRANCH  22  24
ATOM     24  C   UNL     1      52.059  -0.754   7.611  0.00  0.00    +0.000 C 
ATOM     25  C   UNL     1      51.398  -1.124   6.276  0.00  0.00    +0.000 C 
BRANCH  25  26
ATOM     26  C   UNL     1      50.795  -1.484   5.032  0.00  0.00    +0.000 C 
ATOM     27  C   UNL     1      50.606  -0.496   3.993  0.00  0.00    +0.000 C 
ATOM     28  C   UNL     1      51.045   0.947   4.153  0.00  0.00    +0.000 C 
ATOM     29  C   UNL     1      49.933  -0.792   2.670  0.00  0.00    +0.000 C 
BRANCH  26  30
ATOM     30  C   UNL     1      50.383  -2.824   4.806  0.00  0.00    +0.000 C 
ATOM     31  C   UNL     1      49.960  -4.268   4.511  0.00  0.00    +0.000 C 
ENDBRANCH  26  30
ENDBRANCH  25  26
ENDBRANCH  22  24
ENDBRANCH   5  22
TORSDOF 5
ENDMDL
MODEL 2
REMARK VINA RESULT:      -6.8      4.426      7.449
REMARK  Name = 222284_BetaSitosterol.pdbqt.pdb
REMARK  5 active torsions:
REMARK  status: ('A' for Active; 'I' for Inactive)
REMARK    1  A    between atoms: C_5  and  C_22
REMARK    2  A    between atoms: C_19  and  O_20
REMARK    3  A    between atoms: C_22  and  C_24
REMARK    4  A    between atoms: C_25  and  C_26
REMARK    5  A    between atoms: C_26  and  C_30
REMARK                            x       y       z     vdW  Elec       q    Type
REMARK                         _______ _______ _______ _____ _____    ______ ____
ROOT
ATOM      1  C   UNL     1      52.718   1.399  12.050  0.00  0.00    +0.000 C 
ATOM      2  C   UNL     1      52.445   0.920  13.566  0.00  0.00    +0.000 C 
ATOM      3  C   UNL     1      53.019   1.629  14.728  0.00  0.00    +0.000 C 
ATOM      4  C   UNL     1      53.658   2.995  14.703  0.00  0.00    +0.000 C 
ATOM      5  C   UNL     1      51.356   1.277  11.384  0.00  0.00    +0.000 C 
ATOM      6  C   UNL     1      53.197   2.778  12.167  0.00  0.00    +0.000 C 
ATOM      7  C   UNL     1      54.316   3.661  15.942  0.00  0.00    +0.000 C 
ATOM      8  C   UNL     1      51.099   0.440  13.619  0.00  0.00    +0.000 C 
ATOM      9  C   UNL     1      53.662   3.534  13.388  0.00  0.00    +0.000 C 
ATOM     10  C   UNL     1      50.428   0.699  12.297  0.00  0.00    +0.000 C 
ATOM     11  C   UNL     1      52.891   1.109  16.039  0.00  0.00    +0.000 C 
ATOM     12  C   UNL     1      53.749   0.430  11.416  0.00  0.00    +0.000 C 
ATOM     13  C   UNL     1      53.884   2.976  17.382  0.00  0.00    +0.000 C 
ATOM     14  C   UNL     1      53.864   5.078  16.068  0.00  0.00    +0.000 C 
ATOM     15  C   UNL     1      53.327   1.807  17.292  0.00  0.00    +0.000 C 
ATOM     16  C   UNL     1      55.863   3.540  15.822  0.00  0.00    +0.000 C 
ATOM     17  C   UNL     1      53.367   3.891  18.372  0.00  0.00    +0.000 C 
ATOM     18  C   UNL     1      53.252   5.912  17.207  0.00  0.00    +0.000 C 
ATOM     19  C   UNL     1      53.008   5.274  18.459  0.00  0.00    +0.000 C 
ENDROOT
BRANCH  19  20
ATOM     20  O   UNL     1      53.071   5.967  19.633  0.00  0.00    +0.000 OA
ATOM     21  H   UNL     1      52.451   6.715  19.638  0.00  0.00    +0.000 HD
ENDBRANCH  19  20
BRANCH   5  22
ATOM     22  C   UNL     1      51.049   1.732  10.064  0.00  0.00    +0.000 C 
ATOM     23  C   UNL     1      50.677   0.787   8.950  0.00  0.00    +0.000 C 
BRANCH  22  24
ATOM     24  C   UNL     1      51.055   3.111   9.718  0.00  0.00    +0.000 C 
ATOM     25  C   UNL     1      51.090   4.599   9.342  0.00  0.00    +0.000 C 
BRANCH  25  26
ATOM     26  C   UNL     1      51.137   5.987   9.006  0.00  0.00    +0.000 C 
ATOM     27  C   UNL     1      51.201   6.994  10.042  0.00  0.00    +0.000 C 
ATOM     28  C   UNL     1      51.239   6.642  11.517  0.00  0.00    +0.000 C 
ATOM     29  C   UNL     1      51.206   8.481   9.764  0.00  0.00    +0.000 C 
BRANCH  26  30
ATOM     30  C   UNL     1      51.130   6.386   7.643  0.00  0.00    +0.000 C 
ATOM     31  C   UNL     1      51.073   6.839   6.179  0.00  0.00    +0.000 C 
ENDBRANCH  26  30
ENDBRANCH  25  26
ENDBRANCH  22  24
ENDBRANCH   5  22
TORSDOF 5
ENDMDL
MODEL 3
REMARK VINA RESULT:      -6.7      4.359      5.829
REMARK  Name = 222284_BetaSitosterol.pdbqt.pdb
REMARK  5 active torsions:
REMARK  status: ('A' for Active; 'I' for Inactive)
REMARK    1  A    between atoms: C_5  and  C_22
REMARK    2  A    between atoms: C_19  and  O_20
REMARK    3  A    between atoms: C_22  and  C_24
REMARK    4  A    between atoms: C_25  and  C_26
REMARK    5  A    between atoms: C_26  and  C_30
REMARK                            x       y       z     vdW  Elec       q    Type
REMARK                         _______ _______ _______ _____ _____    ______ ____
ROOT
ATOM      1  C   UNL     1      52.426   1.198  12.089  0.00  0.00    +0.000 C 
ATOM      2  C   UNL     1      52.553   0.754  13.634  0.00  0.00    +0.000 C 
ATOM      3  C   UNL     1      53.258   1.584  14.632  0.00  0.00    +0.000 C 
ATOM      4  C   UNL     1      53.680   3.020  14.450  0.00  0.00    +0.000 C 
ATOM      5  C   UNL     1      50.983   0.868  11.737  0.00  0.00    +0.000 C 
ATOM      6  C   UNL     1      52.722   2.632  12.079  0.00  0.00    +0.000 C 
ATOM      7  C   UNL     1      54.489   3.821  15.506  0.00  0.00    +0.000 C 
ATOM      8  C   UNL     1      51.329   0.103  13.986  0.00  0.00    +0.000 C 
ATOM      9  C   UNL     1      53.328   3.497  13.158  0.00  0.00    +0.000 C 
ATOM     10  C   UNL     1      50.361   0.212  12.838  0.00  0.00    +0.000 C 
ATOM     11  C   UNL     1      53.486   1.110  15.947  0.00  0.00    +0.000 C 
ATOM     12  C   UNL     1      53.421   0.348  11.258  0.00  0.00    +0.000 C 
ATOM     13  C   UNL     1      54.475   3.149  17.015  0.00  0.00    +0.000 C 
ATOM     14  C   UNL     1      53.882   5.169  15.708  0.00  0.00    +0.000 C 
ATOM     15  C   UNL     1      54.079   1.913  17.065  0.00  0.00    +0.000 C 
ATOM     16  C   UNL     1      55.976   3.901  15.053  0.00  0.00    +0.000 C 
ATOM     17  C   UNL     1      54.059   4.030  18.082  0.00  0.00    +0.000 C 
ATOM     18  C   UNL     1      53.418   5.964  16.941  0.00  0.00    +0.000 C 
ATOM     19  C   UNL     1      53.539   5.355  18.225  0.00  0.00    +0.000 C 
ENDROOT
BRANCH  19  20
ATOM     20  O   UNL     1      53.755   6.101  19.347  0.00  0.00    +0.000 OA
ATOM     21  H   UNL     1      54.552   5.810  19.820  0.00  0.00    +0.000 HD
ENDBRANCH  19  20
BRANCH   5  22
ATOM     22  C   UNL     1      50.341   1.220  10.510  0.00  0.00    +0.000 C 
ATOM     23  C   UNL     1      49.619   2.531  10.322  0.00  0.00    +0.000 C 
BRANCH  22  24
ATOM     24  C   UNL     1      50.356   0.365   9.374  0.00  0.00    +0.000 C 
ATOM     25  C   UNL     1      50.401  -0.552   8.144  0.00  0.00    +0.000 C 
BRANCH  25  26
ATOM     26  C   UNL     1      50.452  -1.391   6.989  0.00  0.00    +0.000 C 
ATOM     27  C   UNL     1      50.485  -0.816   5.662  0.00  0.00    +0.000 C 
ATOM     28  C   UNL     1      50.485   0.682   5.424  0.00  0.00    +0.000 C 
ATOM     29  C   UNL     1      50.492  -1.641   4.393  0.00  0.00    +0.000 C 
BRANCH  26  30
ATOM     30  C   UNL     1      50.480  -2.803   7.140  0.00  0.00    +0.000 C 
ATOM     31  C   UNL     1      50.458  -4.329   7.286  0.00  0.00    +0.000 C 
ENDBRANCH  26  30
ENDBRANCH  25  26
ENDBRANCH  22  24
ENDBRANCH   5  22
TORSDOF 5
ENDMDL
MODEL 4
REMARK VINA RESULT:      -6.5     12.863     17.166
REMARK  Name = 222284_BetaSitosterol.pdbqt.pdb
REMARK  5 active torsions:
REMARK  status: ('A' for Active; 'I' for Inactive)
REMARK    1  A    between atoms: C_5  and  C_22
REMARK    2  A    between atoms: C_19  and  O_20
REMARK    3  A    between atoms: C_22  and  C_24
REMARK    4  A    between atoms: C_25  and  C_26
REMARK    5  A    between atoms: C_26  and  C_30
REMARK                            x       y       z     vdW  Elec       q    Type
REMARK                         _______ _______ _______ _____ _____    ______ ____
ROOT
ATOM      1  C   UNL     1      53.538  15.430  21.198  0.00  0.00    +0.000 C 
ATOM      2  C   UNL     1      52.048  15.659  21.770  0.00  0.00    +0.000 C 
ATOM      3  C   UNL     1      51.204  16.788  21.327  0.00  0.00    +0.000 C 
ATOM      4  C   UNL     1      51.462  17.671  20.132  0.00  0.00    +0.000 C 
ATOM      5  C   UNL     1      53.604  13.930  20.957  0.00  0.00    +0.000 C 
ATOM      6  C   UNL     1      53.603  16.228  19.972  0.00  0.00    +0.000 C 
ATOM      7  C   UNL     1      50.582  18.894  19.757  0.00  0.00    +0.000 C 
ATOM      8  C   UNL     1      51.467  14.366  21.958  0.00  0.00    +0.000 C 
ATOM      9  C   UNL     1      52.661  17.293  19.467  0.00  0.00    +0.000 C 
ATOM     10  C   UNL     1      52.405  13.318  21.422  0.00  0.00    +0.000 C 
ATOM     11  C   UNL     1      49.959  17.057  21.946  0.00  0.00    +0.000 C 
ATOM     12  C   UNL     1      54.548  15.875  22.288  0.00  0.00    +0.000 C 
ATOM     13  C   UNL     1      49.100  18.903  20.487  0.00  0.00    +0.000 C 
ATOM     14  C   UNL     1      50.263  18.874  18.299  0.00  0.00    +0.000 C 
ATOM     15  C   UNL     1      48.976  18.095  21.496  0.00  0.00    +0.000 C 
ATOM     16  C   UNL     1      51.314  20.198  20.188  0.00  0.00    +0.000 C 
ATOM     17  C   UNL     1      47.971  19.041  19.596  0.00  0.00    +0.000 C 
ATOM     18  C   UNL     1      48.963  18.966  17.483  0.00  0.00    +0.000 C 
ATOM     19  C   UNL     1      47.728  19.082  18.186  0.00  0.00    +0.000 C 
ENDROOT
BRANCH  19  20
ATOM     20  O   UNL     1      46.668  19.755  17.653  0.00  0.00    +0.000 OA
ATOM     21  H   UNL     1      46.154  19.191  17.051  0.00  0.00    +0.000 HD
ENDBRANCH  19  20
BRANCH   5  22
ATOM     22  C   UNL     1      54.684  13.254  20.308  0.00  0.00    +0.000 C 
ATOM     23  C   UNL     1      55.774  12.549  21.075  0.00  0.00    +0.000 C 
BRANCH  22  24
ATOM     24  C   UNL     1      54.791  13.183  18.893  0.00  0.00    +0.000 C 
ATOM     25  C   UNL     1      54.890  13.130  17.361  0.00  0.00    +0.000 C 
BRANCH  25  26
ATOM     26  C   UNL     1      54.964  13.085  15.935  0.00  0.00    +0.000 C 
ATOM     27  C   UNL     1      54.626  14.247  15.144  0.00  0.00    +0.000 C 
ATOM     28  C   UNL     1      54.199  15.562  15.770  0.00  0.00    +0.000 C 
ATOM     29  C   UNL     1      54.635  14.261  13.631  0.00  0.00    +0.000 C 
BRANCH  26  30
ATOM     30  C   UNL     1      55.380  11.893  15.285  0.00  0.00    +0.000 C 
ATOM     31  C   UNL     1      55.831  10.634  14.535  0.00  0.00    +0.000 C 
ENDBRANCH  26  30
ENDBRANCH  25  26
ENDBRANCH  22  24
ENDBRANCH   5  22
TORSDOF 5
ENDMDL
MODEL 5
REMARK VINA RESULT:      -6.4      3.200      7.930
REMARK  Name = 222284_BetaSitosterol.pdbqt.pdb
REMARK  5 active torsions:
REMARK  status: ('A' for Active; 'I' for Inactive)
REMARK    1  A    between atoms: C_5  and  C_22
REMARK    2  A    between atoms: C_19  and  O_20
REMARK    3  A    between atoms: C_22  and  C_24
REMARK    4  A    between atoms: C_25  and  C_26
REMARK    5  A    between atoms: C_26  and  C_30
REMARK                            x       y       z     vdW  Elec       q    Type
REMARK                         _______ _______ _______ _____ _____    ______ ____
ROOT
ATOM      1  C   UNL     1      50.669   4.021  10.942  0.00  0.00    +0.000 C 
ATOM      2  C   UNL     1      50.359   2.446  11.096  0.00  0.00    +0.000 C 
ATOM      3  C   UNL     1      50.112   1.577   9.927  0.00  0.00    +0.000 C 
ATOM      4  C   UNL     1      50.389   1.931   8.487  0.00  0.00    +0.000 C 
ATOM      5  C   UNL     1      51.802   4.262  11.927  0.00  0.00    +0.000 C 
ATOM      6  C   UNL     1      51.058   4.197   9.541  0.00  0.00    +0.000 C 
ATOM      7  C   UNL     1      50.037   1.008   7.289  0.00  0.00    +0.000 C 
ATOM      8  C   UNL     1      51.154   1.966  12.185  0.00  0.00    +0.000 C 
ATOM      9  C   UNL     1      50.916   3.247   8.377  0.00  0.00    +0.000 C 
ATOM     10  C   UNL     1      52.061   3.068  12.660  0.00  0.00    +0.000 C 
ATOM     11  C   UNL     1      49.698   0.232  10.089  0.00  0.00    +0.000 C 
ATOM     12  C   UNL     1      49.393   4.806  11.340  0.00  0.00    +0.000 C 
ATOM     13  C   UNL     1      49.749  -0.563   7.714  0.00  0.00    +0.000 C 
ATOM     14  C   UNL     1      51.192   0.919   6.349  0.00  0.00    +0.000 C 
ATOM     15  C   UNL     1      49.539  -0.763   8.980  0.00  0.00    +0.000 C 
ATOM     16  C   UNL     1      48.748   1.541   6.599  0.00  0.00    +0.000 C 
ATOM     17  C   UNL     1      50.524  -1.550   6.998  0.00  0.00    +0.000 C 
ATOM     18  C   UNL     1      51.972  -0.244   5.712  0.00  0.00    +0.000 C 
ATOM     19  C   UNL     1      51.591  -1.578   6.045  0.00  0.00    +0.000 C 
ENDROOT
BRANCH  19  20
ATOM     20  O   UNL     1      51.742  -2.602   5.157  0.00  0.00    +0.000 OA
ATOM     21  H   UNL     1      50.907  -3.078   5.015  0.00  0.00    +0.000 HD
ENDBRANCH  19  20
BRANCH   5  22
ATOM     22  C   UNL     1      52.530   5.487  12.050  0.00  0.00    +0.000 C 
ATOM     23  C   UNL     1      52.708   6.192  13.371  0.00  0.00    +0.000 C 
BRANCH  22  24
ATOM     24  C   UNL     1      53.152   6.113  10.937  0.00  0.00    +0.000 C 
ATOM     25  C   UNL     1      53.812   6.770   9.716  0.00  0.00    +0.000 C 
BRANCH  25  26
ATOM     26  C   UNL     1      54.430   7.365   8.573  0.00  0.00    +0.000 C 
ATOM     27  C   UNL     1      53.666   7.614   7.370  0.00  0.00    +0.000 C 
ATOM     28  C   UNL     1      52.189   7.283   7.261  0.00  0.00    +0.000 C 
ATOM     29  C   UNL     1      54.262   8.196   6.107  0.00  0.00    +0.000 C 
BRANCH  26  30
ATOM     30  C   UNL     1      55.803   7.723   8.616  0.00  0.00    +0.000 C 
ATOM     31  C   UNL     1      57.289   8.087   8.712  0.00  0.00    +0.000 C 
ENDBRANCH  26  30
ENDBRANCH  25  26
ENDBRANCH  22  24
ENDBRANCH   5  22
TORSDOF 5
ENDMDL
MODEL 6
REMARK VINA RESULT:      -6.0     13.067     17.157
REMARK  Name = 222284_BetaSitosterol.pdbqt.pdb
REMARK  5 active torsions:
REMARK  status: ('A' for Active; 'I' for Inactive)
REMARK    1  A    between atoms: C_5  and  C_22
REMARK    2  A    between atoms: C_19  and  O_20
REMARK    3  A    between atoms: C_22  and  C_24
REMARK    4  A    between atoms: C_25  and  C_26
REMARK    5  A    between atoms: C_26  and  C_30
REMARK                            x       y       z     vdW  Elec       q    Type
REMARK                         _______ _______ _______ _____ _____    ______ ____
ROOT
ATOM      1  C   UNL     1      52.838  17.708  13.220  0.00  0.00    +0.000 C 
ATOM      2  C   UNL     1      53.138  18.500  11.847  0.00  0.00    +0.000 C 
ATOM      3  C   UNL     1      54.193  18.067  10.907  0.00  0.00    +0.000 C 
ATOM      4  C   UNL     1      54.905  16.738  10.928  0.00  0.00    +0.000 C 
ATOM      5  C   UNL     1      51.319  17.662  13.284  0.00  0.00    +0.000 C 
ATOM      6  C   UNL     1      53.461  16.395  13.046  0.00  0.00    +0.000 C 
ATOM      7  C   UNL     1      56.063  16.366   9.961  0.00  0.00    +0.000 C 
ATOM      8  C   UNL     1      51.880  18.960  11.344  0.00  0.00    +0.000 C 
ATOM      9  C   UNL     1      54.445  15.927  12.001  0.00  0.00    +0.000 C 
ATOM     10  C   UNL     1      50.773  18.410  12.202  0.00  0.00    +0.000 C 
ATOM     11  C   UNL     1      54.540  18.856   9.784  0.00  0.00    +0.000 C 
ATOM     12  C   UNL     1      53.431  18.532  14.392  0.00  0.00    +0.000 C 
ATOM     13  C   UNL     1      56.166  17.340   8.631  0.00  0.00    +0.000 C 
ATOM     14  C   UNL     1      55.843  15.004   9.393  0.00  0.00    +0.000 C 
ATOM     15  C   UNL     1      55.503  18.454   8.708  0.00  0.00    +0.000 C 
ATOM     16  C   UNL     1      57.416  16.482  10.722  0.00  0.00    +0.000 C 
ATOM     17  C   UNL     1      56.177  16.653   7.360  0.00  0.00    +0.000 C 
ATOM     18  C   UNL     1      55.818  14.427   7.967  0.00  0.00    +0.000 C 
ATOM     19  C   UNL     1      56.025  15.316   6.872  0.00  0.00    +0.000 C 
ENDROOT
BRANCH  19  20
ATOM     20  O   UNL     1      56.615  14.895   5.717  0.00  0.00    +0.000 OA
ATOM     21  H   UNL     1      56.801  13.941   5.738  0.00  0.00    +0.000 HD
ENDBRANCH  19  20
BRANCH   5  22
ATOM     22  C   UNL     1      50.564  16.928  14.251  0.00  0.00    +0.000 C 
ATOM     23  C   UNL     1      49.908  15.608  13.931  0.00  0.00    +0.000 C 
BRANCH  22  24
ATOM     24  C   UNL     1      50.398  17.383  15.587  0.00  0.00    +0.000 C 
ATOM     25  C   UNL     1      50.200  17.854  17.035  0.00  0.00    +0.000 C 
BRANCH  25  26
ATOM     26  C   UNL     1      49.996  18.290  18.380  0.00  0.00    +0.000 C 
ATOM     27  C   UNL     1      48.835  19.079  18.729  0.00  0.00    +0.000 C 
ATOM     28  C   UNL     1      47.778  19.466  17.712  0.00  0.00    +0.000 C 
ATOM     29  C   UNL     1      48.576  19.615  20.120  0.00  0.00    +0.000 C 
BRANCH  26  30
ATOM     30  C   UNL     1      50.933  17.941  19.387  0.00  0.00    +0.000 C 
ATOM     31  C   UNL     1      51.966  17.527  20.442  0.00  0.00    +0.000 C 
ENDBRANCH  26  30
ENDBRANCH  25  26
ENDBRANCH  22  24
ENDBRANCH   5  22
TORSDOF 5
ENDMDL
MODEL 7
REMARK VINA RESULT:      -5.8     15.427     19.215
REMARK  Name = 222284_BetaSitosterol.pdbqt.pdb
REMARK  5 active torsions:
REMARK  status: ('A' for Active; 'I' for Inactive)
REMARK    1  A    between atoms: C_5  and  C_22
REMARK    2  A    between atoms: C_19  and  O_20
REMARK    3  A    between atoms: C_22  and  C_24
REMARK    4  A    between atoms: C_25  and  C_26
REMARK    5  A    between atoms: C_26  and  C_30
REMARK                            x       y       z     vdW  Elec       q    Type
REMARK                         _______ _______ _______ _____ _____    ______ ____
ROOT
ATOM      1  C   UNL     1      41.431   2.343  22.691  0.00  0.00    +0.000 C 
ATOM      2  C   UNL     1      42.123   1.573  21.454  0.00  0.00    +0.000 C 
ATOM      3  C   UNL     1      41.398   1.302  20.196  0.00  0.00    +0.000 C 
ATOM      4  C   UNL     1      40.087   1.922  19.778  0.00  0.00    +0.000 C 
ATOM      5  C   UNL     1      42.512   3.302  23.167  0.00  0.00    +0.000 C 
ATOM      6  C   UNL     1      40.261   3.010  22.118  0.00  0.00    +0.000 C 
ATOM      7  C   UNL     1      39.330   1.541  18.477  0.00  0.00    +0.000 C 
ATOM      8  C   UNL     1      43.491   1.989  21.412  0.00  0.00    +0.000 C 
ATOM      9  C   UNL     1      39.603   2.814  20.774  0.00  0.00    +0.000 C 
ATOM     10  C   UNL     1      43.711   3.074  22.432  0.00  0.00    +0.000 C 
ATOM     11  C   UNL     1      41.970   0.498  19.180  0.00  0.00    +0.000 C 
ATOM     12  C   UNL     1      41.084   1.295  23.779  0.00  0.00    +0.000 C 
ATOM     13  C   UNL     1      40.259   0.745  17.367  0.00  0.00    +0.000 C 
ATOM     14  C   UNL     1      38.887   2.772  17.758  0.00  0.00    +0.000 C 
ATOM     15  C   UNL     1      41.375   0.263  17.825  0.00  0.00    +0.000 C 
ATOM     16  C   UNL     1      38.141   0.603  18.838  0.00  0.00    +0.000 C 
ATOM     17  C   UNL     1      40.270   1.320  16.042  0.00  0.00    +0.000 C 
ATOM     18  C   UNL     1      39.041   3.286  16.316  0.00  0.00    +0.000 C 
ATOM     19  C   UNL     1      39.766   2.487  15.385  0.00  0.00    +0.000 C 
ENDROOT
BRANCH  19  20
ATOM     20  O   UNL     1      39.464   2.496  14.055  0.00  0.00    +0.000 OA
ATOM     21  H   UNL     1      39.370   3.402  13.716  0.00  0.00    +0.000 HD
ENDBRANCH  19  20
BRANCH   5  22
ATOM     22  C   UNL     1      42.326   4.315  24.158  0.00  0.00    +0.000 C 
ATOM     23  C   UNL     1      41.745   5.668  23.831  0.00  0.00    +0.000 C 
BRANCH  22  24
ATOM     24  C   UNL     1      42.657   4.108  25.524  0.00  0.00    +0.000 C 
ATOM     25  C   UNL     1      42.988   3.890  27.008  0.00  0.00    +0.000 C 
BRANCH  25  26
ATOM     26  C   UNL     1      43.286   3.702  28.392  0.00  0.00    +0.000 C 
ATOM     27  C   UNL     1      44.591   3.235  28.808  0.00  0.00    +0.000 C 
ATOM     28  C   UNL     1      45.703   2.943  27.818  0.00  0.00    +0.000 C 
ATOM     29  C   UNL     1      44.963   2.968  30.249  0.00  0.00    +0.000 C 
BRANCH  26  30
ATOM     30  C   UNL     1      42.298   3.981  29.373  0.00  0.00    +0.000 C 
ATOM     31  C   UNL     1      41.271   4.304  30.464  0.00  0.00    +0.000 C 
ENDBRANCH  26  30
ENDBRANCH  25  26
ENDBRANCH  22  24
ENDBRANCH   5  22
TORSDOF 5
ENDMDL
MODEL 8
REMARK VINA RESULT:      -5.6     20.234     22.815
REMARK  Name = 222284_BetaSitosterol.pdbqt.pdb
REMARK  5 active torsions:
REMARK  status: ('A' for Active; 'I' for Inactive)
REMARK    1  A    between atoms: C_5  and  C_22
REMARK    2  A    between atoms: C_19  and  O_20
REMARK    3  A    between atoms: C_22  and  C_24
REMARK    4  A    between atoms: C_25  and  C_26
REMARK    5  A    between atoms: C_26  and  C_30
REMARK                            x       y       z     vdW  Elec       q    Type
REMARK                         _______ _______ _______ _____ _____    ______ ____
ROOT
ATOM      1  C   UNL     1      40.710   0.968 -10.362  0.00  0.00    +0.000 C 
ATOM      2  C   UNL     1      40.410   1.736  -8.976  0.00  0.00    +0.000 C 
ATOM      3  C   UNL     1      39.063   2.237  -8.633  0.00  0.00    +0.000 C 
ATOM      4  C   UNL     1      37.778   1.871  -9.333  0.00  0.00    +0.000 C 
ATOM      5  C   UNL     1      41.606  -0.189  -9.945  0.00  0.00    +0.000 C 
ATOM      6  C   UNL     1      39.397   0.549 -10.856  0.00  0.00    +0.000 C 
ATOM      7  C   UNL     1      36.398   2.489  -8.979  0.00  0.00    +0.000 C 
ATOM      8  C   UNL     1      41.219   1.119  -7.970  0.00  0.00    +0.000 C 
ATOM      9  C   UNL     1      38.020   0.974 -10.409  0.00  0.00    +0.000 C 
ATOM     10  C   UNL     1      41.913  -0.079  -8.558  0.00  0.00    +0.000 C 
ATOM     11  C   UNL     1      38.851   3.036  -7.483  0.00  0.00    +0.000 C 
ATOM     12  C   UNL     1      41.451   1.948 -11.307  0.00  0.00    +0.000 C 
ATOM     13  C   UNL     1      36.354   3.234  -7.506  0.00  0.00    +0.000 C 
ATOM     14  C   UNL     1      35.366   1.417  -8.870  0.00  0.00    +0.000 C 
ATOM     15  C   UNL     1      37.514   3.491  -6.981  0.00  0.00    +0.000 C 
ATOM     16  C   UNL     1      36.033   3.560 -10.047  0.00  0.00    +0.000 C 
ATOM     17  C   UNL     1      35.300   2.794  -6.621  0.00  0.00    +0.000 C 
ATOM     18  C   UNL     1      34.333   1.026  -7.799  0.00  0.00    +0.000 C 
ATOM     19  C   UNL     1      34.282   1.788  -6.595  0.00  0.00    +0.000 C 
ENDROOT
BRANCH  19  20
ATOM     20  O   UNL     1      33.116   1.955  -5.909  0.00  0.00    +0.000 OA
ATOM     21  H   UNL     1      32.342   1.819  -6.482  0.00  0.00    +0.000 HD
ENDBRANCH  19  20
BRANCH   5  22
ATOM     22  C   UNL     1      42.021  -1.252 -10.806  0.00  0.00    +0.000 C 
ATOM     23  C   UNL     1      43.323  -1.215 -11.565  0.00  0.00    +0.000 C 
BRANCH  22  24
ATOM     24  C   UNL     1      41.242  -2.426 -10.990  0.00  0.00    +0.000 C 
ATOM     25  C   UNL     1      40.423  -3.708 -11.199  0.00  0.00    +0.000 C 
BRANCH  25  26
ATOM     26  C   UNL     1      39.669  -4.902 -11.411  0.00  0.00    +0.000 C 
ATOM     27  C   UNL     1      38.941  -5.517 -10.322  0.00  0.00    +0.000 C 
ATOM     28  C   UNL     1      38.922  -4.930  -8.923  0.00  0.00    +0.000 C 
ATOM     29  C   UNL     1      38.161  -6.805 -10.460  0.00  0.00    +0.000 C 
BRANCH  26  30
ATOM     30  C   UNL     1      39.622  -5.491 -12.703  0.00  0.00    +0.000 C 
ATOM     31  C   UNL     1      39.544  -6.084 -14.114  0.00  0.00    +0.000 C 
ENDBRANCH  26  30
ENDBRANCH  25  26
ENDBRANCH  22  24
ENDBRANCH   5  22
TORSDOF 5
ENDMDL
MODEL 9
REMARK VINA RESULT:      -5.6     20.065     23.353
REMARK  Name = 222284_BetaSitosterol.pdbqt.pdb
REMARK  5 active torsions:
REMARK  status: ('A' for Active; 'I' for Inactive)
REMARK    1  A    between atoms: C_5  and  C_22
REMARK    2  A    between atoms: C_19  and  O_20
REMARK    3  A    between atoms: C_22  and  C_24
REMARK    4  A    between atoms: C_25  and  C_26
REMARK    5  A    between atoms: C_26  and  C_30
REMARK                            x       y       z     vdW  Elec       q    Type
REMARK                         _______ _______ _______ _____ _____    ______ ____
ROOT
ATOM      1  C   UNL     1      38.437   2.568  -8.357  0.00  0.00    +0.000 C 
ATOM      2  C   UNL     1      40.007   2.272  -8.135  0.00  0.00    +0.000 C 
ATOM      3  C   UNL     1      40.655   1.049  -8.650  0.00  0.00    +0.000 C 
ATOM      4  C   UNL     1      40.065   0.092  -9.656  0.00  0.00    +0.000 C 
ATOM      5  C   UNL     1      38.397   4.043  -8.724  0.00  0.00    +0.000 C 
ATOM      6  C   UNL     1      38.033   1.678  -9.447  0.00  0.00    +0.000 C 
ATOM      7  C   UNL     1      40.760  -1.223 -10.104  0.00  0.00    +0.000 C 
ATOM      8  C   UNL     1      40.687   3.528  -8.219  0.00  0.00    +0.000 C 
ATOM      9  C   UNL     1      38.764   0.504 -10.052  0.00  0.00    +0.000 C 
ATOM     10  C   UNL     1      39.706   4.597  -8.620  0.00  0.00    +0.000 C 
ATOM     11  C   UNL     1      41.996   0.737  -8.319  0.00  0.00    +0.000 C 
ATOM     12  C   UNL     1      37.700   2.295  -7.020  0.00  0.00    +0.000 C 
ATOM     13  C   UNL     1      42.372  -1.286  -9.749  0.00  0.00    +0.000 C 
ATOM     14  C   UNL     1      40.715  -1.349 -11.591  0.00  0.00    +0.000 C 
ATOM     15  C   UNL     1      42.782  -0.408  -8.884  0.00  0.00    +0.000 C 
ATOM     16  C   UNL     1      40.084  -2.425  -9.384  0.00  0.00    +0.000 C 
ATOM     17  C   UNL     1      43.241  -1.584 -10.864  0.00  0.00    +0.000 C 
ATOM     18  C   UNL     1      41.771  -1.609 -12.679  0.00  0.00    +0.000 C 
ATOM     19  C   UNL     1      43.132  -1.762 -12.280  0.00  0.00    +0.000 C 
ENDROOT
BRANCH  19  20
ATOM     20  O   UNL     1      43.992  -2.557 -12.979  0.00  0.00    +0.000 OA
ATOM     21  H   UNL     1      44.107  -2.242 -13.891  0.00  0.00    +0.000 HD
ENDBRANCH  19  20
BRANCH   5  22
ATOM     22  C   UNL     1      37.232   4.745  -9.163  0.00  0.00    +0.000 C 
ATOM     23  C   UNL     1      36.410   4.288 -10.342  0.00  0.00    +0.000 C 
BRANCH  22  24
ATOM     24  C   UNL     1      36.756   5.911  -8.505  0.00  0.00    +0.000 C 
ATOM     25  C   UNL     1      36.264   7.168  -7.774  0.00  0.00    +0.000 C 
BRANCH  25  26
ATOM     26  C   UNL     1      35.808   8.329  -7.077  0.00  0.00    +0.000 C 
ATOM     27  C   UNL     1      34.416   8.719  -7.129  0.00  0.00    +0.000 C 
ATOM     28  C   UNL     1      33.376   7.923  -7.896  0.00  0.00    +0.000 C 
ATOM     29  C   UNL     1      33.869   9.959  -6.457  0.00  0.00    +0.000 C 
BRANCH  26  30
ATOM     30  C   UNL     1      36.723   9.105  -6.318  0.00  0.00    +0.000 C 
ATOM     31  C   UNL     1      37.737   9.956  -5.545  0.00  0.00    +0.000 C 
ENDBRANCH  26  30
ENDBRANCH  25  26
ENDBRANCH  22  24
ENDBRANCH   5  22
TORSDOF 5
ENDMDL
