MODEL 1
REMARK VINA RESULT:      -5.9      0.000      0.000
REMARK  Name = 25023738_BI-D-1870.pdbqt.pdb
REMARK  4 active torsions:
REMARK  status: ('A' for Active; 'I' for Inactive)
REMARK    1  A    between atoms: N_2  and  C_26
REMARK    2  A    between atoms: N_14  and  C_16
REMARK    3  A    between atoms: C_20  and  O_24
REMARK    4  A    between atoms: C_27  and  C_28
REMARK                            x       y       z     vdW  Elec       q    Type
REMARK                         _______ _______ _______ _____ _____    ______ ____
ROOT
ATOM      1  O   UNL     1      33.398  -4.496  18.082  0.00  0.00    +0.000 OA
ATOM      2  N   UNL     1      31.340  -3.174  15.417  0.00  0.00    +0.000 N 
ATOM      3  N   UNL     1      33.260  -5.188  15.862  0.00  0.00    +0.000 N 
ATOM      4  N   UNL     1      31.164  -3.846  13.134  0.00  0.00    +0.000 NA
ATOM      5  N   UNL     1      32.429  -5.616  12.262  0.00  0.00    +0.000 NA
ATOM      6  C   UNL     1      31.877  -3.302  16.679  0.00  0.00    +0.000 C 
ATOM      7  C   UNL     1      31.725  -4.017  14.354  0.00  0.00    +0.000 A 
ATOM      8  C   UNL     1      32.908  -4.369  16.956  0.00  0.00    +0.000 C 
ATOM      9  C   UNL     1      32.664  -4.996  14.586  0.00  0.00    +0.000 A 
ATOM     10  C   UNL     1      31.430  -2.366  17.797  0.00  0.00    +0.000 C 
ATOM     11  C   UNL     1      34.237  -6.269  15.937  0.00  0.00    +0.000 C 
ATOM     12  C   UNL     1      32.971  -5.766  13.485  0.00  0.00    +0.000 A 
ATOM     13  C   UNL     1      31.528  -4.646  12.121  0.00  0.00    +0.000 A 
ATOM     14  N   UNL     1      30.975  -4.502  10.856  0.00  0.00    +0.000 N 
ATOM     15  H   UNL     1      31.359  -5.183  10.213  0.00  0.00    +0.000 HD
ENDROOT
BRANCH  14  16
ATOM     16  C   UNL     1      30.019  -3.610  10.357  0.00  0.00    +0.000 A 
ATOM     17  C   UNL     1      30.446  -2.424   9.744  0.00  0.00    +0.000 A 
ATOM     18  C   UNL     1      29.522  -1.512   9.235  0.00  0.00    +0.000 A 
ATOM     19  F   UNL     1      29.971  -0.388   8.656  0.00  0.00    +0.000 F 
ATOM     20  C   UNL     1      28.160  -1.762   9.328  0.00  0.00    +0.000 A 
ATOM     21  C   UNL     1      27.730  -2.934   9.935  0.00  0.00    +0.000 A 
ATOM     22  F   UNL     1      26.416  -3.188  10.030  0.00  0.00    +0.000 F 
ATOM     23  C   UNL     1      28.646  -3.850  10.444  0.00  0.00    +0.000 A 
BRANCH  20  24
ATOM     24  O   UNL     1      27.261  -0.863   8.828  0.00  0.00    +0.000 OA
ATOM     25  H   UNL     1      27.506   0.023   9.156  0.00  0.00    +0.000 HD
ENDBRANCH  20  24
ENDBRANCH  14  16
BRANCH   2  26
ATOM     26  C   UNL     1      30.343  -2.142  15.144  0.00  0.00    +0.000 C 
ATOM     27  C   UNL     1      29.298  -1.058  14.852  0.00  0.00    +0.000 C 
BRANCH  27  28
ATOM     28  C   UNL     1      28.334  -0.060  14.588  0.00  0.00    +0.000 C 
ATOM     29  C   UNL     1      28.713   1.154  13.797  0.00  0.00    +0.000 C 
ATOM     30  C   UNL     1      26.950  -0.194  15.145  0.00  0.00    +0.000 C 
ENDBRANCH  27  28
ENDBRANCH   2  26
TORSDOF 4
ENDMDL
MODEL 2
REMARK VINA RESULT:      -5.8     10.835     12.672
REMARK  Name = 25023738_BI-D-1870.pdbqt.pdb
REMARK  4 active torsions:
REMARK  status: ('A' for Active; 'I' for Inactive)
REMARK    1  A    between atoms: N_2  and  C_26
REMARK    2  A    between atoms: N_14  and  C_16
REMARK    3  A    between atoms: C_20  and  O_24
REMARK    4  A    between atoms: C_27  and  C_28
REMARK                            x       y       z     vdW  Elec       q    Type
REMARK                         _______ _______ _______ _____ _____    ______ ____
ROOT
ATOM      1  O   UNL     1      44.211  -7.066  17.871  0.00  0.00    +0.000 OA
ATOM      2  N   UNL     1      42.706  -4.082  16.485  0.00  0.00    +0.000 N 
ATOM      3  N   UNL     1      43.353  -5.209  18.985  0.00  0.00    +0.000 N 
ATOM      4  N   UNL     1      41.815  -2.160  17.581  0.00  0.00    +0.000 NA
ATOM      5  N   UNL     1      41.808  -1.956  19.916  0.00  0.00    +0.000 NA
ATOM      6  C   UNL     1      43.309  -5.321  16.511  0.00  0.00    +0.000 C 
ATOM      7  C   UNL     1      42.408  -3.373  17.666  0.00  0.00    +0.000 A 
ATOM      8  C   UNL     1      43.670  -5.957  17.831  0.00  0.00    +0.000 C 
ATOM      9  C   UNL     1      42.730  -3.936  18.881  0.00  0.00    +0.000 A 
ATOM     10  C   UNL     1      43.611  -6.051  15.207  0.00  0.00    +0.000 C 
ATOM     11  C   UNL     1      43.626  -5.659  20.347  0.00  0.00    +0.000 C 
ATOM     12  C   UNL     1      42.398  -3.164  19.974  0.00  0.00    +0.000 A 
ATOM     13  C   UNL     1      41.530  -1.482  18.703  0.00  0.00    +0.000 A 
ATOM     14  N   UNL     1      40.923  -0.235  18.656  0.00  0.00    +0.000 N 
ATOM     15  H   UNL     1      40.781   0.134  19.588  0.00  0.00    +0.000 HD
ENDROOT
BRANCH  14  16
ATOM     16  C   UNL     1      40.501   0.552  17.579  0.00  0.00    +0.000 A 
ATOM     17  C   UNL     1      40.301  -0.052  16.330  0.00  0.00    +0.000 A 
ATOM     18  C   UNL     1      39.880   0.700  15.233  0.00  0.00    +0.000 A 
ATOM     19  F   UNL     1      39.700   0.085  14.055  0.00  0.00    +0.000 F 
ATOM     20  C   UNL     1      39.653   2.063  15.360  0.00  0.00    +0.000 A 
ATOM     21  C   UNL     1      39.850   2.668  16.593  0.00  0.00    +0.000 A 
ATOM     22  F   UNL     1      39.633   3.985  16.728  0.00  0.00    +0.000 F 
ATOM     23  C   UNL     1      40.269   1.925  17.693  0.00  0.00    +0.000 A 
BRANCH  20  24
ATOM     24  O   UNL     1      39.242   2.794  14.280  0.00  0.00    +0.000 OA
ATOM     25  H   UNL     1      40.014   3.281  13.934  0.00  0.00    +0.000 HD
ENDBRANCH  20  24
ENDBRANCH  14  16
BRANCH   2  26
ATOM     26  C   UNL     1      42.353  -3.464  15.209  0.00  0.00    +0.000 C 
ATOM     27  C   UNL     1      41.987  -2.813  13.870  0.00  0.00    +0.000 C 
BRANCH  27  28
ATOM     28  C   UNL     1      41.645  -2.216  12.636  0.00  0.00    +0.000 C 
ATOM     29  C   UNL     1      40.328  -2.530  11.995  0.00  0.00    +0.000 C 
ATOM     30  C   UNL     1      42.621  -1.313  11.948  0.00  0.00    +0.000 C 
ENDBRANCH  27  28
ENDBRANCH   2  26
TORSDOF 4
ENDMDL
MODEL 3
REMARK VINA RESULT:      -5.6      9.585     11.789
REMARK  Name = 25023738_BI-D-1870.pdbqt.pdb
REMARK  4 active torsions:
REMARK  status: ('A' for Active; 'I' for Inactive)
REMARK    1  A    between atoms: N_2  and  C_26
REMARK    2  A    between atoms: N_14  and  C_16
REMARK    3  A    between atoms: C_20  and  O_24
REMARK    4  A    between atoms: C_27  and  C_28
REMARK                            x       y       z     vdW  Elec       q    Type
REMARK                         _______ _______ _______ _____ _____    ______ ____
ROOT
ATOM      1  O   UNL     1      40.401  -8.745  19.490  0.00  0.00    +0.000 OA
ATOM      2  N   UNL     1      41.269  -6.331  16.939  0.00  0.00    +0.000 N 
ATOM      3  N   UNL     1      39.095  -7.041  18.587  0.00  0.00    +0.000 N 
ATOM      4  N   UNL     1      39.971  -4.571  15.984  0.00  0.00    +0.000 NA
ATOM      5  N   UNL     1      37.762  -4.159  16.650  0.00  0.00    +0.000 NA
ATOM      6  C   UNL     1      41.421  -7.390  17.808  0.00  0.00    +0.000 C 
ATOM      7  C   UNL     1      40.064  -5.602  16.855  0.00  0.00    +0.000 A 
ATOM      8  C   UNL     1      40.279  -7.799  18.706  0.00  0.00    +0.000 C 
ATOM      9  C   UNL     1      39.010  -5.961  17.666  0.00  0.00    +0.000 A 
ATOM     10  C   UNL     1      42.743  -8.148  17.862  0.00  0.00    +0.000 C 
ATOM     11  C   UNL     1      37.889  -7.287  19.370  0.00  0.00    +0.000 C 
ATOM     12  C   UNL     1      37.880  -5.188  17.509  0.00  0.00    +0.000 A 
ATOM     13  C   UNL     1      38.826  -3.877  15.901  0.00  0.00    +0.000 A 
ATOM     14  N   UNL     1      38.692  -2.813  15.020  0.00  0.00    +0.000 N 
ATOM     15  H   UNL     1      37.769  -2.402  15.087  0.00  0.00    +0.000 HD
ENDROOT
BRANCH  14  16
ATOM     16  C   UNL     1      39.586  -2.248  14.104  0.00  0.00    +0.000 A 
ATOM     17  C   UNL     1      40.520  -3.074  13.464  0.00  0.00    +0.000 A 
ATOM     18  C   UNL     1      41.427  -2.547  12.545  0.00  0.00    +0.000 A 
ATOM     19  F   UNL     1      42.305  -3.371  11.954  0.00  0.00    +0.000 F 
ATOM     20  C   UNL     1      41.421  -1.191  12.248  0.00  0.00    +0.000 A 
ATOM     21  C   UNL     1      40.500  -0.367  12.878  0.00  0.00    +0.000 A 
ATOM     22  F   UNL     1      40.483   0.945  12.599  0.00  0.00    +0.000 F 
ATOM     23  C   UNL     1      39.590  -0.885  13.796  0.00  0.00    +0.000 A 
BRANCH  20  24
ATOM     24  O   UNL     1      42.313  -0.682  11.347  0.00  0.00    +0.000 OA
ATOM     25  H   UNL     1      43.144  -1.189  11.426  0.00  0.00    +0.000 HD
ENDBRANCH  20  24
ENDBRANCH  14  16
BRANCH   2  26
ATOM     26  C   UNL     1      42.370  -5.932  16.066  0.00  0.00    +0.000 C 
ATOM     27  C   UNL     1      43.525  -5.508  15.151  0.00  0.00    +0.000 C 
BRANCH  27  28
ATOM     28  C   UNL     1      44.591  -5.123  14.307  0.00  0.00    +0.000 C 
ATOM     29  C   UNL     1      45.388  -6.168  13.588  0.00  0.00    +0.000 C 
ATOM     30  C   UNL     1      44.953  -3.676  14.176  0.00  0.00    +0.000 C 
ENDBRANCH  27  28
ENDBRANCH   2  26
TORSDOF 4
ENDMDL
MODEL 4
REMARK VINA RESULT:      -5.1     21.422     23.641
REMARK  Name = 25023738_BI-D-1870.pdbqt.pdb
REMARK  4 active torsions:
REMARK  status: ('A' for Active; 'I' for Inactive)
REMARK    1  A    between atoms: N_2  and  C_26
REMARK    2  A    between atoms: N_14  and  C_16
REMARK    3  A    between atoms: C_20  and  O_24
REMARK    4  A    between atoms: C_27  and  C_28
REMARK                            x       y       z     vdW  Elec       q    Type
REMARK                         _______ _______ _______ _____ _____    ______ ____
ROOT
ATOM      1  O   UNL     1      53.167  -4.642  -0.149  0.00  0.00    +0.000 OA
ATOM      2  N   UNL     1      52.229  -3.420   3.124  0.00  0.00    +0.000 N 
ATOM      3  N   UNL     1      52.490  -2.502   0.473  0.00  0.00    +0.000 N 
ATOM      4  N   UNL     1      51.531  -1.243   3.810  0.00  0.00    +0.000 NA
ATOM      5  N   UNL     1      51.353   0.536   2.294  0.00  0.00    +0.000 NA
ATOM      6  C   UNL     1      52.644  -4.310   2.158  0.00  0.00    +0.000 C 
ATOM      7  C   UNL     1      51.935  -2.074   2.821  0.00  0.00    +0.000 A 
ATOM      8  C   UNL     1      52.796  -3.856   0.727  0.00  0.00    +0.000 C 
ATOM      9  C   UNL     1      52.067  -1.639   1.521  0.00  0.00    +0.000 A 
ATOM     10  C   UNL     1      52.951  -5.755   2.535  0.00  0.00    +0.000 C 
ATOM     11  C   UNL     1      52.577  -1.882  -0.845  0.00  0.00    +0.000 C 
ATOM     12  C   UNL     1      51.757  -0.311   1.328  0.00  0.00    +0.000 A 
ATOM     13  C   UNL     1      51.251   0.037   3.524  0.00  0.00    +0.000 A 
ATOM     14  N   UNL     1      50.833   0.920   4.511  0.00  0.00    +0.000 N 
ATOM     15  H   UNL     1      50.666   1.841   4.125  0.00  0.00    +0.000 HD
ENDROOT
BRANCH  14  16
ATOM     16  C   UNL     1      50.617   0.744   5.882  0.00  0.00    +0.000 A 
ATOM     17  C   UNL     1      51.621   0.153   6.661  0.00  0.00    +0.000 A 
ATOM     18  C   UNL     1      51.442  -0.038   8.031  0.00  0.00    +0.000 A 
ATOM     19  F   UNL     1      52.427  -0.607   8.742  0.00  0.00    +0.000 F 
ATOM     20  C   UNL     1      50.262   0.353   8.648  0.00  0.00    +0.000 A 
ATOM     21  C   UNL     1      49.262   0.938   7.883  0.00  0.00    +0.000 A 
ATOM     22  F   UNL     1      48.118   1.321   8.468  0.00  0.00    +0.000 F 
ATOM     23  C   UNL     1      49.434   1.134   6.515  0.00  0.00    +0.000 A 
BRANCH  20  24
ATOM     24  O   UNL     1      50.093   0.162   9.990  0.00  0.00    +0.000 OA
ATOM     25  H   UNL     1      50.860   0.554  10.450  0.00  0.00    +0.000 HD
ENDBRANCH  20  24
ENDBRANCH  14  16
BRANCH   2  26
ATOM     26  C   UNL     1      52.082  -3.855   4.511  0.00  0.00    +0.000 C 
ATOM     27  C   UNL     1      51.927  -4.316   5.965  0.00  0.00    +0.000 C 
BRANCH  27  28
ATOM     28  C   UNL     1      51.787  -4.736   7.307  0.00  0.00    +0.000 C 
ATOM     29  C   UNL     1      50.525  -5.412   7.748  0.00  0.00    +0.000 C 
ATOM     30  C   UNL     1      52.878  -4.459   8.294  0.00  0.00    +0.000 C 
ENDBRANCH  27  28
ENDBRANCH   2  26
TORSDOF 4
ENDMDL
MODEL 5
REMARK VINA RESULT:      -5.0      2.432      5.053
REMARK  Name = 25023738_BI-D-1870.pdbqt.pdb
REMARK  4 active torsions:
REMARK  status: ('A' for Active; 'I' for Inactive)
REMARK    1  A    between atoms: N_2  and  C_26
REMARK    2  A    between atoms: N_14  and  C_16
REMARK    3  A    between atoms: C_20  and  O_24
REMARK    4  A    between atoms: C_27  and  C_28
REMARK                            x       y       z     vdW  Elec       q    Type
REMARK                         _______ _______ _______ _____ _____    ______ ____
ROOT
ATOM      1  O   UNL     1      29.839  -2.327  19.700  0.00  0.00    +0.000 OA
ATOM      2  N   UNL     1      30.044  -3.090  16.170  0.00  0.00    +0.000 N 
ATOM      3  N   UNL     1      28.948  -1.152  17.897  0.00  0.00    +0.000 N 
ATOM      4  N   UNL     1      29.151  -1.922  14.291  0.00  0.00    +0.000 NA
ATOM      5  N   UNL     1      27.912   0.052  14.534  0.00  0.00    +0.000 NA
ATOM      6  C   UNL     1      30.242  -3.232  17.526  0.00  0.00    +0.000 C 
ATOM      7  C   UNL     1      29.313  -2.011  15.631  0.00  0.00    +0.000 A 
ATOM      8  C   UNL     1      29.670  -2.214  18.483  0.00  0.00    +0.000 C 
ATOM      9  C   UNL     1      28.783  -1.072  16.487  0.00  0.00    +0.000 A 
ATOM     10  C   UNL     1      31.038  -4.417  18.061  0.00  0.00    +0.000 C 
ATOM     11  C   UNL     1      28.323  -0.076  18.658  0.00  0.00    +0.000 C 
ATOM     12  C   UNL     1      28.088  -0.058  15.864  0.00  0.00    +0.000 A 
ATOM     13  C   UNL     1      28.456  -0.897  13.776  0.00  0.00    +0.000 A 
ATOM     14  N   UNL     1      28.268  -0.771  12.406  0.00  0.00    +0.000 N 
ATOM     15  H   UNL     1      27.724   0.055  12.190  0.00  0.00    +0.000 HD
ENDROOT
BRANCH  14  16
ATOM     16  C   UNL     1      28.691  -1.565  11.335  0.00  0.00    +0.000 A 
ATOM     17  C   UNL     1      28.416  -2.939  11.352  0.00  0.00    +0.000 A 
ATOM     18  C   UNL     1      28.821  -3.762  10.302  0.00  0.00    +0.000 A 
ATOM     19  F   UNL     1      28.538  -5.071  10.356  0.00  0.00    +0.000 F 
ATOM     20  C   UNL     1      29.509  -3.233   9.218  0.00  0.00    +0.000 A 
ATOM     21  C   UNL     1      29.787  -1.873   9.195  0.00  0.00    +0.000 A 
ATOM     22  F   UNL     1      30.450  -1.350   8.153  0.00  0.00    +0.000 F 
ATOM     23  C   UNL     1      29.384  -1.045  10.238  0.00  0.00    +0.000 A 
BRANCH  20  24
ATOM     24  O   UNL     1      29.905  -4.045   8.193  0.00  0.00    +0.000 OA
ATOM     25  H   UNL     1      30.876  -3.984   8.117  0.00  0.00    +0.000 HD
ENDBRANCH  20  24
ENDBRANCH  14  16
BRANCH   2  26
ATOM     26  C   UNL     1      30.594  -4.074  15.240  0.00  0.00    +0.000 C 
ATOM     27  C   UNL     1      31.168  -5.106  14.262  0.00  0.00    +0.000 C 
BRANCH  27  28
ATOM     28  C   UNL     1      31.700  -6.057  13.363  0.00  0.00    +0.000 C 
ATOM     29  C   UNL     1      31.226  -6.088  11.942  0.00  0.00    +0.000 C 
ATOM     30  C   UNL     1      32.698  -7.063  13.847  0.00  0.00    +0.000 C 
ENDBRANCH  27  28
ENDBRANCH   2  26
TORSDOF 4
ENDMDL
MODEL 6
REMARK VINA RESULT:      -5.0      9.343     11.887
REMARK  Name = 25023738_BI-D-1870.pdbqt.pdb
REMARK  4 active torsions:
REMARK  status: ('A' for Active; 'I' for Inactive)
REMARK    1  A    between atoms: N_2  and  C_26
REMARK    2  A    between atoms: N_14  and  C_16
REMARK    3  A    between atoms: C_20  and  O_24
REMARK    4  A    between atoms: C_27  and  C_28
REMARK                            x       y       z     vdW  Elec       q    Type
REMARK                         _______ _______ _______ _____ _____    ______ ____
ROOT
ATOM      1  O   UNL     1      38.920 -10.248  17.521  0.00  0.00    +0.000 OA
ATOM      2  N   UNL     1      40.408  -7.007  16.910  0.00  0.00    +0.000 N 
ATOM      3  N   UNL     1      37.908  -8.298  16.745  0.00  0.00    +0.000 N 
ATOM      4  N   UNL     1      39.418  -4.986  16.118  0.00  0.00    +0.000 NA
ATOM      5  N   UNL     1      37.138  -4.847  15.589  0.00  0.00    +0.000 NA
ATOM      6  C   UNL     1      40.328  -8.334  17.274  0.00  0.00    +0.000 C 
ATOM      7  C   UNL     1      39.281  -6.288  16.461  0.00  0.00    +0.000 A 
ATOM      8  C   UNL     1      39.006  -9.059  17.198  0.00  0.00    +0.000 C 
ATOM      9  C   UNL     1      38.066  -6.931  16.386  0.00  0.00    +0.000 A 
ATOM     10  C   UNL     1      41.575  -9.070  17.751  0.00  0.00    +0.000 C 
ATOM     11  C   UNL     1      36.555  -8.825  16.606  0.00  0.00    +0.000 C 
ATOM     12  C   UNL     1      37.028  -6.143  15.937  0.00  0.00    +0.000 A 
ATOM     13  C   UNL     1      38.347  -4.299  15.691  0.00  0.00    +0.000 A 
ATOM     14  N   UNL     1      38.447  -2.963  15.329  0.00  0.00    +0.000 N 
ATOM     15  H   UNL     1      37.550  -2.600  15.032  0.00  0.00    +0.000 HD
ENDROOT
BRANCH  14  16
ATOM     16  C   UNL     1      39.537  -2.085  15.314  0.00  0.00    +0.000 A 
ATOM     17  C   UNL     1      39.582  -1.036  16.243  0.00  0.00    +0.000 A 
ATOM     18  C   UNL     1      40.652  -0.142  16.258  0.00  0.00    +0.000 A 
ATOM     19  F   UNL     1      40.658   0.848  17.162  0.00  0.00    +0.000 F 
ATOM     20  C   UNL     1      41.693  -0.275  15.349  0.00  0.00    +0.000 A 
ATOM     21  C   UNL     1      41.655  -1.310  14.426  0.00  0.00    +0.000 A 
ATOM     22  F   UNL     1      42.656  -1.449  13.544  0.00  0.00    +0.000 F 
ATOM     23  C   UNL     1      40.591  -2.207  14.405  0.00  0.00    +0.000 A 
BRANCH  20  24
ATOM     24  O   UNL     1      42.738   0.605  15.370  0.00  0.00    +0.000 OA
ATOM     25  H   UNL     1      43.297   0.429  14.588  0.00  0.00    +0.000 HD
ENDBRANCH  20  24
ENDBRANCH  14  16
BRANCH   2  26
ATOM     26  C   UNL     1      41.685  -6.302  16.979  0.00  0.00    +0.000 C 
ATOM     27  C   UNL     1      43.024  -5.557  17.055  0.00  0.00    +0.000 C 
BRANCH  27  28
ATOM     28  C   UNL     1      44.259  -4.876  17.122  0.00  0.00    +0.000 C 
ATOM     29  C   UNL     1      44.570  -3.796  16.132  0.00  0.00    +0.000 C 
ATOM     30  C   UNL     1      45.274  -5.271  18.150  0.00  0.00    +0.000 C 
ENDBRANCH  27  28
ENDBRANCH   2  26
TORSDOF 4
ENDMDL
MODEL 7
REMARK VINA RESULT:      -4.9     19.849     22.145
REMARK  Name = 25023738_BI-D-1870.pdbqt.pdb
REMARK  4 active torsions:
REMARK  status: ('A' for Active; 'I' for Inactive)
REMARK    1  A    between atoms: N_2  and  C_26
REMARK    2  A    between atoms: N_14  and  C_16
REMARK    3  A    between atoms: C_20  and  O_24
REMARK    4  A    between atoms: C_27  and  C_28
REMARK                            x       y       z     vdW  Elec       q    Type
REMARK                         _______ _______ _______ _____ _____    ______ ____
ROOT
ATOM      1  O   UNL     1      50.519  -9.410   0.369  0.00  0.00    +0.000 OA
ATOM      2  N   UNL     1      47.343 -11.126   0.122  0.00  0.00    +0.000 N 
ATOM      3  N   UNL     1      48.498  -8.629  -0.487  0.00  0.00    +0.000 N 
ATOM      4  N   UNL     1      45.252 -10.371  -0.744  0.00  0.00    +0.000 NA
ATOM      5  N   UNL     1      44.981  -8.215  -1.623  0.00  0.00    +0.000 NA
ATOM      6  C   UNL     1      48.674 -10.927   0.420  0.00  0.00    +0.000 C 
ATOM      7  C   UNL     1      46.554 -10.120  -0.473  0.00  0.00    +0.000 A 
ATOM      8  C   UNL     1      49.328  -9.603   0.109  0.00  0.00    +0.000 C 
ATOM      9  C   UNL     1      47.132  -8.905  -0.765  0.00  0.00    +0.000 A 
ATOM     10  C   UNL     1      49.486 -12.045   1.065  0.00  0.00    +0.000 C 
ATOM     11  C   UNL     1      48.951  -7.292  -0.859  0.00  0.00    +0.000 C 
ATOM     12  C   UNL     1      46.278  -7.991  -1.345  0.00  0.00    +0.000 A 
ATOM     13  C   UNL     1      44.499  -9.416  -1.310  0.00  0.00    +0.000 A 
ATOM     14  N   UNL     1      43.160  -9.635  -1.603  0.00  0.00    +0.000 N 
ATOM     15  H   UNL     1      42.743  -8.815  -2.025  0.00  0.00    +0.000 HD
ENDROOT
BRANCH  14  16
ATOM     16  C   UNL     1      42.341 -10.754  -1.418  0.00  0.00    +0.000 A 
ATOM     17  C   UNL     1      41.214 -10.647  -0.591  0.00  0.00    +0.000 A 
ATOM     18  C   UNL     1      40.375 -11.740  -0.383  0.00  0.00    +0.000 A 
ATOM     19  F   UNL     1      39.307 -11.596   0.416  0.00  0.00    +0.000 F 
ATOM     20  C   UNL     1      40.641 -12.959  -0.992  0.00  0.00    +0.000 A 
ATOM     21  C   UNL     1      41.756 -13.073  -1.811  0.00  0.00    +0.000 A 
ATOM     22  F   UNL     1      42.023 -14.245  -2.405  0.00  0.00    +0.000 F 
ATOM     23  C   UNL     1      42.598 -11.986  -2.025  0.00  0.00    +0.000 A 
BRANCH  20  24
ATOM     24  O   UNL     1      39.815 -14.026  -0.782  0.00  0.00    +0.000 OA
ATOM     25  H   UNL     1      39.547 -14.021   0.157  0.00  0.00    +0.000 HD
ENDBRANCH  20  24
ENDBRANCH  14  16
BRANCH   2  26
ATOM     26  C   UNL     1      46.706 -12.405   0.423  0.00  0.00    +0.000 C 
ATOM     27  C   UNL     1      46.041 -13.751   0.738  0.00  0.00    +0.000 C 
BRANCH  27  28
ATOM     28  C   UNL     1      45.424 -14.988   1.030  0.00  0.00    +0.000 C 
ATOM     29  C   UNL     1      46.105 -15.964   1.940  0.00  0.00    +0.000 C 
ATOM     30  C   UNL     1      44.118 -15.340   0.388  0.00  0.00    +0.000 C 
ENDBRANCH  27  28
ENDBRANCH   2  26
TORSDOF 4
ENDMDL
MODEL 8
REMARK VINA RESULT:      -4.9     14.698     18.049
REMARK  Name = 25023738_BI-D-1870.pdbqt.pdb
REMARK  4 active torsions:
REMARK  status: ('A' for Active; 'I' for Inactive)
REMARK    1  A    between atoms: N_2  and  C_26
REMARK    2  A    between atoms: N_14  and  C_16
REMARK    3  A    between atoms: C_20  and  O_24
REMARK    4  A    between atoms: C_27  and  C_28
REMARK                            x       y       z     vdW  Elec       q    Type
REMARK                         _______ _______ _______ _____ _____    ______ ____
ROOT
ATOM      1  O   UNL     1      41.353 -13.969  -0.884  0.00  0.00    +0.000 OA
ATOM      2  N   UNL     1      41.219 -13.941   2.731  0.00  0.00    +0.000 N 
ATOM      3  N   UNL     1      40.571 -12.296   0.537  0.00  0.00    +0.000 N 
ATOM      4  N   UNL     1      40.430 -12.258   4.227  0.00  0.00    +0.000 NA
ATOM      5  N   UNL     1      39.564 -10.221   3.455  0.00  0.00    +0.000 NA
ATOM      6  C   UNL     1      41.468 -14.412   1.461  0.00  0.00    +0.000 C 
ATOM      7  C   UNL     1      40.654 -12.669   2.957  0.00  0.00    +0.000 A 
ATOM      8  C   UNL     1      41.135 -13.560   0.260  0.00  0.00    +0.000 C 
ATOM      9  C   UNL     1      40.342 -11.876   1.875  0.00  0.00    +0.000 A 
ATOM     10  C   UNL     1      42.082 -15.794   1.267  0.00  0.00    +0.000 C 
ATOM     11  C   UNL     1      40.184 -11.336  -0.491  0.00  0.00    +0.000 C 
ATOM     12  C   UNL     1      39.795 -10.654   2.201  0.00  0.00    +0.000 A 
ATOM     13  C   UNL     1      39.893 -11.048   4.445  0.00  0.00    +0.000 A 
ATOM     14  N   UNL     1      39.648 -10.590   5.733  0.00  0.00    +0.000 N 
ATOM     15  H   UNL     1      39.242  -9.663   5.717  0.00  0.00    +0.000 HD
ENDROOT
BRANCH  14  16
ATOM     16  C   UNL     1      39.862 -11.181   6.983  0.00  0.00    +0.000 A 
ATOM     17  C   UNL     1      41.136 -11.674   7.297  0.00  0.00    +0.000 A 
ATOM     18  C   UNL     1      41.387 -12.268   8.533  0.00  0.00    +0.000 A 
ATOM     19  F   UNL     1      42.619 -12.727   8.794  0.00  0.00    +0.000 F 
ATOM     20  C   UNL     1      40.376 -12.383   9.477  0.00  0.00    +0.000 A 
ATOM     21  C   UNL     1      39.111 -11.899   9.173  0.00  0.00    +0.000 A 
ATOM     22  F   UNL     1      38.126 -12.003  10.077  0.00  0.00    +0.000 F 
ATOM     23  C   UNL     1      38.853 -11.303   7.942  0.00  0.00    +0.000 A 
BRANCH  20  24
ATOM     24  O   UNL     1      40.629 -12.968  10.686  0.00  0.00    +0.000 OA
ATOM     25  H   UNL     1      41.217 -13.732  10.534  0.00  0.00    +0.000 HD
ENDBRANCH  20  24
ENDBRANCH  14  16
BRANCH   2  26
ATOM     26  C   UNL     1      41.542 -14.761   3.896  0.00  0.00    +0.000 C 
ATOM     27  C   UNL     1      41.884 -15.619   5.120  0.00  0.00    +0.000 C 
BRANCH  27  28
ATOM     28  C   UNL     1      42.196 -16.413   6.247  0.00  0.00    +0.000 C 
ATOM     29  C   UNL     1      41.614 -16.071   7.584  0.00  0.00    +0.000 C 
ATOM     30  C   UNL     1      43.147 -17.561   6.110  0.00  0.00    +0.000 C 
ENDBRANCH  27  28
ENDBRANCH   2  26
TORSDOF 4
ENDMDL
MODEL 9
REMARK VINA RESULT:      -4.6      8.679     11.609
REMARK  Name = 25023738_BI-D-1870.pdbqt.pdb
REMARK  4 active torsions:
REMARK  status: ('A' for Active; 'I' for Inactive)
REMARK    1  A    between atoms: N_2  and  C_26
REMARK    2  A    between atoms: N_14  and  C_16
REMARK    3  A    between atoms: C_20  and  O_24
REMARK    4  A    between atoms: C_27  and  C_28
REMARK                            x       y       z     vdW  Elec       q    Type
REMARK                         _______ _______ _______ _____ _____    ______ ____
ROOT
ATOM      1  O   UNL     1      27.718  -0.269  15.999  0.00  0.00    +0.000 OA
ATOM      2  N   UNL     1      27.664   2.554  18.262  0.00  0.00    +0.000 N 
ATOM      3  N   UNL     1      29.349   0.423  17.512  0.00  0.00    +0.000 N 
ATOM      4  N   UNL     1      29.304   3.301  19.825  0.00  0.00    +0.000 NA
ATOM      5  N   UNL     1      31.345   2.184  20.109  0.00  0.00    +0.000 NA
ATOM      6  C   UNL     1      27.224   1.677  17.294  0.00  0.00    +0.000 C 
ATOM      7  C   UNL     1      28.923   2.410  18.881  0.00  0.00    +0.000 A 
ATOM      8  C   UNL     1      28.098   0.524  16.866  0.00  0.00    +0.000 C 
ATOM      9  C   UNL     1      29.736   1.364  18.504  0.00  0.00    +0.000 A 
ATOM     10  C   UNL     1      25.854   1.872  16.654  0.00  0.00    +0.000 C 
ATOM     11  C   UNL     1      30.327  -0.623  17.232  0.00  0.00    +0.000 C 
ATOM     12  C   UNL     1      30.944   1.312  19.166  0.00  0.00    +0.000 A 
ATOM     13  C   UNL     1      30.501   3.167  20.415  0.00  0.00    +0.000 A 
ATOM     14  N   UNL     1      30.928   4.060  21.389  0.00  0.00    +0.000 N 
ATOM     15  H   UNL     1      31.850   3.815  21.727  0.00  0.00    +0.000 HD
ENDROOT
BRANCH  14  16
ATOM     16  C   UNL     1      30.315   5.189  21.945  0.00  0.00    +0.000 A 
ATOM     17  C   UNL     1      31.019   6.400  21.982  0.00  0.00    +0.000 A 
ATOM     18  C   UNL     1      30.441   7.545  22.528  0.00  0.00    +0.000 A 
ATOM     19  F   UNL     1      31.147   8.685  22.545  0.00  0.00    +0.000 F 
ATOM     20  C   UNL     1      29.153   7.505  23.047  0.00  0.00    +0.000 A 
ATOM     21  C   UNL     1      28.450   6.309  23.014  0.00  0.00    +0.000 A 
ATOM     22  F   UNL     1      27.206   6.259  23.511  0.00  0.00    +0.000 F 
ATOM     23  C   UNL     1      29.020   5.162  22.470  0.00  0.00    +0.000 A 
BRANCH  20  24
ATOM     24  O   UNL     1      28.593   8.631  23.581  0.00  0.00    +0.000 OA
ATOM     25  H   UNL     1      29.294   9.123  24.051  0.00  0.00    +0.000 HD
ENDBRANCH  20  24
ENDBRANCH  14  16
BRANCH   2  26
ATOM     26  C   UNL     1      26.821   3.670  18.681  0.00  0.00    +0.000 C 
ATOM     27  C   UNL     1      25.933   4.842  19.116  0.00  0.00    +0.000 C 
BRANCH  27  28
ATOM     28  C   UNL     1      25.117   5.922  19.521  0.00  0.00    +0.000 C 
ATOM     29  C   UNL     1      23.908   6.287  18.716  0.00  0.00    +0.000 C 
ATOM     30  C   UNL     1      25.492   6.730  20.725  0.00  0.00    +0.000 C 
ENDBRANCH  27  28
ENDBRANCH   2  26
TORSDOF 4
ENDMDL
