MODEL 1
REMARK VINA RESULT:      -5.6      0.000      0.000
REMARK  Name = 26879_Levamisole.pdbqt.pdb
REMARK  1 active torsions:
REMARK  status: ('A' for Active; 'I' for Inactive)
REMARK    1  A    between atoms: C_5  and  C_9
REMARK                            x       y       z     vdW  Elec       q    Type
REMARK                         _______ _______ _______ _____ _____    ______ ____
ROOT
ATOM      1  S   UNL     1      34.802  18.962  20.764  0.00  0.00    +0.000 S 
ATOM      2  N   UNL     1      37.158  17.503  20.269  0.00  0.00    +0.000 NA
ATOM      3  N   UNL     1      35.484  16.556  21.766  0.00  0.00    +0.000 NA
ATOM      4  C   UNL     1      37.106  16.075  20.307  0.00  0.00    +0.000 C 
ATOM      5  C   UNL     1      36.222  15.537  21.256  0.00  0.00    +0.000 C 
ATOM      6  C   UNL     1      36.644  18.133  19.079  0.00  0.00    +0.000 C 
ATOM      7  C   UNL     1      35.973  17.687  21.175  0.00  0.00    +0.000 C 
ATOM      8  C   UNL     1      35.432  19.003  19.201  0.00  0.00    +0.000 C 
ENDROOT
BRANCH   5   9
ATOM      9  C   UNL     1      36.036  14.141  21.621  0.00  0.00    +0.000 A 
ATOM     10  C   UNL     1      35.936  13.743  22.958  0.00  0.00    +0.000 A 
ATOM     11  C   UNL     1      35.957  13.162  20.627  0.00  0.00    +0.000 A 
ATOM     12  C   UNL     1      35.761  12.401  23.294  0.00  0.00    +0.000 A 
ATOM     13  C   UNL     1      35.782  11.820  20.957  0.00  0.00    +0.000 A 
ATOM     14  C   UNL     1      35.684  11.440  22.291  0.00  0.00    +0.000 A 
ENDBRANCH   5   9
TORSDOF 1
ENDMDL
MODEL 2
REMARK VINA RESULT:      -5.5      2.481      5.518
REMARK  Name = 26879_Levamisole.pdbqt.pdb
REMARK  1 active torsions:
REMARK  status: ('A' for Active; 'I' for Inactive)
REMARK    1  A    between atoms: C_5  and  C_9
REMARK                            x       y       z     vdW  Elec       q    Type
REMARK                         _______ _______ _______ _____ _____    ______ ____
ROOT
ATOM      1  S   UNL     1      34.122  12.646  23.434  0.00  0.00    +0.000 S 
ATOM      2  N   UNL     1      35.372  12.205  20.951  0.00  0.00    +0.000 NA
ATOM      3  N   UNL     1      34.976  14.499  21.674  0.00  0.00    +0.000 NA
ATOM      4  C   UNL     1      36.309  13.171  20.468  0.00  0.00    +0.000 C 
ATOM      5  C   UNL     1      36.007  14.504  20.792  0.00  0.00    +0.000 C 
ATOM      6  C   UNL     1      35.847  11.304  21.970  0.00  0.00    +0.000 C 
ATOM      7  C   UNL     1      34.629  13.184  21.816  0.00  0.00    +0.000 C 
ATOM      8  C   UNL     1      35.222  11.373  23.328  0.00  0.00    +0.000 C 
ENDROOT
BRANCH   5   9
ATOM      9  C   UNL     1      36.687  15.712  20.348  0.00  0.00    +0.000 A 
ATOM     10  C   UNL     1      37.936  15.659  19.722  0.00  0.00    +0.000 A 
ATOM     11  C   UNL     1      36.095  16.962  20.548  0.00  0.00    +0.000 A 
ATOM     12  C   UNL     1      38.577  16.824  19.304  0.00  0.00    +0.000 A 
ATOM     13  C   UNL     1      36.731  18.130  20.133  0.00  0.00    +0.000 A 
ATOM     14  C   UNL     1      37.973  18.060  19.511  0.00  0.00    +0.000 A 
ENDBRANCH   5   9
TORSDOF 1
ENDMDL
MODEL 3
REMARK VINA RESULT:      -5.0      3.895      5.290
REMARK  Name = 26879_Levamisole.pdbqt.pdb
REMARK  1 active torsions:
REMARK  status: ('A' for Active; 'I' for Inactive)
REMARK    1  A    between atoms: C_5  and  C_9
REMARK                            x       y       z     vdW  Elec       q    Type
REMARK                         _______ _______ _______ _____ _____    ______ ____
ROOT
ATOM      1  S   UNL     1      31.832  20.062  18.970  0.00  0.00    +0.000 S 
ATOM      2  N   UNL     1      32.758  17.510  19.713  0.00  0.00    +0.000 NA
ATOM      3  N   UNL     1      34.278  19.015  18.545  0.00  0.00    +0.000 NA
ATOM      4  C   UNL     1      34.145  17.340  20.018  0.00  0.00    +0.000 C 
ATOM      5  C   UNL     1      35.021  18.130  19.256  0.00  0.00    +0.000 C 
ATOM      6  C   UNL     1      31.946  18.116  20.737  0.00  0.00    +0.000 C 
ATOM      7  C   UNL     1      32.978  18.708  18.833  0.00  0.00    +0.000 C 
ATOM      8  C   UNL     1      31.323  19.449  20.455  0.00  0.00    +0.000 C 
ENDROOT
BRANCH   5   9
ATOM      9  C   UNL     1      36.476  18.097  19.240  0.00  0.00    +0.000 A 
ATOM     10  C   UNL     1      37.230  19.252  19.010  0.00  0.00    +0.000 A 
ATOM     11  C   UNL     1      37.152  16.893  19.454  0.00  0.00    +0.000 A 
ATOM     12  C   UNL     1      38.623  19.207  18.995  0.00  0.00    +0.000 A 
ATOM     13  C   UNL     1      38.544  16.841  19.440  0.00  0.00    +0.000 A 
ATOM     14  C   UNL     1      39.280  17.999  19.211  0.00  0.00    +0.000 A 
ENDBRANCH   5   9
TORSDOF 1
ENDMDL
MODEL 4
REMARK VINA RESULT:      -4.9      1.561      2.165
REMARK  Name = 26879_Levamisole.pdbqt.pdb
REMARK  1 active torsions:
REMARK  status: ('A' for Active; 'I' for Inactive)
REMARK    1  A    between atoms: C_5  and  C_9
REMARK                            x       y       z     vdW  Elec       q    Type
REMARK                         _______ _______ _______ _____ _____    ______ ____
ROOT
ATOM      1  S   UNL     1      33.307  18.604  23.181  0.00  0.00    +0.000 S 
ATOM      2  N   UNL     1      35.729  18.038  21.862  0.00  0.00    +0.000 NA
ATOM      3  N   UNL     1      34.628  16.256  23.109  0.00  0.00    +0.000 NA
ATOM      4  C   UNL     1      35.954  16.714  21.370  0.00  0.00    +0.000 C 
ATOM      5  C   UNL     1      35.414  15.687  22.160  0.00  0.00    +0.000 C 
ATOM      6  C   UNL     1      34.860  18.876  21.075  0.00  0.00    +0.000 C 
ATOM      7  C   UNL     1      34.757  17.604  22.922  0.00  0.00    +0.000 C 
ATOM      8  C   UNL     1      33.563  19.319  21.676  0.00  0.00    +0.000 C 
ENDROOT
BRANCH   5   9
ATOM      9  C   UNL     1      35.575  14.250  21.999  0.00  0.00    +0.000 A 
ATOM     10  C   UNL     1      35.727  13.669  20.736  0.00  0.00    +0.000 A 
ATOM     11  C   UNL     1      35.576  13.415  23.120  0.00  0.00    +0.000 A 
ATOM     12  C   UNL     1      35.878  12.291  20.595  0.00  0.00    +0.000 A 
ATOM     13  C   UNL     1      35.726  12.036  22.985  0.00  0.00    +0.000 A 
ATOM     14  C   UNL     1      35.878  11.474  21.721  0.00  0.00    +0.000 A 
ENDBRANCH   5   9
TORSDOF 1
ENDMDL
MODEL 5
REMARK VINA RESULT:      -4.9     25.212     26.562
REMARK  Name = 26879_Levamisole.pdbqt.pdb
REMARK  1 active torsions:
REMARK  status: ('A' for Active; 'I' for Inactive)
REMARK    1  A    between atoms: C_5  and  C_9
REMARK                            x       y       z     vdW  Elec       q    Type
REMARK                         _______ _______ _______ _____ _____    ______ ____
ROOT
ATOM      1  S   UNL     1      52.184   1.383   2.327  0.00  0.00    +0.000 S 
ATOM      2  N   UNL     1      51.494  -1.123   3.408  0.00  0.00    +0.000 NA
ATOM      3  N   UNL     1      51.500   0.826   4.873  0.00  0.00    +0.000 NA
ATOM      4  C   UNL     1      50.573  -1.174   4.501  0.00  0.00    +0.000 C 
ATOM      5  C   UNL     1      50.664  -0.102   5.405  0.00  0.00    +0.000 C 
ATOM      6  C   UNL     1      50.928  -0.917   2.100  0.00  0.00    +0.000 C 
ATOM      7  C   UNL     1      51.948   0.280   3.703  0.00  0.00    +0.000 C 
ATOM      8  C   UNL     1      51.266   0.345   1.368  0.00  0.00    +0.000 C 
ENDROOT
BRANCH   5   9
ATOM      9  C   UNL     1      49.961   0.070   6.667  0.00  0.00    +0.000 A 
ATOM     10  C   UNL     1      49.938  -0.940   7.634  0.00  0.00    +0.000 A 
ATOM     11  C   UNL     1      49.285   1.264   6.934  0.00  0.00    +0.000 A 
ATOM     12  C   UNL     1      49.258  -0.763   8.838  0.00  0.00    +0.000 A 
ATOM     13  C   UNL     1      48.604   1.446   8.136  0.00  0.00    +0.000 A 
ATOM     14  C   UNL     1      48.591   0.432   9.088  0.00  0.00    +0.000 A 
ENDBRANCH   5   9
TORSDOF 1
ENDMDL
MODEL 6
REMARK VINA RESULT:      -4.8     20.397     22.626
REMARK  Name = 26879_Levamisole.pdbqt.pdb
REMARK  1 active torsions:
REMARK  status: ('A' for Active; 'I' for Inactive)
REMARK    1  A    between atoms: C_5  and  C_9
REMARK                            x       y       z     vdW  Elec       q    Type
REMARK                         _______ _______ _______ _____ _____    ______ ____
ROOT
ATOM      1  S   UNL     1      43.221  -7.753  13.701  0.00  0.00    +0.000 S 
ATOM      2  N   UNL     1      44.712  -5.377  13.942  0.00  0.00    +0.000 NA
ATOM      3  N   UNL     1      42.543  -5.294  12.832  0.00  0.00    +0.000 NA
ATOM      4  C   UNL     1      44.015  -4.133  14.048  0.00  0.00    +0.000 C 
ATOM      5  C   UNL     1      42.823  -4.055  13.309  0.00  0.00    +0.000 C 
ATOM      6  C   UNL     1      44.770  -6.183  15.135  0.00  0.00    +0.000 C 
ATOM      7  C   UNL     1      43.590  -6.078  13.227  0.00  0.00    +0.000 C 
ATOM      8  C   UNL     1      44.081  -7.513  15.130  0.00  0.00    +0.000 C 
ENDROOT
BRANCH   5   9
ATOM      9  C   UNL     1      41.963  -2.898  13.113  0.00  0.00    +0.000 A 
ATOM     10  C   UNL     1      42.321  -1.860  12.247  0.00  0.00    +0.000 A 
ATOM     11  C   UNL     1      40.749  -2.803  13.800  0.00  0.00    +0.000 A 
ATOM     12  C   UNL     1      41.488  -0.756  12.070  0.00  0.00    +0.000 A 
ATOM     13  C   UNL     1      39.913  -1.702  13.627  0.00  0.00    +0.000 A 
ATOM     14  C   UNL     1      40.284  -0.678  12.761  0.00  0.00    +0.000 A 
ENDBRANCH   5   9
TORSDOF 1
ENDMDL
MODEL 7
REMARK VINA RESULT:      -4.8      3.138      5.848
REMARK  Name = 26879_Levamisole.pdbqt.pdb
REMARK  1 active torsions:
REMARK  status: ('A' for Active; 'I' for Inactive)
REMARK    1  A    between atoms: C_5  and  C_9
REMARK                            x       y       z     vdW  Elec       q    Type
REMARK                         _______ _______ _______ _____ _____    ______ ____
ROOT
ATOM      1  S   UNL     1      32.684  11.124  22.680  0.00  0.00    +0.000 S 
ATOM      2  N   UNL     1      35.179  11.089  21.377  0.00  0.00    +0.000 NA
ATOM      3  N   UNL     1      33.794  13.087  21.206  0.00  0.00    +0.000 NA
ATOM      4  C   UNL     1      35.892  12.318  21.217  0.00  0.00    +0.000 C 
ATOM      5  C   UNL     1      35.086  13.448  21.002  0.00  0.00    +0.000 C 
ATOM      6  C   UNL     1      35.234  10.479  22.681  0.00  0.00    +0.000 C 
ATOM      7  C   UNL     1      33.831  11.747  21.471  0.00  0.00    +0.000 C 
ATOM      8  C   UNL     1      33.965  10.362  23.467  0.00  0.00    +0.000 C 
ENDROOT
BRANCH   5   9
ATOM      9  C   UNL     1      35.508  14.804  20.684  0.00  0.00    +0.000 A 
ATOM     10  C   UNL     1      34.580  15.802  20.369  0.00  0.00    +0.000 A 
ATOM     11  C   UNL     1      36.866  15.133  20.685  0.00  0.00    +0.000 A 
ATOM     12  C   UNL     1      34.998  17.096  20.063  0.00  0.00    +0.000 A 
ATOM     13  C   UNL     1      37.289  16.426  20.380  0.00  0.00    +0.000 A 
ATOM     14  C   UNL     1      36.354  17.407  20.070  0.00  0.00    +0.000 A 
ENDBRANCH   5   9
TORSDOF 1
ENDMDL
MODEL 8
REMARK VINA RESULT:      -4.7      3.087      4.762
REMARK  Name = 26879_Levamisole.pdbqt.pdb
REMARK  1 active torsions:
REMARK  status: ('A' for Active; 'I' for Inactive)
REMARK    1  A    between atoms: C_5  and  C_9
REMARK                            x       y       z     vdW  Elec       q    Type
REMARK                         _______ _______ _______ _____ _____    ______ ____
ROOT
ATOM      1  S   UNL     1      33.810  22.036  21.527  0.00  0.00    +0.000 S 
ATOM      2  N   UNL     1      35.932  22.033  19.677  0.00  0.00    +0.000 NA
ATOM      3  N   UNL     1      35.743  20.180  21.250  0.00  0.00    +0.000 NA
ATOM      4  C   UNL     1      36.442  20.780  19.214  0.00  0.00    +0.000 C 
ATOM      5  C   UNL     1      36.437  19.748  20.166  0.00  0.00    +0.000 C 
ATOM      6  C   UNL     1      34.695  22.480  19.090  0.00  0.00    +0.000 C 
ATOM      7  C   UNL     1      35.403  21.473  20.968  0.00  0.00    +0.000 C 
ATOM      8  C   UNL     1      33.491  22.601  19.971  0.00  0.00    +0.000 C 
ENDROOT
BRANCH   5   9
ATOM      9  C   UNL     1      36.996  18.410  20.044  0.00  0.00    +0.000 A 
ATOM     10  C   UNL     1      38.106  18.154  19.233  0.00  0.00    +0.000 A 
ATOM     11  C   UNL     1      36.421  17.344  20.741  0.00  0.00    +0.000 A 
ATOM     12  C   UNL     1      38.630  16.867  19.122  0.00  0.00    +0.000 A 
ATOM     13  C   UNL     1      36.941  16.056  20.635  0.00  0.00    +0.000 A 
ATOM     14  C   UNL     1      38.046  15.818  19.825  0.00  0.00    +0.000 A 
ENDBRANCH   5   9
TORSDOF 1
ENDMDL
MODEL 9
REMARK VINA RESULT:      -4.6     20.780     22.112
REMARK  Name = 26879_Levamisole.pdbqt.pdb
REMARK  1 active torsions:
REMARK  status: ('A' for Active; 'I' for Inactive)
REMARK    1  A    between atoms: C_5  and  C_9
REMARK                            x       y       z     vdW  Elec       q    Type
REMARK                         _______ _______ _______ _____ _____    ______ ____
ROOT
ATOM      1  S   UNL     1      50.529   1.895   6.874  0.00  0.00    +0.000 S 
ATOM      2  N   UNL     1      49.732   1.552   9.552  0.00  0.00    +0.000 NA
ATOM      3  N   UNL     1      51.204   3.414   8.994  0.00  0.00    +0.000 NA
ATOM      4  C   UNL     1      49.607   2.706  10.388  0.00  0.00    +0.000 C 
ATOM      5  C   UNL     1      50.538   3.727  10.134  0.00  0.00    +0.000 C 
ATOM      6  C   UNL     1      48.655   1.311   8.625  0.00  0.00    +0.000 C 
ATOM      7  C   UNL     1      50.721   2.192   8.618  0.00  0.00    +0.000 C 
ATOM      8  C   UNL     1      48.947   1.387   7.159  0.00  0.00    +0.000 C 
ENDROOT
BRANCH   5   9
ATOM      9  C   UNL     1      50.749   4.956  10.883  0.00  0.00    +0.000 A 
ATOM     10  C   UNL     1      51.252   6.108  10.271  0.00  0.00    +0.000 A 
ATOM     11  C   UNL     1      50.451   5.004  12.248  0.00  0.00    +0.000 A 
ATOM     12  C   UNL     1      51.452   7.278  11.001  0.00  0.00    +0.000 A 
ATOM     13  C   UNL     1      50.649   6.171  12.983  0.00  0.00    +0.000 A 
ATOM     14  C   UNL     1      51.150   7.308  12.358  0.00  0.00    +0.000 A 
ENDBRANCH   5   9
TORSDOF 1
ENDMDL
