MODEL 1
REMARK VINA RESULT:      -3.8      0.000      0.000
REMARK  Name = 27924_Phorbol.pdbqt.pdb
REMARK  26 active torsions:
REMARK  status: ('A' for Active; 'I' for Inactive)
REMARK    1  A    between atoms: O_1  and  C_10
REMARK    2  A    between atoms: O_1  and  C_26
REMARK    3  A    between atoms: O_2  and  C_13
REMARK    4  A    between atoms: O_2  and  C_28
REMARK    5  A    between atoms: O_3  and  C_14
REMARK    6  A    between atoms: O_4  and  C_20
REMARK    7  A    between atoms: O_7  and  C_29
REMARK    8  A    between atoms: C_11  and  C_16
REMARK    9  A    between atoms: C_11  and  C_17
REMARK   10  A    between atoms: C_15  and  C_21
REMARK   11  A    between atoms: C_22  and  C_29
REMARK   12  A    between atoms: C_26  and  C_30
REMARK   13  A    between atoms: C_27  and  C_31
REMARK   14  A    between atoms: C_28  and  C_32
REMARK   15  A    between atoms: C_32  and  C_33
REMARK   16  A    between atoms: C_33  and  C_34
REMARK   17  A    between atoms: C_34  and  C_35
REMARK   18  A    between atoms: C_35  and  C_36
REMARK   19  A    between atoms: C_36  and  C_37
REMARK   20  A    between atoms: C_37  and  C_38
REMARK   21  A    between atoms: C_38  and  C_39
REMARK   22  A    between atoms: C_39  and  C_40
REMARK   23  A    between atoms: C_40  and  C_41
REMARK   24  A    between atoms: C_41  and  C_42
REMARK   25  A    between atoms: C_42  and  C_43
REMARK   26  A    between atoms: C_43  and  C_44
REMARK                            x       y       z     vdW  Elec       q    Type
REMARK                         _______ _______ _______ _____ _____    ______ ____
ROOT
ATOM      1  O   UNL     1      31.335 -13.515   0.153  0.00  0.00    +0.000 OA
ATOM      2  C   UNL     1      28.034 -10.495   5.661  0.00  0.00    +0.000 C 
ATOM      3  C   UNL     1      27.871  -8.987   5.710  0.00  0.00    +0.000 C 
ATOM      4  C   UNL     1      28.878  -9.712   6.648  0.00  0.00    +0.000 C 
ATOM      5  C   UNL     1      28.406 -11.187   4.384  0.00  0.00    +0.000 C 
ATOM      6  C   UNL     1      28.280  -8.196   4.453  0.00  0.00    +0.000 C 
ATOM      7  C   UNL     1      29.010 -10.306   3.197  0.00  0.00    +0.000 C 
ATOM      8  C   UNL     1      28.066  -9.040   3.147  0.00  0.00    +0.000 C 
ATOM      9  C   UNL     1      28.515  -9.949   8.104  0.00  0.00    +0.000 C 
ATOM     10  C   UNL     1      30.371  -9.590   6.469  0.00  0.00    +0.000 C 
ATOM     11  C   UNL     1      29.137 -11.230   1.881  0.00  0.00    +0.000 C 
ATOM     12  C   UNL     1      29.148 -12.493   4.599  0.00  0.00    +0.000 C 
ATOM     13  C   UNL     1      30.182 -12.426   1.997  0.00  0.00    +0.000 C 
ATOM     14  C   UNL     1      28.206  -8.150   1.912  0.00  0.00    +0.000 C 
ATOM     15  C   UNL     1      28.788 -13.522   3.802  0.00  0.00    +0.000 C 
ATOM     16  C   UNL     1      29.647 -13.756   2.572  0.00  0.00    +0.000 C 
ATOM     17  C   UNL     1      29.591 -10.611   0.565  0.00  0.00    +0.000 C 
ATOM     18  C   UNL     1      30.670 -12.580   0.573  0.00  0.00    +0.000 C 
ATOM     19  C   UNL     1      30.379 -11.371  -0.206  0.00  0.00    +0.000 C 
ATOM     20  C   UNL     1      30.925 -11.132  -1.559  0.00  0.00    +0.000 C 
ENDROOT
BRANCH   7  21
ATOM     21  O   UNL     1      30.321  -9.813   3.502  0.00  0.00    +0.000 OA
ATOM     22  H   UNL     1      30.681  -9.390   2.692  0.00  0.00    +0.000 HD
ENDBRANCH   7  21
BRANCH  13  23
ATOM     23  O   UNL     1      31.373 -12.022   2.717  0.00  0.00    +0.000 OA
ATOM     24  H   UNL     1      31.070 -11.408   3.419  0.00  0.00    +0.000 HD
ENDBRANCH  13  23
BRANCH   3  25
ATOM     25  O   UNL     1      26.555  -8.655   6.222  0.00  0.00    +0.000 OA
BRANCH  25  27
ATOM     26  O   UNL     1      24.979 -10.099   6.911  0.00  0.00    +0.000 OA
ATOM     27  C   UNL     1      25.433  -9.389   6.015  0.00  0.00    +0.000 C 
ATOM     28  C   UNL     1      24.713  -9.255   4.707  0.00  0.00    +0.000 C 
ENDBRANCH  25  27
ENDBRANCH   3  25
BRANCH  15  29
ATOM     29  C   UNL     1      27.378 -14.042   3.704  0.00  0.00    +0.000 C 
BRANCH  29  30
ATOM     30  O   UNL     1      26.913 -13.819   2.384  0.00  0.00    +0.000 OA
ATOM     31  H   UNL     1      27.457 -13.102   2.013  0.00  0.00    +0.000 HD
ENDBRANCH  29  30
ENDBRANCH  15  29
BRANCH   6  32
ATOM     32  O   UNL     1      27.471  -6.990   4.401  0.00  0.00    +0.000 OA
BRANCH  32  34
ATOM     33  O   UNL     1      27.126  -4.852   4.962  0.00  0.00    +0.000 OA
ATOM     34  C   UNL     1      27.917  -5.734   4.636  0.00  0.00    +0.000 C 
BRANCH  34  35
ATOM     35  C   UNL     1      29.388  -5.432   4.494  0.00  0.00    +0.000 C 
BRANCH  35  36
ATOM     36  C   UNL     1      29.709  -4.826   3.133  0.00  0.00    +0.000 C 
BRANCH  36  37
ATOM     37  C   UNL     1      31.043  -4.073   3.080  0.00  0.00    +0.000 C 
BRANCH  37  38
ATOM     38  C   UNL     1      31.352  -3.425   1.724  0.00  0.00    +0.000 C 
BRANCH  38  39
ATOM     39  C   UNL     1      30.304  -3.765   0.659  0.00  0.00    +0.000 C 
BRANCH  39  40
ATOM     40  C   UNL     1      30.213  -2.727  -0.463  0.00  0.00    +0.000 C 
BRANCH  40  41
ATOM     41  C   UNL     1      28.773  -2.324  -0.792  0.00  0.00    +0.000 C 
BRANCH  41  42
ATOM     42  C   UNL     1      27.985  -1.840   0.428  0.00  0.00    +0.000 C 
BRANCH  42  43
ATOM     43  C   UNL     1      26.644  -2.537   0.675  0.00  0.00    +0.000 C 
BRANCH  43  44
ATOM     44  C   UNL     1      26.693  -3.759   1.597  0.00  0.00    +0.000 C 
BRANCH  44  45
ATOM     45  C   UNL     1      26.341  -5.097   0.942  0.00  0.00    +0.000 C 
BRANCH  45  46
ATOM     46  C   UNL     1      26.490  -5.153  -0.580  0.00  0.00    +0.000 C 
ATOM     47  C   UNL     1      27.694  -5.960  -1.040  0.00  0.00    +0.000 C 
ENDBRANCH  45  46
ENDBRANCH  44  45
ENDBRANCH  43  44
ENDBRANCH  42  43
ENDBRANCH  41  42
ENDBRANCH  40  41
ENDBRANCH  39  40
ENDBRANCH  38  39
ENDBRANCH  37  38
ENDBRANCH  36  37
ENDBRANCH  35  36
ENDBRANCH  34  35
ENDBRANCH  32  34
ENDBRANCH   6  32
TORSDOF 20
ENDMDL
MODEL 2
REMARK VINA RESULT:      -3.5      4.353      9.621
REMARK  Name = 27924_Phorbol.pdbqt.pdb
REMARK  26 active torsions:
REMARK  status: ('A' for Active; 'I' for Inactive)
REMARK    1  A    between atoms: O_1  and  C_10
REMARK    2  A    between atoms: O_1  and  C_26
REMARK    3  A    between atoms: O_2  and  C_13
REMARK    4  A    between atoms: O_2  and  C_28
REMARK    5  A    between atoms: O_3  and  C_14
REMARK    6  A    between atoms: O_4  and  C_20
REMARK    7  A    between atoms: O_7  and  C_29
REMARK    8  A    between atoms: C_11  and  C_16
REMARK    9  A    between atoms: C_11  and  C_17
REMARK   10  A    between atoms: C_15  and  C_21
REMARK   11  A    between atoms: C_22  and  C_29
REMARK   12  A    between atoms: C_26  and  C_30
REMARK   13  A    between atoms: C_27  and  C_31
REMARK   14  A    between atoms: C_28  and  C_32
REMARK   15  A    between atoms: C_32  and  C_33
REMARK   16  A    between atoms: C_33  and  C_34
REMARK   17  A    between atoms: C_34  and  C_35
REMARK   18  A    between atoms: C_35  and  C_36
REMARK   19  A    between atoms: C_36  and  C_37
REMARK   20  A    between atoms: C_37  and  C_38
REMARK   21  A    between atoms: C_38  and  C_39
REMARK   22  A    between atoms: C_39  and  C_40
REMARK   23  A    between atoms: C_40  and  C_41
REMARK   24  A    between atoms: C_41  and  C_42
REMARK   25  A    between atoms: C_42  and  C_43
REMARK   26  A    between atoms: C_43  and  C_44
REMARK                            x       y       z     vdW  Elec       q    Type
REMARK                         _______ _______ _______ _____ _____    ______ ____
ROOT
ATOM      1  O   UNL     1      21.786  -0.471   1.321  0.00  0.00    +0.000 OA
ATOM      2  C   UNL     1      27.819  -3.475  -0.900  0.00  0.00    +0.000 C 
ATOM      3  C   UNL     1      28.809  -4.019   0.113  0.00  0.00    +0.000 C 
ATOM      4  C   UNL     1      29.111  -2.714  -0.678  0.00  0.00    +0.000 C 
ATOM      5  C   UNL     1      26.410  -3.155  -0.502  0.00  0.00    +0.000 C 
ATOM      6  C   UNL     1      28.361  -4.050   1.586  0.00  0.00    +0.000 C 
ATOM      7  C   UNL     1      26.079  -3.013   1.055  0.00  0.00    +0.000 C 
ATOM      8  C   UNL     1      26.809  -4.251   1.711  0.00  0.00    +0.000 C 
ATOM      9  C   UNL     1      30.067  -2.752  -1.858  0.00  0.00    +0.000 C 
ATOM     10  C   UNL     1      29.111  -1.358  -0.017  0.00  0.00    +0.000 C 
ATOM     11  C   UNL     1      24.483  -2.870   1.234  0.00  0.00    +0.000 C 
ATOM     12  C   UNL     1      25.774  -2.070  -1.350  0.00  0.00    +0.000 C 
ATOM     13  C   UNL     1      23.854  -1.543   0.619  0.00  0.00    +0.000 C 
ATOM     14  C   UNL     1      26.430  -4.560   3.159  0.00  0.00    +0.000 C 
ATOM     15  C   UNL     1      24.490  -2.275  -1.718  0.00  0.00    +0.000 C 
ATOM     16  C   UNL     1      23.429  -1.604  -0.865  0.00  0.00    +0.000 C 
ATOM     17  C   UNL     1      23.881  -2.824   2.632  0.00  0.00    +0.000 C 
ATOM     18  C   UNL     1      22.678  -1.278   1.535  0.00  0.00    +0.000 C 
ATOM     19  C   UNL     1      22.836  -2.004   2.800  0.00  0.00    +0.000 C 
ATOM     20  C   UNL     1      21.967  -1.776   3.974  0.00  0.00    +0.000 C 
ENDROOT
BRANCH   7  21
ATOM     21  O   UNL     1      26.681  -1.846   1.630  0.00  0.00    +0.000 OA
ATOM     22  H   UNL     1      26.686  -1.140   0.946  0.00  0.00    +0.000 HD
ENDBRANCH   7  21
BRANCH  13  23
ATOM     23  O   UNL     1      24.713  -0.397   0.838  0.00  0.00    +0.000 OA
ATOM     24  H   UNL     1      24.121   0.383   0.874  0.00  0.00    +0.000 HD
ENDBRANCH  13  23
BRANCH   3  25
ATOM     25  O   UNL     1      29.363  -5.271  -0.370  0.00  0.00    +0.000 OA
BRANCH  25  27
ATOM     26  O   UNL     1      28.902  -6.280  -2.322  0.00  0.00    +0.000 OA
ATOM     27  C   UNL     1      28.689  -6.182  -1.116  0.00  0.00    +0.000 C 
ATOM     28  C   UNL     1      27.743  -7.120  -0.428  0.00  0.00    +0.000 C 
ENDBRANCH  25  27
ENDBRANCH   3  25
BRANCH  15  29
ATOM     29  C   UNL     1      24.028  -3.494  -2.472  0.00  0.00    +0.000 C 
BRANCH  29  30
ATOM     30  O   UNL     1      22.989  -4.108  -1.729  0.00  0.00    +0.000 OA
ATOM     31  H   UNL     1      23.109  -3.834  -0.802  0.00  0.00    +0.000 HD
ENDBRANCH  29  30
ENDBRANCH  15  29
BRANCH   6  32
ATOM     32  O   UNL     1      29.056  -5.145   2.241  0.00  0.00    +0.000 OA
BRANCH  32  34
ATOM     33  O   UNL     1      30.816  -4.089   3.129  0.00  0.00    +0.000 OA
ATOM     34  C   UNL     1      30.010  -5.014   3.191  0.00  0.00    +0.000 C 
BRANCH  34  35
ATOM     35  C   UNL     1      30.071  -6.010   4.322  0.00  0.00    +0.000 C 
BRANCH  35  36
ATOM     36  C   UNL     1      29.049  -5.694   5.408  0.00  0.00    +0.000 C 
BRANCH  36  37
ATOM     37  C   UNL     1      29.607  -5.757   6.834  0.00  0.00    +0.000 C 
BRANCH  37  38
ATOM     38  C   UNL     1      29.739  -7.176   7.402  0.00  0.00    +0.000 C 
BRANCH  38  39
ATOM     39  C   UNL     1      28.493  -8.029   7.143  0.00  0.00    +0.000 C 
BRANCH  39  40
ATOM     40  C   UNL     1      27.513  -8.053   8.319  0.00  0.00    +0.000 C 
BRANCH  40  41
ATOM     41  C   UNL     1      26.324  -7.107   8.129  0.00  0.00    +0.000 C 
BRANCH  41  42
ATOM     42  C   UNL     1      26.441  -5.815   8.942  0.00  0.00    +0.000 C 
BRANCH  42  43
ATOM     43  C   UNL     1      26.334  -4.513   8.144  0.00  0.00    +0.000 C 
BRANCH  43  44
ATOM     44  C   UNL     1      25.707  -4.640   6.752  0.00  0.00    +0.000 C 
BRANCH  44  45
ATOM     45  C   UNL     1      24.475  -3.766   6.499  0.00  0.00    +0.000 C 
BRANCH  45  46
ATOM     46  C   UNL     1      23.687  -3.350   7.743  0.00  0.00    +0.000 C 
ATOM     47  C   UNL     1      22.215  -3.085   7.467  0.00  0.00    +0.000 C 
ENDBRANCH  45  46
ENDBRANCH  44  45
ENDBRANCH  43  44
ENDBRANCH  42  43
ENDBRANCH  41  42
ENDBRANCH  40  41
ENDBRANCH  39  40
ENDBRANCH  38  39
ENDBRANCH  37  38
ENDBRANCH  36  37
ENDBRANCH  35  36
ENDBRANCH  34  35
ENDBRANCH  32  34
ENDBRANCH   6  32
TORSDOF 20
ENDMDL
MODEL 3
REMARK VINA RESULT:      -3.4      4.817      9.933
REMARK  Name = 27924_Phorbol.pdbqt.pdb
REMARK  26 active torsions:
REMARK  status: ('A' for Active; 'I' for Inactive)
REMARK    1  A    between atoms: O_1  and  C_10
REMARK    2  A    between atoms: O_1  and  C_26
REMARK    3  A    between atoms: O_2  and  C_13
REMARK    4  A    between atoms: O_2  and  C_28
REMARK    5  A    between atoms: O_3  and  C_14
REMARK    6  A    between atoms: O_4  and  C_20
REMARK    7  A    between atoms: O_7  and  C_29
REMARK    8  A    between atoms: C_11  and  C_16
REMARK    9  A    between atoms: C_11  and  C_17
REMARK   10  A    between atoms: C_15  and  C_21
REMARK   11  A    between atoms: C_22  and  C_29
REMARK   12  A    between atoms: C_26  and  C_30
REMARK   13  A    between atoms: C_27  and  C_31
REMARK   14  A    between atoms: C_28  and  C_32
REMARK   15  A    between atoms: C_32  and  C_33
REMARK   16  A    between atoms: C_33  and  C_34
REMARK   17  A    between atoms: C_34  and  C_35
REMARK   18  A    between atoms: C_35  and  C_36
REMARK   19  A    between atoms: C_36  and  C_37
REMARK   20  A    between atoms: C_37  and  C_38
REMARK   21  A    between atoms: C_38  and  C_39
REMARK   22  A    between atoms: C_39  and  C_40
REMARK   23  A    between atoms: C_40  and  C_41
REMARK   24  A    between atoms: C_41  and  C_42
REMARK   25  A    between atoms: C_42  and  C_43
REMARK   26  A    between atoms: C_43  and  C_44
REMARK                            x       y       z     vdW  Elec       q    Type
REMARK                         _______ _______ _______ _____ _____    ______ ____
ROOT
ATOM      1  O   UNL     1      21.774  -0.473   1.256  0.00  0.00    +0.000 OA
ATOM      2  C   UNL     1      27.881  -3.347  -0.936  0.00  0.00    +0.000 C 
ATOM      3  C   UNL     1      28.865  -3.896   0.081  0.00  0.00    +0.000 C 
ATOM      4  C   UNL     1      29.158  -2.572  -0.681  0.00  0.00    +0.000 C 
ATOM      5  C   UNL     1      26.462  -3.055  -0.551  0.00  0.00    +0.000 C 
ATOM      6  C   UNL     1      28.396  -3.962   1.546  0.00  0.00    +0.000 C 
ATOM      7  C   UNL     1      26.108  -2.948   1.003  0.00  0.00    +0.000 C 
ATOM      8  C   UNL     1      26.846  -4.188   1.645  0.00  0.00    +0.000 C 
ATOM      9  C   UNL     1      30.132  -2.573  -1.848  0.00  0.00    +0.000 C 
ATOM     10  C   UNL     1      29.129  -1.229   0.006  0.00  0.00    +0.000 C 
ATOM     11  C   UNL     1      24.507  -2.831   1.161  0.00  0.00    +0.000 C 
ATOM     12  C   UNL     1      25.822  -1.963  -1.388  0.00  0.00    +0.000 C 
ATOM     13  C   UNL     1      23.867  -1.501   0.563  0.00  0.00    +0.000 C 
ATOM     14  C   UNL     1      26.451  -4.530   3.082  0.00  0.00    +0.000 C 
ATOM     15  C   UNL     1      24.547  -2.179  -1.778  0.00  0.00    +0.000 C 
ATOM     16  C   UNL     1      23.464  -1.540  -0.928  0.00  0.00    +0.000 C 
ATOM     17  C   UNL     1      23.885  -2.821   2.552  0.00  0.00    +0.000 C 
ATOM     18  C   UNL     1      22.675  -1.272   1.467  0.00  0.00    +0.000 C 
ATOM     19  C   UNL     1      22.825  -2.019   2.720  0.00  0.00    +0.000 C 
ATOM     20  C   UNL     1      21.937  -1.826   3.886  0.00  0.00    +0.000 C 
ENDROOT
BRANCH   7  21
ATOM     21  O   UNL     1      26.684  -1.783   1.609  0.00  0.00    +0.000 OA
ATOM     22  H   UNL     1      26.688  -1.065   0.938  0.00  0.00    +0.000 HD
ENDBRANCH   7  21
BRANCH  13  23
ATOM     23  O   UNL     1      24.706  -0.348   0.816  0.00  0.00    +0.000 OA
ATOM     24  H   UNL     1      24.707   0.174  -0.013  0.00  0.00    +0.000 HD
ENDBRANCH  13  23
BRANCH   3  25
ATOM     25  O   UNL     1      29.443  -5.130  -0.418  0.00  0.00    +0.000 OA
BRANCH  25  27
ATOM     26  O   UNL     1      27.881  -6.737  -0.556  0.00  0.00    +0.000 OA
ATOM     27  C   UNL     1      28.766  -6.084  -1.105  0.00  0.00    +0.000 C 
ATOM     28  C   UNL     1      29.058  -6.267  -2.564  0.00  0.00    +0.000 C 
ENDBRANCH  25  27
ENDBRANCH   3  25
BRANCH  15  29
ATOM     29  C   UNL     1      24.113  -3.390  -2.562  0.00  0.00    +0.000 C 
BRANCH  29  30
ATOM     30  O   UNL     1      23.050  -4.014  -1.862  0.00  0.00    +0.000 OA
ATOM     31  H   UNL     1      22.911  -3.498  -1.047  0.00  0.00    +0.000 HD
ENDBRANCH  29  30
ENDBRANCH  15  29
BRANCH   6  32
ATOM     32  O   UNL     1      29.099  -5.060   2.191  0.00  0.00    +0.000 OA
BRANCH  32  34
ATOM     33  O   UNL     1      30.921  -4.082   3.042  0.00  0.00    +0.000 OA
ATOM     34  C   UNL     1      30.041  -4.933   3.153  0.00  0.00    +0.000 C 
BRANCH  34  35
ATOM     35  C   UNL     1      29.999  -5.842   4.356  0.00  0.00    +0.000 C 
BRANCH  35  36
ATOM     36  C   UNL     1      29.019  -5.338   5.409  0.00  0.00    +0.000 C 
BRANCH  36  37
ATOM     37  C   UNL     1      29.493  -5.536   6.853  0.00  0.00    +0.000 C 
BRANCH  37  38
ATOM     38  C   UNL     1      30.601  -6.585   7.019  0.00  0.00    +0.000 C 
BRANCH  38  39
ATOM     39  C   UNL     1      30.526  -7.309   8.367  0.00  0.00    +0.000 C 
BRANCH  39  40
ATOM     40  C   UNL     1      31.372  -6.651   9.461  0.00  0.00    +0.000 C 
BRANCH  40  41
ATOM     41  C   UNL     1      30.554  -5.756  10.396  0.00  0.00    +0.000 C 
BRANCH  41  42
ATOM     42  C   UNL     1      31.188  -4.382  10.627  0.00  0.00    +0.000 C 
BRANCH  42  43
ATOM     43  C   UNL     1      30.210  -3.229  10.875  0.00  0.00    +0.000 C 
BRANCH  43  44
ATOM     44  C   UNL     1      29.765  -2.460   9.627  0.00  0.00    +0.000 C 
BRANCH  44  45
ATOM     45  C   UNL     1      28.255  -2.253   9.481  0.00  0.00    +0.000 C 
BRANCH  45  46
ATOM     46  C   UNL     1      27.397  -3.516   9.586  0.00  0.00    +0.000 C 
ATOM     47  C   UNL     1      26.136  -3.463   8.737  0.00  0.00    +0.000 C 
ENDBRANCH  45  46
ENDBRANCH  44  45
ENDBRANCH  43  44
ENDBRANCH  42  43
ENDBRANCH  41  42
ENDBRANCH  40  41
ENDBRANCH  39  40
ENDBRANCH  38  39
ENDBRANCH  37  38
ENDBRANCH  36  37
ENDBRANCH  35  36
ENDBRANCH  34  35
ENDBRANCH  32  34
ENDBRANCH   6  32
TORSDOF 20
ENDMDL
MODEL 4
REMARK VINA RESULT:      -3.3      1.855      3.072
REMARK  Name = 27924_Phorbol.pdbqt.pdb
REMARK  26 active torsions:
REMARK  status: ('A' for Active; 'I' for Inactive)
REMARK    1  A    between atoms: O_1  and  C_10
REMARK    2  A    between atoms: O_1  and  C_26
REMARK    3  A    between atoms: O_2  and  C_13
REMARK    4  A    between atoms: O_2  and  C_28
REMARK    5  A    between atoms: O_3  and  C_14
REMARK    6  A    between atoms: O_4  and  C_20
REMARK    7  A    between atoms: O_7  and  C_29
REMARK    8  A    between atoms: C_11  and  C_16
REMARK    9  A    between atoms: C_11  and  C_17
REMARK   10  A    between atoms: C_15  and  C_21
REMARK   11  A    between atoms: C_22  and  C_29
REMARK   12  A    between atoms: C_26  and  C_30
REMARK   13  A    between atoms: C_27  and  C_31
REMARK   14  A    between atoms: C_28  and  C_32
REMARK   15  A    between atoms: C_32  and  C_33
REMARK   16  A    between atoms: C_33  and  C_34
REMARK   17  A    between atoms: C_34  and  C_35
REMARK   18  A    between atoms: C_35  and  C_36
REMARK   19  A    between atoms: C_36  and  C_37
REMARK   20  A    between atoms: C_37  and  C_38
REMARK   21  A    between atoms: C_38  and  C_39
REMARK   22  A    between atoms: C_39  and  C_40
REMARK   23  A    between atoms: C_40  and  C_41
REMARK   24  A    between atoms: C_41  and  C_42
REMARK   25  A    between atoms: C_42  and  C_43
REMARK   26  A    between atoms: C_43  and  C_44
REMARK                            x       y       z     vdW  Elec       q    Type
REMARK                         _______ _______ _______ _____ _____    ______ ____
ROOT
ATOM      1  O   UNL     1      31.153 -14.100   1.683  0.00  0.00    +0.000 OA
ATOM      2  C   UNL     1      27.661  -8.782   4.827  0.00  0.00    +0.000 C 
ATOM      3  C   UNL     1      27.584  -7.426   4.152  0.00  0.00    +0.000 C 
ATOM      4  C   UNL     1      28.478  -7.644   5.405  0.00  0.00    +0.000 C 
ATOM      5  C   UNL     1      28.079 -10.001   4.060  0.00  0.00    +0.000 C 
ATOM      6  C   UNL     1      28.124  -7.327   2.713  0.00  0.00    +0.000 C 
ATOM      7  C   UNL     1      28.814  -9.793   2.657  0.00  0.00    +0.000 C 
ATOM      8  C   UNL     1      27.952  -8.681   1.939  0.00  0.00    +0.000 C 
ATOM      9  C   UNL     1      28.002  -7.162   6.765  0.00  0.00    +0.000 C 
ATOM     10  C   UNL     1      29.985  -7.649   5.323  0.00  0.00    +0.000 C 
ATOM     11  C   UNL     1      28.978 -11.229   1.942  0.00  0.00    +0.000 C 
ATOM     12  C   UNL     1      28.727 -11.066   4.924  0.00  0.00    +0.000 C 
ATOM     13  C   UNL     1      29.941 -12.250   2.695  0.00  0.00    +0.000 C 
ATOM     14  C   UNL     1      28.229  -8.479   0.449  0.00  0.00    +0.000 C 
ATOM     15  C   UNL     1      28.363 -12.342   4.671  0.00  0.00    +0.000 C 
ATOM     16  C   UNL     1      29.290 -13.143   3.774  0.00  0.00    +0.000 C 
ATOM     17  C   UNL     1      29.557 -11.310   0.535  0.00  0.00    +0.000 C 
ATOM     18  C   UNL     1      30.516 -13.064   1.557  0.00  0.00    +0.000 C 
ATOM     19  C   UNL     1      30.352 -12.358   0.281  0.00  0.00    +0.000 C 
ATOM     20  C   UNL     1      31.003 -12.794  -0.972  0.00  0.00    +0.000 C 
ENDROOT
BRANCH   7  21
ATOM     21  O   UNL     1      30.128  -9.240   2.812  0.00  0.00    +0.000 OA
ATOM     22  H   UNL     1      30.363  -9.285   3.766  0.00  0.00    +0.000 HD
ENDBRANCH   7  21
BRANCH  13  23
ATOM     23  O   UNL     1      31.100 -11.578   3.246  0.00  0.00    +0.000 OA
ATOM     24  H   UNL     1      31.490 -12.199   3.896  0.00  0.00    +0.000 HD
ENDBRANCH  13  23
BRANCH   3  25
ATOM     25  O   UNL     1      26.256  -6.867   4.331  0.00  0.00    +0.000 OA
BRANCH  25  27
ATOM     26  O   UNL     1      24.544  -7.783   5.458  0.00  0.00    +0.000 OA
ATOM     27  C   UNL     1      25.109  -7.590   4.384  0.00  0.00    +0.000 C 
ATOM     28  C   UNL     1      24.502  -8.075   3.101  0.00  0.00    +0.000 C 
ENDBRANCH  25  27
ENDBRANCH   3  25
BRANCH  15  29
ATOM     29  C   UNL     1      26.935 -12.820   4.703  0.00  0.00    +0.000 C 
BRANCH  29  30
ATOM     30  O   UNL     1      26.655 -13.464   3.472  0.00  0.00    +0.000 OA
ATOM     31  H   UNL     1      27.238 -14.243   3.424  0.00  0.00    +0.000 HD
ENDBRANCH  29  30
ENDBRANCH  15  29
BRANCH   6  32
ATOM     32  O   UNL     1      27.392  -6.271   2.033  0.00  0.00    +0.000 OA
BRANCH  32  34
ATOM     33  O   UNL     1      26.868  -4.097   2.035  0.00  0.00    +0.000 OA
ATOM     34  C   UNL     1      27.738  -4.963   2.011  0.00  0.00    +0.000 C 
BRANCH  34  35
ATOM     35  C   UNL     1      29.198  -4.584   1.958  0.00  0.00    +0.000 C 
BRANCH  35  36
ATOM     36  C   UNL     1      29.601  -4.091   0.573  0.00  0.00    +0.000 C 
BRANCH  36  37
ATOM     37  C   UNL     1      30.749  -3.075   0.579  0.00  0.00    +0.000 C 
BRANCH  37  38
ATOM     38  C   UNL     1      31.655  -3.135  -0.658  0.00  0.00    +0.000 C 
BRANCH  38  39
ATOM     39  C   UNL     1      31.011  -2.488  -1.889  0.00  0.00    +0.000 C 
BRANCH  39  40
ATOM     40  C   UNL     1      30.878  -3.439  -3.081  0.00  0.00    +0.000 C 
BRANCH  40  41
ATOM     41  C   UNL     1      29.532  -4.166  -3.123  0.00  0.00    +0.000 C 
BRANCH  41  42
ATOM     42  C   UNL     1      29.653  -5.678  -2.912  0.00  0.00    +0.000 C 
BRANCH  42  43
ATOM     43  C   UNL     1      31.042  -6.186  -2.516  0.00  0.00    +0.000 C 
BRANCH  43  44
ATOM     44  C   UNL     1      31.751  -7.053  -3.561  0.00  0.00    +0.000 C 
BRANCH  44  45
ATOM     45  C   UNL     1      31.919  -8.530  -3.192  0.00  0.00    +0.000 C 
BRANCH  45  46
ATOM     46  C   UNL     1      30.921  -9.079  -2.171  0.00  0.00    +0.000 C 
ATOM     47  C   UNL     1      29.702  -9.730  -2.805  0.00  0.00    +0.000 C 
ENDBRANCH  45  46
ENDBRANCH  44  45
ENDBRANCH  43  44
ENDBRANCH  42  43
ENDBRANCH  41  42
ENDBRANCH  40  41
ENDBRANCH  39  40
ENDBRANCH  38  39
ENDBRANCH  37  38
ENDBRANCH  36  37
ENDBRANCH  35  36
ENDBRANCH  34  35
ENDBRANCH  32  34
ENDBRANCH   6  32
TORSDOF 20
ENDMDL
MODEL 5
REMARK VINA RESULT:      -3.3      3.345      9.409
REMARK  Name = 27924_Phorbol.pdbqt.pdb
REMARK  26 active torsions:
REMARK  status: ('A' for Active; 'I' for Inactive)
REMARK    1  A    between atoms: O_1  and  C_10
REMARK    2  A    between atoms: O_1  and  C_26
REMARK    3  A    between atoms: O_2  and  C_13
REMARK    4  A    between atoms: O_2  and  C_28
REMARK    5  A    between atoms: O_3  and  C_14
REMARK    6  A    between atoms: O_4  and  C_20
REMARK    7  A    between atoms: O_7  and  C_29
REMARK    8  A    between atoms: C_11  and  C_16
REMARK    9  A    between atoms: C_11  and  C_17
REMARK   10  A    between atoms: C_15  and  C_21
REMARK   11  A    between atoms: C_22  and  C_29
REMARK   12  A    between atoms: C_26  and  C_30
REMARK   13  A    between atoms: C_27  and  C_31
REMARK   14  A    between atoms: C_28  and  C_32
REMARK   15  A    between atoms: C_32  and  C_33
REMARK   16  A    between atoms: C_33  and  C_34
REMARK   17  A    between atoms: C_34  and  C_35
REMARK   18  A    between atoms: C_35  and  C_36
REMARK   19  A    between atoms: C_36  and  C_37
REMARK   20  A    between atoms: C_37  and  C_38
REMARK   21  A    between atoms: C_38  and  C_39
REMARK   22  A    between atoms: C_39  and  C_40
REMARK   23  A    between atoms: C_40  and  C_41
REMARK   24  A    between atoms: C_41  and  C_42
REMARK   25  A    between atoms: C_42  and  C_43
REMARK   26  A    between atoms: C_43  and  C_44
REMARK                            x       y       z     vdW  Elec       q    Type
REMARK                         _______ _______ _______ _____ _____    ______ ____
ROOT
ATOM      1  O   UNL     1      21.767  -0.536   1.332  0.00  0.00    +0.000 OA
ATOM      2  C   UNL     1      27.834  -3.420  -0.956  0.00  0.00    +0.000 C 
ATOM      3  C   UNL     1      28.830  -3.975   0.044  0.00  0.00    +0.000 C 
ATOM      4  C   UNL     1      29.117  -2.649  -0.717  0.00  0.00    +0.000 C 
ATOM      5  C   UNL     1      26.421  -3.125  -0.551  0.00  0.00    +0.000 C 
ATOM      6  C   UNL     1      28.382  -4.046   1.516  0.00  0.00    +0.000 C 
ATOM      7  C   UNL     1      26.089  -3.022   1.009  0.00  0.00    +0.000 C 
ATOM      8  C   UNL     1      26.833  -4.267   1.636  0.00  0.00    +0.000 C 
ATOM      9  C   UNL     1      30.074  -2.649  -1.897  0.00  0.00    +0.000 C 
ATOM     10  C   UNL     1      29.101  -1.308  -0.025  0.00  0.00    +0.000 C 
ATOM     11  C   UNL     1      24.492  -2.902   1.190  0.00  0.00    +0.000 C 
ATOM     12  C   UNL     1      25.773  -2.028  -1.374  0.00  0.00    +0.000 C 
ATOM     13  C   UNL     1      23.847  -1.568   0.606  0.00  0.00    +0.000 C 
ATOM     14  C   UNL     1      26.457  -4.614   3.077  0.00  0.00    +0.000 C 
ATOM     15  C   UNL     1      24.492  -2.240  -1.747  0.00  0.00    +0.000 C 
ATOM     16  C   UNL     1      23.422  -1.600  -0.879  0.00  0.00    +0.000 C 
ATOM     17  C   UNL     1      23.889  -2.895   2.589  0.00  0.00    +0.000 C 
ATOM     18  C   UNL     1      22.668  -1.338   1.527  0.00  0.00    +0.000 C 
ATOM     19  C   UNL     1      22.834  -2.091   2.775  0.00  0.00    +0.000 C 
ATOM     20  C   UNL     1      21.963  -1.900   3.954  0.00  0.00    +0.000 C 
ENDROOT
BRANCH   7  21
ATOM     21  O   UNL     1      26.677  -1.862   1.611  0.00  0.00    +0.000 OA
ATOM     22  H   UNL     1      27.074  -2.135   2.468  0.00  0.00    +0.000 HD
ENDBRANCH   7  21
BRANCH  13  23
ATOM     23  O   UNL     1      24.693  -0.418   0.851  0.00  0.00    +0.000 OA
ATOM     24  H   UNL     1      25.158  -0.239   0.008  0.00  0.00    +0.000 HD
ENDBRANCH  13  23
BRANCH   3  25
ATOM     25  O   UNL     1      29.398  -5.209  -0.467  0.00  0.00    +0.000 OA
BRANCH  25  27
ATOM     26  O   UNL     1      29.048  -6.126  -2.487  0.00  0.00    +0.000 OA
ATOM     27  C   UNL     1      28.759  -6.075  -1.293  0.00  0.00    +0.000 C 
ATOM     28  C   UNL     1      27.755  -7.023  -0.708  0.00  0.00    +0.000 C 
ENDBRANCH  25  27
ENDBRANCH   3  25
BRANCH  15  29
ATOM     29  C   UNL     1      24.043  -3.446  -2.529  0.00  0.00    +0.000 C 
BRANCH  29  30
ATOM     30  O   UNL     1      24.805  -3.509  -3.723  0.00  0.00    +0.000 OA
ATOM     31  H   UNL     1      24.175  -3.431  -4.461  0.00  0.00    +0.000 HD
ENDBRANCH  29  30
ENDBRANCH  15  29
BRANCH   6  32
ATOM     32  O   UNL     1      29.091  -5.147   2.146  0.00  0.00    +0.000 OA
BRANCH  32  34
ATOM     33  O   UNL     1      30.713  -4.025   3.199  0.00  0.00    +0.000 OA
ATOM     34  C   UNL     1      30.009  -5.029   3.133  0.00  0.00    +0.000 C 
BRANCH  34  35
ATOM     35  C   UNL     1      30.156  -6.139   4.144  0.00  0.00    +0.000 C 
BRANCH  35  36
ATOM     36  C   UNL     1      29.956  -5.634   5.568  0.00  0.00    +0.000 C 
BRANCH  36  37
ATOM     37  C   UNL     1      29.524  -6.716   6.564  0.00  0.00    +0.000 C 
BRANCH  37  38
ATOM     38  C   UNL     1      29.542  -8.142   5.997  0.00  0.00    +0.000 C 
BRANCH  38  39
ATOM     39  C   UNL     1      28.149  -8.778   5.965  0.00  0.00    +0.000 C 
BRANCH  39  40
ATOM     40  C   UNL     1      27.097  -7.910   5.268  0.00  0.00    +0.000 C 
BRANCH  40  41
ATOM     41  C   UNL     1      26.512  -8.566   4.015  0.00  0.00    +0.000 C 
BRANCH  41  42
ATOM     42  C   UNL     1      27.303  -8.252   2.742  0.00  0.00    +0.000 C 
BRANCH  42  43
ATOM     43  C   UNL     1      27.826  -9.465   1.966  0.00  0.00    +0.000 C 
BRANCH  43  44
ATOM     44  C   UNL     1      29.262  -9.888   2.291  0.00  0.00    +0.000 C 
BRANCH  44  45
ATOM     45  C   UNL     1      29.590 -11.363   2.044  0.00  0.00    +0.000 C 
BRANCH  45  46
ATOM     46  C   UNL     1      30.428 -11.660   0.799  0.00  0.00    +0.000 C 
ATOM     47  C   UNL     1      30.401 -10.540  -0.230  0.00  0.00    +0.000 C 
ENDBRANCH  45  46
ENDBRANCH  44  45
ENDBRANCH  43  44
ENDBRANCH  42  43
ENDBRANCH  41  42
ENDBRANCH  40  41
ENDBRANCH  39  40
ENDBRANCH  38  39
ENDBRANCH  37  38
ENDBRANCH  36  37
ENDBRANCH  35  36
ENDBRANCH  34  35
ENDBRANCH  32  34
ENDBRANCH   6  32
TORSDOF 20
ENDMDL
MODEL 6
REMARK VINA RESULT:      -3.0     32.750     36.930
REMARK  Name = 27924_Phorbol.pdbqt.pdb
REMARK  26 active torsions:
REMARK  status: ('A' for Active; 'I' for Inactive)
REMARK    1  A    between atoms: O_1  and  C_10
REMARK    2  A    between atoms: O_1  and  C_26
REMARK    3  A    between atoms: O_2  and  C_13
REMARK    4  A    between atoms: O_2  and  C_28
REMARK    5  A    between atoms: O_3  and  C_14
REMARK    6  A    between atoms: O_4  and  C_20
REMARK    7  A    between atoms: O_7  and  C_29
REMARK    8  A    between atoms: C_11  and  C_16
REMARK    9  A    between atoms: C_11  and  C_17
REMARK   10  A    between atoms: C_15  and  C_21
REMARK   11  A    between atoms: C_22  and  C_29
REMARK   12  A    between atoms: C_26  and  C_30
REMARK   13  A    between atoms: C_27  and  C_31
REMARK   14  A    between atoms: C_28  and  C_32
REMARK   15  A    between atoms: C_32  and  C_33
REMARK   16  A    between atoms: C_33  and  C_34
REMARK   17  A    between atoms: C_34  and  C_35
REMARK   18  A    between atoms: C_35  and  C_36
REMARK   19  A    between atoms: C_36  and  C_37
REMARK   20  A    between atoms: C_37  and  C_38
REMARK   21  A    between atoms: C_38  and  C_39
REMARK   22  A    between atoms: C_39  and  C_40
REMARK   23  A    between atoms: C_40  and  C_41
REMARK   24  A    between atoms: C_41  and  C_42
REMARK   25  A    between atoms: C_42  and  C_43
REMARK   26  A    between atoms: C_43  and  C_44
REMARK                            x       y       z     vdW  Elec       q    Type
REMARK                         _______ _______ _______ _____ _____    ______ ____
ROOT
ATOM      1  O   UNL     1      46.504  21.315  -2.403  0.00  0.00    +0.000 OA
ATOM      2  C   UNL     1      43.534  24.045   3.435  0.00  0.00    +0.000 C 
ATOM      3  C   UNL     1      43.500  25.549   3.633  0.00  0.00    +0.000 C 
ATOM      4  C   UNL     1      44.452  24.654   4.477  0.00  0.00    +0.000 C 
ATOM      5  C   UNL     1      43.831  23.453   2.090  0.00  0.00    +0.000 C 
ATOM      6  C   UNL     1      43.960  26.422   2.451  0.00  0.00    +0.000 C 
ATOM      7  C   UNL     1      44.494  24.392   0.982  0.00  0.00    +0.000 C 
ATOM      8  C   UNL     1      43.660  25.731   1.074  0.00  0.00    +0.000 C 
ATOM      9  C   UNL     1      44.087  24.306   5.910  0.00  0.00    +0.000 C 
ATOM     10  C   UNL     1      45.948  24.668   4.281  0.00  0.00    +0.000 C 
ATOM     11  C   UNL     1      44.527  23.595  -0.419  0.00  0.00    +0.000 C 
ATOM     12  C   UNL     1      44.462  22.075   2.163  0.00  0.00    +0.000 C 
ATOM     13  C   UNL     1      45.469  22.310  -0.440  0.00  0.00    +0.000 C 
ATOM     14  C   UNL     1      43.861  26.724  -0.072  0.00  0.00    +0.000 C 
ATOM     15  C   UNL     1      44.007  21.162   1.277  0.00  0.00    +0.000 C 
ATOM     16  C   UNL     1      44.830  20.979   0.014  0.00  0.00    +0.000 C 
ATOM     17  C   UNL     1      45.016  24.300  -1.678  0.00  0.00    +0.000 C 
ATOM     18  C   UNL     1      45.925  22.257  -1.882  0.00  0.00    +0.000 C 
ATOM     19  C   UNL     1      45.729  23.557  -2.534  0.00  0.00    +0.000 C 
ATOM     20  C   UNL     1      46.278  23.881  -3.868  0.00  0.00    +0.000 C 
ENDROOT
BRANCH   7  21
ATOM     21  O   UNL     1      45.846  24.742   1.308  0.00  0.00    +0.000 OA
ATOM     22  H   UNL     1      46.007  24.482   2.242  0.00  0.00    +0.000 HD
ENDBRANCH   7  21
BRANCH  13  23
ATOM     23  O   UNL     1      46.697  22.541   0.292  0.00  0.00    +0.000 OA
ATOM     24  H   UNL     1      46.472  23.174   1.006  0.00  0.00    +0.000 HD
ENDBRANCH  13  23
BRANCH   3  25
ATOM     25  O   UNL     1      42.222  25.937   4.201  0.00  0.00    +0.000 OA
BRANCH  25  27
ATOM     26  O   UNL     1      40.725  25.304   2.652  0.00  0.00    +0.000 OA
ATOM     27  C   UNL     1      41.022  25.418   3.840  0.00  0.00    +0.000 C 
ATOM     28  C   UNL     1      40.102  24.913   4.911  0.00  0.00    +0.000 C 
ENDBRANCH  25  27
ENDBRANCH   3  25
BRANCH  15  29
ATOM     29  C   UNL     1      42.557  20.773   1.157  0.00  0.00    +0.000 C 
BRANCH  29  30
ATOM     30  O   UNL     1      42.157  20.960  -0.190  0.00  0.00    +0.000 OA
ATOM     31  H   UNL     1      42.889  20.639  -0.746  0.00  0.00    +0.000 HD
ENDBRANCH  29  30
ENDBRANCH  15  29
BRANCH   6  32
ATOM     32  O   UNL     1      43.255  27.691   2.532  0.00  0.00    +0.000 OA
BRANCH  32  34
ATOM     33  O   UNL     1      42.980  29.791   3.251  0.00  0.00    +0.000 OA
ATOM     34  C   UNL     1      43.693  28.793   3.184  0.00  0.00    +0.000 C 
BRANCH  34  35
ATOM     35  C   UNL     1      45.060  28.780   3.823  0.00  0.00    +0.000 C 
BRANCH  35  36
ATOM     36  C   UNL     1      44.991  29.126   5.306  0.00  0.00    +0.000 C 
BRANCH  36  37
ATOM     37  C   UNL     1      44.708  27.927   6.218  0.00  0.00    +0.000 C 
BRANCH  37  38
ATOM     38  C   UNL     1      45.927  27.428   7.005  0.00  0.00    +0.000 C 
BRANCH  38  39
ATOM     39  C   UNL     1      45.669  27.377   8.515  0.00  0.00    +0.000 C 
BRANCH  39  40
ATOM     40  C   UNL     1      44.553  26.407   8.912  0.00  0.00    +0.000 C 
BRANCH  40  41
ATOM     41  C   UNL     1      45.079  25.061   9.419  0.00  0.00    +0.000 C 
BRANCH  41  42
ATOM     42  C   UNL     1      44.034  24.257  10.197  0.00  0.00    +0.000 C 
BRANCH  42  43
ATOM     43  C   UNL     1      43.043  23.456   9.349  0.00  0.00    +0.000 C 
BRANCH  43  44
ATOM     44  C   UNL     1      42.093  22.542  10.129  0.00  0.00    +0.000 C 
BRANCH  44  45
ATOM     45  C   UNL     1      41.294  23.217  11.247  0.00  0.00    +0.000 C 
BRANCH  45  46
ATOM     46  C   UNL     1      40.880  22.313  12.410  0.00  0.00    +0.000 C 
ATOM     47  C   UNL     1      40.861  20.836  12.051  0.00  0.00    +0.000 C 
ENDBRANCH  45  46
ENDBRANCH  44  45
ENDBRANCH  43  44
ENDBRANCH  42  43
ENDBRANCH  41  42
ENDBRANCH  40  41
ENDBRANCH  39  40
ENDBRANCH  38  39
ENDBRANCH  37  38
ENDBRANCH  36  37
ENDBRANCH  35  36
ENDBRANCH  34  35
ENDBRANCH  32  34
ENDBRANCH   6  32
TORSDOF 20
ENDMDL
MODEL 7
REMARK VINA RESULT:      -3.0     32.796     37.685
REMARK  Name = 27924_Phorbol.pdbqt.pdb
REMARK  26 active torsions:
REMARK  status: ('A' for Active; 'I' for Inactive)
REMARK    1  A    between atoms: O_1  and  C_10
REMARK    2  A    between atoms: O_1  and  C_26
REMARK    3  A    between atoms: O_2  and  C_13
REMARK    4  A    between atoms: O_2  and  C_28
REMARK    5  A    between atoms: O_3  and  C_14
REMARK    6  A    between atoms: O_4  and  C_20
REMARK    7  A    between atoms: O_7  and  C_29
REMARK    8  A    between atoms: C_11  and  C_16
REMARK    9  A    between atoms: C_11  and  C_17
REMARK   10  A    between atoms: C_15  and  C_21
REMARK   11  A    between atoms: C_22  and  C_29
REMARK   12  A    between atoms: C_26  and  C_30
REMARK   13  A    between atoms: C_27  and  C_31
REMARK   14  A    between atoms: C_28  and  C_32
REMARK   15  A    between atoms: C_32  and  C_33
REMARK   16  A    between atoms: C_33  and  C_34
REMARK   17  A    between atoms: C_34  and  C_35
REMARK   18  A    between atoms: C_35  and  C_36
REMARK   19  A    between atoms: C_36  and  C_37
REMARK   20  A    between atoms: C_37  and  C_38
REMARK   21  A    between atoms: C_38  and  C_39
REMARK   22  A    between atoms: C_39  and  C_40
REMARK   23  A    between atoms: C_40  and  C_41
REMARK   24  A    between atoms: C_41  and  C_42
REMARK   25  A    between atoms: C_42  and  C_43
REMARK   26  A    between atoms: C_43  and  C_44
REMARK                            x       y       z     vdW  Elec       q    Type
REMARK                         _______ _______ _______ _____ _____    ______ ____
ROOT
ATOM      1  O   UNL     1      51.173  23.867  16.913  0.00  0.00    +0.000 OA
ATOM      2  C   UNL     1      51.213  17.782  13.262  0.00  0.00    +0.000 C 
ATOM      3  C   UNL     1      52.233  17.571  12.158  0.00  0.00    +0.000 C 
ATOM      4  C   UNL     1      50.733  17.818  11.825  0.00  0.00    +0.000 C 
ATOM      5  C   UNL     1      51.386  18.882  14.267  0.00  0.00    +0.000 C 
ATOM      6  C   UNL     1      53.336  18.635  12.009  0.00  0.00    +0.000 C 
ATOM      7  C   UNL     1      52.417  20.055  13.933  0.00  0.00    +0.000 C 
ATOM      8  C   UNL     1      53.690  19.294  13.388  0.00  0.00    +0.000 C 
ATOM      9  C   UNL     1      49.845  16.648  11.435  0.00  0.00    +0.000 C 
ATOM     10  C   UNL     1      50.253  19.103  11.196  0.00  0.00    +0.000 C 
ATOM     11  C   UNL     1      52.573  20.992  15.235  0.00  0.00    +0.000 C 
ATOM     12  C   UNL     1      50.075  19.383  14.845  0.00  0.00    +0.000 C 
ATOM     13  C   UNL     1      51.259  21.790  15.651  0.00  0.00    +0.000 C 
ATOM     14  C   UNL     1      54.965  20.129  13.264  0.00  0.00    +0.000 C 
ATOM     15  C   UNL     1      50.062  19.622  16.174  0.00  0.00    +0.000 C 
ATOM     16  C   UNL     1      50.283  21.062  16.602  0.00  0.00    +0.000 C 
ATOM     17  C   UNL     1      53.582  22.134  15.227  0.00  0.00    +0.000 C 
ATOM     18  C   UNL     1      51.818  23.052  16.271  0.00  0.00    +0.000 C 
ATOM     19  C   UNL     1      53.211  23.256  15.858  0.00  0.00    +0.000 C 
ATOM     20  C   UNL     1      53.955  24.506  16.119  0.00  0.00    +0.000 C 
ENDROOT
BRANCH   7  21
ATOM     21  O   UNL     1      51.960  20.886  12.858  0.00  0.00    +0.000 OA
ATOM     22  H   UNL     1      51.947  21.815  13.180  0.00  0.00    +0.000 HD
ENDBRANCH   7  21
BRANCH  13  23
ATOM     23  O   UNL     1      50.543  22.275  14.490  0.00  0.00    +0.000 OA
ATOM     24  H   UNL     1      51.111  22.075  13.717  0.00  0.00    +0.000 HD
ENDBRANCH  13  23
BRANCH   3  25
ATOM     25  O   UNL     1      52.722  16.205  12.202  0.00  0.00    +0.000 OA
BRANCH  25  27
ATOM     26  O   UNL     1      52.059  14.531  13.544  0.00  0.00    +0.000 OA
ATOM     27  C   UNL     1      52.839  15.457  13.328  0.00  0.00    +0.000 C 
ATOM     28  C   UNL     1      53.983  15.727  14.258  0.00  0.00    +0.000 C 
ENDBRANCH  25  27
ENDBRANCH   3  25
BRANCH  15  29
ATOM     29  C   UNL     1      50.417  18.586  17.208  0.00  0.00    +0.000 C 
BRANCH  29  30
ATOM     30  O   UNL     1      49.231  17.901  17.575  0.00  0.00    +0.000 OA
ATOM     31  H   UNL     1      48.571  18.097  16.886  0.00  0.00    +0.000 HD
ENDBRANCH  29  30
ENDBRANCH  15  29
BRANCH   6  32
ATOM     32  O   UNL     1      54.512  17.984  11.454  0.00  0.00    +0.000 OA
BRANCH  32  34
ATOM     33  O   UNL     1      54.449  18.800   9.372  0.00  0.00    +0.000 OA
ATOM     34  C   UNL     1      54.826  17.918  10.140  0.00  0.00    +0.000 C 
BRANCH  34  35
ATOM     35  C   UNL     1      55.641  16.754   9.632  0.00  0.00    +0.000 C 
BRANCH  35  36
ATOM     36  C   UNL     1      54.876  15.942   8.593  0.00  0.00    +0.000 C 
BRANCH  36  37
ATOM     37  C   UNL     1      55.766  15.261   7.548  0.00  0.00    +0.000 C 
BRANCH  37  38
ATOM     38  C   UNL     1      56.106  13.797   7.861  0.00  0.00    +0.000 C 
BRANCH  38  39
ATOM     39  C   UNL     1      57.437  13.359   7.242  0.00  0.00    +0.000 C 
BRANCH  39  40
ATOM     40  C   UNL     1      57.309  12.873   5.795  0.00  0.00    +0.000 C 
BRANCH  40  41
ATOM     41  C   UNL     1      57.102  11.360   5.687  0.00  0.00    +0.000 C 
BRANCH  41  42
ATOM     42  C   UNL     1      56.027  10.967   4.670  0.00  0.00    +0.000 C 
BRANCH  42  43
ATOM     43  C   UNL     1      55.206  12.121   4.088  0.00  0.00    +0.000 C 
BRANCH  43  44
ATOM     44  C   UNL     1      54.136  11.723   3.067  0.00  0.00    +0.000 C 
BRANCH  44  45
ATOM     45  C   UNL     1      53.239  10.550   3.472  0.00  0.00    +0.000 C 
BRANCH  45  46
ATOM     46  C   UNL     1      53.325   9.307   2.584  0.00  0.00    +0.000 C 
ATOM     47  C   UNL     1      54.103   9.536   1.297  0.00  0.00    +0.000 C 
ENDBRANCH  45  46
ENDBRANCH  44  45
ENDBRANCH  43  44
ENDBRANCH  42  43
ENDBRANCH  41  42
ENDBRANCH  40  41
ENDBRANCH  39  40
ENDBRANCH  38  39
ENDBRANCH  37  38
ENDBRANCH  36  37
ENDBRANCH  35  36
ENDBRANCH  34  35
ENDBRANCH  32  34
ENDBRANCH   6  32
TORSDOF 20
ENDMDL
MODEL 8
REMARK VINA RESULT:      -3.0     16.158     20.985
REMARK  Name = 27924_Phorbol.pdbqt.pdb
REMARK  26 active torsions:
REMARK  status: ('A' for Active; 'I' for Inactive)
REMARK    1  A    between atoms: O_1  and  C_10
REMARK    2  A    between atoms: O_1  and  C_26
REMARK    3  A    between atoms: O_2  and  C_13
REMARK    4  A    between atoms: O_2  and  C_28
REMARK    5  A    between atoms: O_3  and  C_14
REMARK    6  A    between atoms: O_4  and  C_20
REMARK    7  A    between atoms: O_7  and  C_29
REMARK    8  A    between atoms: C_11  and  C_16
REMARK    9  A    between atoms: C_11  and  C_17
REMARK   10  A    between atoms: C_15  and  C_21
REMARK   11  A    between atoms: C_22  and  C_29
REMARK   12  A    between atoms: C_26  and  C_30
REMARK   13  A    between atoms: C_27  and  C_31
REMARK   14  A    between atoms: C_28  and  C_32
REMARK   15  A    between atoms: C_32  and  C_33
REMARK   16  A    between atoms: C_33  and  C_34
REMARK   17  A    between atoms: C_34  and  C_35
REMARK   18  A    between atoms: C_35  and  C_36
REMARK   19  A    between atoms: C_36  and  C_37
REMARK   20  A    between atoms: C_37  and  C_38
REMARK   21  A    between atoms: C_38  and  C_39
REMARK   22  A    between atoms: C_39  and  C_40
REMARK   23  A    between atoms: C_40  and  C_41
REMARK   24  A    between atoms: C_41  and  C_42
REMARK   25  A    between atoms: C_42  and  C_43
REMARK   26  A    between atoms: C_43  and  C_44
REMARK                            x       y       z     vdW  Elec       q    Type
REMARK                         _______ _______ _______ _____ _____    ______ ____
ROOT
ATOM      1  O   UNL     1      24.981   5.540   4.214  0.00  0.00    +0.000 OA
ATOM      2  C   UNL     1      27.964  11.705   2.357  0.00  0.00    +0.000 C 
ATOM      3  C   UNL     1      27.187  12.695   1.508  0.00  0.00    +0.000 C 
ATOM      4  C   UNL     1      28.371  11.885   0.908  0.00  0.00    +0.000 C 
ATOM      5  C   UNL     1      27.267  10.572   3.047  0.00  0.00    +0.000 C 
ATOM      6  C   UNL     1      25.703  12.378   1.242  0.00  0.00    +0.000 C 
ATOM      7  C   UNL     1      25.793  10.187   2.566  0.00  0.00    +0.000 C 
ATOM      8  C   UNL     1      25.063  11.582   2.433  0.00  0.00    +0.000 C 
ATOM      9  C   UNL     1      29.722  12.553   0.718  0.00  0.00    +0.000 C 
ATOM     10  C   UNL     1      28.159  10.784  -0.102  0.00  0.00    +0.000 C 
ATOM     11  C   UNL     1      25.188   9.090   3.581  0.00  0.00    +0.000 C 
ATOM     12  C   UNL     1      28.157   9.364   3.275  0.00  0.00    +0.000 C 
ATOM     13  C   UNL     1      25.937   7.684   3.576  0.00  0.00    +0.000 C 
ATOM     14  C   UNL     1      23.542  11.528   2.278  0.00  0.00    +0.000 C 
ATOM     15  C   UNL     1      28.044   8.758   4.476  0.00  0.00    +0.000 C 
ATOM     16  C   UNL     1      27.140   7.539   4.535  0.00  0.00    +0.000 C 
ATOM     17  C   UNL     1      23.748   8.621   3.416  0.00  0.00    +0.000 C 
ATOM     18  C   UNL     1      24.825   6.714   3.912  0.00  0.00    +0.000 C 
ATOM     19  C   UNL     1      23.514   7.326   3.666  0.00  0.00    +0.000 C 
ATOM     20  C   UNL     1      22.249   6.562   3.690  0.00  0.00    +0.000 C 
ENDROOT
BRANCH   7  21
ATOM     21  O   UNL     1      25.786   9.607   1.255  0.00  0.00    +0.000 OA
ATOM     22  H   UNL     1      25.778   8.630   1.357  0.00  0.00    +0.000 HD
ENDBRANCH   7  21
BRANCH  13  23
ATOM     23  O   UNL     1      26.326   7.295   2.236  0.00  0.00    +0.000 OA
ATOM     24  H   UNL     1      27.234   7.640   2.107  0.00  0.00    +0.000 HD
ENDBRANCH  13  23
BRANCH   3  25
ATOM     25  O   UNL     1      27.434  14.044   1.983  0.00  0.00    +0.000 OA
BRANCH  25  27
ATOM     26  O   UNL     1      28.811  14.758   3.606  0.00  0.00    +0.000 OA
ATOM     27  C   UNL     1      27.690  14.379   3.273  0.00  0.00    +0.000 C 
ATOM     28  C   UNL     1      26.563  14.357   4.261  0.00  0.00    +0.000 C 
ENDBRANCH  25  27
ENDBRANCH   3  25
BRANCH  15  29
ATOM     29  C   UNL     1      28.240   9.471   5.788  0.00  0.00    +0.000 C 
BRANCH  29  30
ATOM     30  O   UNL     1      29.420  10.251   5.697  0.00  0.00    +0.000 OA
ATOM     31  H   UNL     1      30.169   9.639   5.802  0.00  0.00    +0.000 HD
ENDBRANCH  29  30
ENDBRANCH  15  29
BRANCH   6  32
ATOM     32  O   UNL     1      25.004  13.639   1.056  0.00  0.00    +0.000 OA
BRANCH  32  34
ATOM     33  O   UNL     1      24.771  13.570  -1.167  0.00  0.00    +0.000 OA
ATOM     34  C   UNL     1      24.422  14.053  -0.092  0.00  0.00    +0.000 C 
BRANCH  34  35
ATOM     35  C   UNL     1      23.346  15.109  -0.039  0.00  0.00    +0.000 C 
BRANCH  35  36
ATOM     36  C   UNL     1      22.586  15.073   1.281  0.00  0.00    +0.000 C 
BRANCH  36  37
ATOM     37  C   UNL     1      21.258  14.310   1.220  0.00  0.00    +0.000 C 
BRANCH  37  38
ATOM     38  C   UNL     1      20.351  14.519   2.440  0.00  0.00    +0.000 C 
BRANCH  38  39
ATOM     39  C   UNL     1      20.524  13.421   3.495  0.00  0.00    +0.000 C 
BRANCH  39  40
ATOM     40  C   UNL     1      20.795  13.961   4.901  0.00  0.00    +0.000 C 
BRANCH  40  41
ATOM     41  C   UNL     1      22.041  14.848   4.974  0.00  0.00    +0.000 C 
BRANCH  41  42
ATOM     42  C   UNL     1      23.161  14.249   5.828  0.00  0.00    +0.000 C 
BRANCH  42  43
ATOM     43  C   UNL     1      23.431  12.755   5.623  0.00  0.00    +0.000 C 
BRANCH  43  44
ATOM     44  C   UNL     1      23.930  11.997   6.857  0.00  0.00    +0.000 C 
BRANCH  44  45
ATOM     45  C   UNL     1      25.093  11.031   6.614  0.00  0.00    +0.000 C 
BRANCH  45  46
ATOM     46  C   UNL     1      24.990   9.676   7.318  0.00  0.00    +0.000 C 
ATOM     47  C   UNL     1      24.070   9.690   8.528  0.00  0.00    +0.000 C 
ENDBRANCH  45  46
ENDBRANCH  44  45
ENDBRANCH  43  44
ENDBRANCH  42  43
ENDBRANCH  41  42
ENDBRANCH  40  41
ENDBRANCH  39  40
ENDBRANCH  38  39
ENDBRANCH  37  38
ENDBRANCH  36  37
ENDBRANCH  35  36
ENDBRANCH  34  35
ENDBRANCH  32  34
ENDBRANCH   6  32
TORSDOF 20
ENDMDL
MODEL 9
REMARK VINA RESULT:      -2.9     34.707     38.258
REMARK  Name = 27924_Phorbol.pdbqt.pdb
REMARK  26 active torsions:
REMARK  status: ('A' for Active; 'I' for Inactive)
REMARK    1  A    between atoms: O_1  and  C_10
REMARK    2  A    between atoms: O_1  and  C_26
REMARK    3  A    between atoms: O_2  and  C_13
REMARK    4  A    between atoms: O_2  and  C_28
REMARK    5  A    between atoms: O_3  and  C_14
REMARK    6  A    between atoms: O_4  and  C_20
REMARK    7  A    between atoms: O_7  and  C_29
REMARK    8  A    between atoms: C_11  and  C_16
REMARK    9  A    between atoms: C_11  and  C_17
REMARK   10  A    between atoms: C_15  and  C_21
REMARK   11  A    between atoms: C_22  and  C_29
REMARK   12  A    between atoms: C_26  and  C_30
REMARK   13  A    between atoms: C_27  and  C_31
REMARK   14  A    between atoms: C_28  and  C_32
REMARK   15  A    between atoms: C_32  and  C_33
REMARK   16  A    between atoms: C_33  and  C_34
REMARK   17  A    between atoms: C_34  and  C_35
REMARK   18  A    between atoms: C_35  and  C_36
REMARK   19  A    between atoms: C_36  and  C_37
REMARK   20  A    between atoms: C_37  and  C_38
REMARK   21  A    between atoms: C_38  and  C_39
REMARK   22  A    between atoms: C_39  and  C_40
REMARK   23  A    between atoms: C_40  and  C_41
REMARK   24  A    between atoms: C_41  and  C_42
REMARK   25  A    between atoms: C_42  and  C_43
REMARK   26  A    between atoms: C_43  and  C_44
REMARK                            x       y       z     vdW  Elec       q    Type
REMARK                         _______ _______ _______ _____ _____    ______ ____
ROOT
ATOM      1  O   UNL     1      47.317  21.812  -3.063  0.00  0.00    +0.000 OA
ATOM      2  C   UNL     1      49.792  25.418   2.525  0.00  0.00    +0.000 C 
ATOM      3  C   UNL     1      48.832  25.910   3.592  0.00  0.00    +0.000 C 
ATOM      4  C   UNL     1      49.497  26.903   2.595  0.00  0.00    +0.000 C 
ATOM      5  C   UNL     1      49.370  24.378   1.531  0.00  0.00    +0.000 C 
ATOM      6  C   UNL     1      47.370  25.437   3.492  0.00  0.00    +0.000 C 
ATOM      7  C   UNL     1      47.808  24.093   1.355  0.00  0.00    +0.000 C 
ATOM      8  C   UNL     1      47.269  24.014   2.838  0.00  0.00    +0.000 C 
ATOM      9  C   UNL     1      50.673  27.752   3.048  0.00  0.00    +0.000 C 
ATOM     10  C   UNL     1      48.711  27.592   1.506  0.00  0.00    +0.000 C 
ATOM     11  C   UNL     1      47.621  22.813   0.393  0.00  0.00    +0.000 C 
ATOM     12  C   UNL     1      50.115  24.465   0.212  0.00  0.00    +0.000 C 
ATOM     13  C   UNL     1      48.110  23.022  -1.108  0.00  0.00    +0.000 C 
ATOM     14  C   UNL     1      45.857  23.453   3.007  0.00  0.00    +0.000 C 
ATOM     15  C   UNL     1      50.504  23.292  -0.332  0.00  0.00    +0.000 C 
ATOM     16  C   UNL     1      49.594  22.709  -1.400  0.00  0.00    +0.000 C 
ATOM     17  C   UNL     1      46.226  22.256   0.140  0.00  0.00    +0.000 C 
ATOM     18  C   UNL     1      47.177  22.123  -1.889  0.00  0.00    +0.000 C 
ATOM     19  C   UNL     1      45.985  21.802  -1.097  0.00  0.00    +0.000 C 
ATOM     20  C   UNL     1      44.797  21.129  -1.663  0.00  0.00    +0.000 C 
ENDROOT
BRANCH   7  21
ATOM     21  O   UNL     1      47.124  25.194   0.741  0.00  0.00    +0.000 OA
ATOM     22  H   UNL     1      47.734  25.964   0.737  0.00  0.00    +0.000 HD
ENDBRANCH   7  21
BRANCH  13  23
ATOM     23  O   UNL     1      47.783  24.347  -1.593  0.00  0.00    +0.000 OA
ATOM     24  H   UNL     1      47.097  24.696  -0.986  0.00  0.00    +0.000 HD
ENDBRANCH  13  23
BRANCH   3  25
ATOM     25  O   UNL     1      49.428  25.735   4.903  0.00  0.00    +0.000 OA
BRANCH  25  27
ATOM     26  O   UNL     1      50.315  23.673   4.970  0.00  0.00    +0.000 OA
ATOM     27  C   UNL     1      50.440  24.877   5.188  0.00  0.00    +0.000 C 
ATOM     28  C   UNL     1      51.738  25.433   5.694  0.00  0.00    +0.000 C 
ENDBRANCH  25  27
ENDBRANCH   3  25
BRANCH  15  29
ATOM     29  C   UNL     1      51.370  22.290   0.386  0.00  0.00    +0.000 C 
BRANCH  29  30
ATOM     30  O   UNL     1      50.968  20.990  -0.012  0.00  0.00    +0.000 OA
ATOM     31  H   UNL     1      51.384  20.822  -0.877  0.00  0.00    +0.000 HD
ENDBRANCH  29  30
ENDBRANCH  15  29
BRANCH   6  32
ATOM     32  O   UNL     1      46.818  25.406   4.836  0.00  0.00    +0.000 OA
BRANCH  32  34
ATOM     33  O   UNL     1      46.569  27.544   5.441  0.00  0.00    +0.000 OA
ATOM     34  C   UNL     1      46.115  26.403   5.421  0.00  0.00    +0.000 C 
BRANCH  34  35
ATOM     35  C   UNL     1      44.775  26.098   6.043  0.00  0.00    +0.000 C 
BRANCH  35  36
ATOM     36  C   UNL     1      44.525  24.598   6.136  0.00  0.00    +0.000 C 
BRANCH  36  37
ATOM     37  C   UNL     1      43.642  24.180   7.317  0.00  0.00    +0.000 C 
BRANCH  37  38
ATOM     38  C   UNL     1      44.033  24.817   8.657  0.00  0.00    +0.000 C 
BRANCH  38  39
ATOM     39  C   UNL     1      43.745  23.898   9.849  0.00  0.00    +0.000 C 
BRANCH  39  40
ATOM     40  C   UNL     1      42.586  22.927   9.606  0.00  0.00    +0.000 C 
BRANCH  40  41
ATOM     41  C   UNL     1      41.666  22.775  10.820  0.00  0.00    +0.000 C 
BRANCH  41  42
ATOM     42  C   UNL     1      42.121  23.594  12.031  0.00  0.00    +0.000 C 
BRANCH  42  43
ATOM     43  C   UNL     1      41.181  24.723  12.464  0.00  0.00    +0.000 C 
BRANCH  43  44
ATOM     44  C   UNL     1      41.345  26.046  11.710  0.00  0.00    +0.000 C 
BRANCH  44  45
ATOM     45  C   UNL     1      40.286  26.335  10.642  0.00  0.00    +0.000 C 
BRANCH  45  46
ATOM     46  C   UNL     1      40.810  26.502   9.214  0.00  0.00    +0.000 C 
ATOM     47  C   UNL     1      40.237  25.487   8.236  0.00  0.00    +0.000 C 
ENDBRANCH  45  46
ENDBRANCH  44  45
ENDBRANCH  43  44
ENDBRANCH  42  43
ENDBRANCH  41  42
ENDBRANCH  40  41
ENDBRANCH  39  40
ENDBRANCH  38  39
ENDBRANCH  37  38
ENDBRANCH  36  37
ENDBRANCH  35  36
ENDBRANCH  34  35
ENDBRANCH  32  34
ENDBRANCH   6  32
TORSDOF 20
ENDMDL
