MODEL 1
REMARK VINA RESULT:      -3.4      0.000      0.000
REMARK  Name = 2Methylcholine.pdbqt.pdb
REMARK  3 active torsions:
REMARK  status: ('A' for Active; 'I' for Inactive)
REMARK    1  A    between atoms: C_1  and  N_2
REMARK    2  A    between atoms: C_1  and  C_6
REMARK    3  A    between atoms: C_6  and  O_8
REMARK                            x       y       z     vdW  Elec       q    Type
REMARK                         _______ _______ _______ _____ _____    ______ ____
ROOT
ATOM      1  C   UNL     1      39.846   0.553  14.643  0.00  0.00    +0.000 C 
ENDROOT
BRANCH   1   2
ATOM      2  N   UNL     1      40.129  -0.770  14.124  0.00  0.00    +0.000 N 
ATOM      3  C   UNL     1      41.347  -0.736  13.309  0.00  0.00    +0.000 C 
ATOM      4  C   UNL     1      40.318  -1.711  15.231  0.00  0.00    +0.000 C 
ATOM      5  C   UNL     1      39.011  -1.226  13.295  0.00  0.00    +0.000 C 
ENDBRANCH   1   2
BRANCH   1   6
ATOM      6  C   UNL     1      39.559   1.822  15.167  0.00  0.00    +0.000 C 
ATOM      7  C   UNL     1      39.353   2.031  16.620  0.00  0.00    +0.000 C 
BRANCH   6   8
ATOM      8  O   UNL     1      39.453   2.924  14.376  0.00  0.00    +0.000 OA
ATOM      9  H   UNL     1      38.837   3.551  14.802  0.00  0.00    +0.000 HD
ENDBRANCH   6   8
ENDBRANCH   1   6
TORSDOF 3
ENDMDL
MODEL 2
REMARK VINA RESULT:      -3.2      2.622      4.090
REMARK  Name = 2Methylcholine.pdbqt.pdb
REMARK  3 active torsions:
REMARK  status: ('A' for Active; 'I' for Inactive)
REMARK    1  A    between atoms: C_1  and  N_2
REMARK    2  A    between atoms: C_1  and  C_6
REMARK    3  A    between atoms: C_6  and  O_8
REMARK                            x       y       z     vdW  Elec       q    Type
REMARK                         _______ _______ _______ _____ _____    ______ ____
ROOT
ATOM      1  C   UNL     1      41.332  -0.685  13.753  0.00  0.00    +0.000 C 
ENDROOT
BRANCH   1   2
ATOM      2  N   UNL     1      40.397  -0.068  14.672  0.00  0.00    +0.000 N 
ATOM      3  C   UNL     1      41.124   0.556  15.781  0.00  0.00    +0.000 C 
ATOM      4  C   UNL     1      39.613   0.955  13.976  0.00  0.00    +0.000 C 
ATOM      5  C   UNL     1      39.487  -1.084  15.208  0.00  0.00    +0.000 C 
ENDBRANCH   1   2
BRANCH   1   6
ATOM      6  C   UNL     1      42.250  -1.294  12.885  0.00  0.00    +0.000 C 
ATOM      7  C   UNL     1      42.077  -1.242  11.414  0.00  0.00    +0.000 C 
BRANCH   6   8
ATOM      8  O   UNL     1      43.344  -1.962  13.343  0.00  0.00    +0.000 OA
ATOM      9  H   UNL     1      43.960  -2.092  12.596  0.00  0.00    +0.000 HD
ENDBRANCH   6   8
ENDBRANCH   1   6
TORSDOF 3
ENDMDL
MODEL 3
REMARK VINA RESULT:      -3.2      2.033      2.487
REMARK  Name = 2Methylcholine.pdbqt.pdb
REMARK  3 active torsions:
REMARK  status: ('A' for Active; 'I' for Inactive)
REMARK    1  A    between atoms: C_1  and  N_2
REMARK    2  A    between atoms: C_1  and  C_6
REMARK    3  A    between atoms: C_6  and  O_8
REMARK                            x       y       z     vdW  Elec       q    Type
REMARK                         _______ _______ _______ _____ _____    ______ ____
ROOT
ATOM      1  C   UNL     1      41.084  -0.643  14.244  0.00  0.00    +0.000 C 
ENDROOT
BRANCH   1   2
ATOM      2  N   UNL     1      40.701  -1.538  13.170  0.00  0.00    +0.000 N 
ATOM      3  C   UNL     1      41.134  -2.904  13.479  0.00  0.00    +0.000 C 
ATOM      4  C   UNL     1      39.246  -1.522  13.000  0.00  0.00    +0.000 C 
ATOM      5  C   UNL     1      41.333  -1.109  11.919  0.00  0.00    +0.000 C 
ENDBRANCH   1   2
BRANCH   1   6
ATOM      6  C   UNL     1      41.449   0.244  15.266  0.00  0.00    +0.000 C 
ATOM      7  C   UNL     1      40.439   0.838  16.174  0.00  0.00    +0.000 C 
BRANCH   6   8
ATOM      8  O   UNL     1      42.743   0.607  15.480  0.00  0.00    +0.000 OA
ATOM      9  H   UNL     1      42.773   1.196  16.259  0.00  0.00    +0.000 HD
ENDBRANCH   6   8
ENDBRANCH   1   6
TORSDOF 3
ENDMDL
MODEL 4
REMARK VINA RESULT:      -3.1     15.601     16.486
REMARK  Name = 2Methylcholine.pdbqt.pdb
REMARK  3 active torsions:
REMARK  status: ('A' for Active; 'I' for Inactive)
REMARK    1  A    between atoms: C_1  and  N_2
REMARK    2  A    between atoms: C_1  and  C_6
REMARK    3  A    between atoms: C_6  and  O_8
REMARK                            x       y       z     vdW  Elec       q    Type
REMARK                         _______ _______ _______ _____ _____    ______ ____
ROOT
ATOM      1  C   UNL     1      51.915   8.237   6.923  0.00  0.00    +0.000 C 
ENDROOT
BRANCH   1   2
ATOM      2  N   UNL     1      52.760   7.667   5.892  0.00  0.00    +0.000 N 
ATOM      3  C   UNL     1      54.170   7.808   6.268  0.00  0.00    +0.000 C 
ATOM      4  C   UNL     1      52.448   6.246   5.718  0.00  0.00    +0.000 C 
ATOM      5  C   UNL     1      52.532   8.365   4.624  0.00  0.00    +0.000 C 
ENDBRANCH   1   2
BRANCH   1   6
ATOM      6  C   UNL     1      51.113   8.775   7.939  0.00  0.00    +0.000 C 
ATOM      7  C   UNL     1      51.091   8.188   9.300  0.00  0.00    +0.000 C 
BRANCH   6   8
ATOM      8  O   UNL     1      50.315   9.858   7.734  0.00  0.00    +0.000 OA
ATOM      9  H   UNL     1      49.654   9.894   8.452  0.00  0.00    +0.000 HD
ENDBRANCH   6   8
ENDBRANCH   1   6
TORSDOF 3
ENDMDL
MODEL 5
REMARK VINA RESULT:      -2.9     16.185     17.160
REMARK  Name = 2Methylcholine.pdbqt.pdb
REMARK  3 active torsions:
REMARK  status: ('A' for Active; 'I' for Inactive)
REMARK    1  A    between atoms: C_1  and  N_2
REMARK    2  A    between atoms: C_1  and  C_6
REMARK    3  A    between atoms: C_6  and  O_8
REMARK                            x       y       z     vdW  Elec       q    Type
REMARK                         _______ _______ _______ _____ _____    ______ ____
ROOT
ATOM      1  C   UNL     1      36.507  15.859  20.513  0.00  0.00    +0.000 C 
ENDROOT
BRANCH   1   2
ATOM      2  N   UNL     1      35.477  15.225  21.311  0.00  0.00    +0.000 N 
ATOM      3  C   UNL     1      35.983  13.969  21.872  0.00  0.00    +0.000 C 
ATOM      4  C   UNL     1      35.076  16.113  22.406  0.00  0.00    +0.000 C 
ATOM      5  C   UNL     1      34.309  14.940  20.475  0.00  0.00    +0.000 C 
ENDBRANCH   1   2
BRANCH   1   6
ATOM      6  C   UNL     1      37.493  16.498  19.747  0.00  0.00    +0.000 C 
ATOM      7  C   UNL     1      37.378  17.927  19.372  0.00  0.00    +0.000 C 
BRANCH   6   8
ATOM      8  O   UNL     1      38.603  15.844  19.307  0.00  0.00    +0.000 OA
ATOM      9  H   UNL     1      39.277  15.872  20.013  0.00  0.00    +0.000 HD
ENDBRANCH   6   8
ENDBRANCH   1   6
TORSDOF 3
ENDMDL
MODEL 6
REMARK VINA RESULT:      -2.9     10.276     10.971
REMARK  Name = 2Methylcholine.pdbqt.pdb
REMARK  3 active torsions:
REMARK  status: ('A' for Active; 'I' for Inactive)
REMARK    1  A    between atoms: C_1  and  N_2
REMARK    2  A    between atoms: C_1  and  C_6
REMARK    3  A    between atoms: C_6  and  O_8
REMARK                            x       y       z     vdW  Elec       q    Type
REMARK                         _______ _______ _______ _____ _____    ______ ____
ROOT
ATOM      1  C   UNL     1      49.273   2.769   9.965  0.00  0.00    +0.000 C 
ENDROOT
BRANCH   1   2
ATOM      2  N   UNL     1      49.489   1.450   9.405  0.00  0.00    +0.000 N 
ATOM      3  C   UNL     1      49.098   0.425  10.378  0.00  0.00    +0.000 C 
ATOM      4  C   UNL     1      48.691   1.286   8.187  0.00  0.00    +0.000 C 
ATOM      5  C   UNL     1      50.906   1.279   9.075  0.00  0.00    +0.000 C 
ENDBRANCH   1   2
BRANCH   1   6
ATOM      6  C   UNL     1      49.084   4.056  10.489  0.00  0.00    +0.000 C 
ATOM      7  C   UNL     1      49.956   5.188  10.098  0.00  0.00    +0.000 C 
BRANCH   6   8
ATOM      8  O   UNL     1      48.095   4.335  11.382  0.00  0.00    +0.000 OA
ATOM      9  H   UNL     1      47.310   4.638  10.887  0.00  0.00    +0.000 HD
ENDBRANCH   6   8
ENDBRANCH   1   6
TORSDOF 3
ENDMDL
MODEL 7
REMARK VINA RESULT:      -2.7     10.975     11.843
REMARK  Name = 2Methylcholine.pdbqt.pdb
REMARK  3 active torsions:
REMARK  status: ('A' for Active; 'I' for Inactive)
REMARK    1  A    between atoms: C_1  and  N_2
REMARK    2  A    between atoms: C_1  and  C_6
REMARK    3  A    between atoms: C_6  and  O_8
REMARK                            x       y       z     vdW  Elec       q    Type
REMARK                         _______ _______ _______ _____ _____    ______ ____
ROOT
ATOM      1  C   UNL     1      30.050  -3.020  10.439  0.00  0.00    +0.000 C 
ENDROOT
BRANCH   1   2
ATOM      2  N   UNL     1      29.022  -1.998  10.472  0.00  0.00    +0.000 N 
ATOM      3  C   UNL     1      29.427  -0.855   9.649  0.00  0.00    +0.000 C 
ATOM      4  C   UNL     1      27.762  -2.540   9.955  0.00  0.00    +0.000 C 
ATOM      5  C   UNL     1      28.818  -1.546  11.850  0.00  0.00    +0.000 C 
ENDBRANCH   1   2
BRANCH   1   6
ATOM      6  C   UNL     1      31.025  -4.027  10.404  0.00  0.00    +0.000 C 
ATOM      7  C   UNL     1      30.682  -5.446  10.662  0.00  0.00    +0.000 C 
BRANCH   6   8
ATOM      8  O   UNL     1      32.331  -3.760  10.133  0.00  0.00    +0.000 OA
ATOM      9  H   UNL     1      32.537  -2.863  10.460  0.00  0.00    +0.000 HD
ENDBRANCH   6   8
ENDBRANCH   1   6
TORSDOF 3
ENDMDL
MODEL 8
REMARK VINA RESULT:      -2.7     14.982     16.921
REMARK  Name = 2Methylcholine.pdbqt.pdb
REMARK  3 active torsions:
REMARK  status: ('A' for Active; 'I' for Inactive)
REMARK    1  A    between atoms: C_1  and  N_2
REMARK    2  A    between atoms: C_1  and  C_6
REMARK    3  A    between atoms: C_6  and  O_8
REMARK                            x       y       z     vdW  Elec       q    Type
REMARK                         _______ _______ _______ _____ _____    ______ ____
ROOT
ATOM      1  C   UNL     1      35.755  14.358  22.093  0.00  0.00    +0.000 C 
ENDROOT
BRANCH   1   2
ATOM      2  N   UNL     1      35.572  15.693  21.559  0.00  0.00    +0.000 N 
ATOM      3  C   UNL     1      34.607  15.661  20.456  0.00  0.00    +0.000 C 
ATOM      4  C   UNL     1      35.074  16.586  22.608  0.00  0.00    +0.000 C 
ATOM      5  C   UNL     1      36.850  16.206  21.061  0.00  0.00    +0.000 C 
ENDBRANCH   1   2
BRANCH   1   6
ATOM      6  C   UNL     1      35.910  13.057  22.594  0.00  0.00    +0.000 C 
ATOM      7  C   UNL     1      35.772  11.868  21.720  0.00  0.00    +0.000 C 
BRANCH   6   8
ATOM      8  O   UNL     1      36.193  12.816  23.903  0.00  0.00    +0.000 OA
ATOM      9  H   UNL     1      36.348  13.672  24.348  0.00  0.00    +0.000 HD
ENDBRANCH   6   8
ENDBRANCH   1   6
TORSDOF 3
ENDMDL
MODEL 9
REMARK VINA RESULT:      -2.6     25.101     25.949
REMARK  Name = 2Methylcholine.pdbqt.pdb
REMARK  3 active torsions:
REMARK  status: ('A' for Active; 'I' for Inactive)
REMARK    1  A    between atoms: C_1  and  N_2
REMARK    2  A    between atoms: C_1  and  C_6
REMARK    3  A    between atoms: C_6  and  O_8
REMARK                            x       y       z     vdW  Elec       q    Type
REMARK                         _______ _______ _______ _____ _____    ______ ____
ROOT
ATOM      1  C   UNL     1      44.732  21.262   0.671  0.00  0.00    +0.000 C 
ENDROOT
BRANCH   1   2
ATOM      2  N   UNL     1      45.584  22.052  -0.195  0.00  0.00    +0.000 N 
ATOM      3  C   UNL     1      46.451  21.171  -0.982  0.00  0.00    +0.000 C 
ATOM      4  C   UNL     1      44.763  22.856  -1.105  0.00  0.00    +0.000 C 
ATOM      5  C   UNL     1      46.417  22.946   0.613  0.00  0.00    +0.000 C 
ENDBRANCH   1   2
BRANCH   1   6
ATOM      6  C   UNL     1      43.930  20.490   1.523  0.00  0.00    +0.000 C 
ATOM      7  C   UNL     1      42.459  20.665   1.573  0.00  0.00    +0.000 C 
BRANCH   6   8
ATOM      8  O   UNL     1      44.454  19.542   2.348  0.00  0.00    +0.000 OA
ATOM      9  H   UNL     1      43.982  18.702   2.191  0.00  0.00    +0.000 HD
ENDBRANCH   6   8
ENDBRANCH   1   6
TORSDOF 3
ENDMDL
