MODEL 1
REMARK VINA RESULT:      -8.6      0.000      0.000
REMARK  Name = 3035817_K252a.pdbqt.pdb
REMARK  3 active torsions:
REMARK  status: ('A' for Active; 'I' for Inactive)
REMARK    1  A    between atoms: C_3  and  O_7
REMARK    2  A    between atoms: C_3  and  C_9
REMARK    3  A    between atoms: C_9  and  O_11
REMARK                            x       y       z     vdW  Elec       q    Type
REMARK                         _______ _______ _______ _____ _____    ______ ____
ROOT
ATOM      1  O   UNL     1      52.184   1.769  10.421  0.00  0.00    +0.000 OA
ATOM      2  C   UNL     1      51.192   2.760   9.976  0.00  0.00    +0.000 C 
ATOM      3  C   UNL     1      49.809   2.193  10.518  0.00  0.00    +0.000 C 
ATOM      4  C   UNL     1      51.734   1.377  11.694  0.00  0.00    +0.000 C 
ATOM      5  C   UNL     1      50.319   1.405  11.636  0.00  0.00    +0.000 C 
ATOM      6  C   UNL     1      51.315   2.793   8.417  0.00  0.00    +0.000 C 
ATOM      7  N   UNL     1      51.576   4.047  10.592  0.00  0.00    +0.000 N 
ATOM      8  C   UNL     1      52.230   4.321  11.766  0.00  0.00    +0.000 A 
ATOM      9  C   UNL     1      52.598   3.412  12.758  0.00  0.00    +0.000 A 
ATOM     10  C   UNL     1      52.509   5.651  12.096  0.00  0.00    +0.000 A 
ATOM     11  N   UNL     1      52.328   2.079  12.728  0.00  0.00    +0.000 N 
ATOM     12  C   UNL     1      53.173   3.972  13.904  0.00  0.00    +0.000 A 
ATOM     13  C   UNL     1      52.726   1.712  14.026  0.00  0.00    +0.000 A 
ATOM     14  C   UNL     1      53.268   2.843  14.748  0.00  0.00    +0.000 A 
ATOM     15  C   UNL     1      52.662   0.442  14.622  0.00  0.00    +0.000 A 
ATOM     16  C   UNL     1      53.715   2.629  16.067  0.00  0.00    +0.000 A 
ATOM     17  C   UNL     1      53.645   1.361  16.641  0.00  0.00    +0.000 A 
ATOM     18  C   UNL     1      53.125   0.289  15.929  0.00  0.00    +0.000 A 
ATOM     19  C   UNL     1      53.478   5.306  14.242  0.00  0.00    +0.000 A 
ATOM     20  C   UNL     1      53.104   6.232  13.225  0.00  0.00    +0.000 A 
ATOM     21  C   UNL     1      54.035   6.000  15.378  0.00  0.00    +0.000 C 
ATOM     22  C   UNL     1      53.437   7.588  13.741  0.00  0.00    +0.000 C 
ATOM     23  N   UNL     1      53.959   7.336  14.961  0.00  0.00    +0.000 N 
ATOM     24  H   UNL     1      54.285   8.073  15.570  0.00  0.00    +0.000 HD
ATOM     25  O   UNL     1      54.482   5.640  16.457  0.00  0.00    +0.000 OA
ATOM     26  C   UNL     1      51.919   6.348  11.026  0.00  0.00    +0.000 A 
ATOM     27  C   UNL     1      51.332   5.368  10.140  0.00  0.00    +0.000 A 
ATOM     28  C   UNL     1      51.773   7.714  10.709  0.00  0.00    +0.000 A 
ATOM     29  C   UNL     1      50.619   5.791   9.005  0.00  0.00    +0.000 A 
ATOM     30  C   UNL     1      50.503   7.154   8.734  0.00  0.00    +0.000 A 
ATOM     31  C   UNL     1      51.075   8.102   9.567  0.00  0.00    +0.000 A 
ENDROOT
BRANCH   3  32
ATOM     32  O   UNL     1      48.905   3.188  11.022  0.00  0.00    +0.000 OA
ATOM     33  H   UNL     1      49.061   3.261  11.989  0.00  0.00    +0.000 HD
ENDBRANCH   3  32
BRANCH   3  34
ATOM     34  C   UNL     1      49.112   1.316   9.481  0.00  0.00    +0.000 C 
ATOM     35  O   UNL     1      48.253   1.792   8.734  0.00  0.00    +0.000 OA
BRANCH  34  36
ATOM     36  O   UNL     1      49.526   0.015   9.558  0.00  0.00    +0.000 OA
ATOM     37  C   UNL     1      49.754  -0.669   8.356  0.00  0.00    +0.000 C 
ENDBRANCH  34  36
ENDBRANCH   3  34
TORSDOF 3
ENDMDL
MODEL 2
REMARK VINA RESULT:      -7.8      3.472      7.684
REMARK  Name = 3035817_K252a.pdbqt.pdb
REMARK  3 active torsions:
REMARK  status: ('A' for Active; 'I' for Inactive)
REMARK    1  A    between atoms: C_3  and  O_7
REMARK    2  A    between atoms: C_3  and  C_9
REMARK    3  A    between atoms: C_9  and  O_11
REMARK                            x       y       z     vdW  Elec       q    Type
REMARK                         _______ _______ _______ _____ _____    ______ ____
ROOT
ATOM      1  O   UNL     1      49.355   1.780   9.027  0.00  0.00    +0.000 OA
ATOM      2  C   UNL     1      50.402   2.743   9.404  0.00  0.00    +0.000 C 
ATOM      3  C   UNL     1      51.429   1.882  10.258  0.00  0.00    +0.000 C 
ATOM      4  C   UNL     1      50.056   0.587   8.777  0.00  0.00    +0.000 C 
ATOM      5  C   UNL     1      51.137   0.567   9.692  0.00  0.00    +0.000 C 
ATOM      6  C   UNL     1      49.661   3.859  10.211  0.00  0.00    +0.000 C 
ATOM      7  N   UNL     1      50.977   3.256   8.144  0.00  0.00    +0.000 N 
ATOM      8  C   UNL     1      51.101   2.671   6.909  0.00  0.00    +0.000 A 
ATOM      9  C   UNL     1      50.806   1.351   6.569  0.00  0.00    +0.000 A 
ATOM     10  C   UNL     1      51.656   3.408   5.858  0.00  0.00    +0.000 A 
ATOM     11  N   UNL     1      50.370   0.402   7.441  0.00  0.00    +0.000 N 
ATOM     12  C   UNL     1      51.115   0.985   5.254  0.00  0.00    +0.000 A 
ATOM     13  C   UNL     1      50.440  -0.742   6.626  0.00  0.00    +0.000 A 
ATOM     14  C   UNL     1      50.864  -0.404   5.285  0.00  0.00    +0.000 A 
ATOM     15  C   UNL     1      50.140  -2.069   6.974  0.00  0.00    +0.000 A 
ATOM     16  C   UNL     1      50.978  -1.451   4.348  0.00  0.00    +0.000 A 
ATOM     17  C   UNL     1      50.674  -2.762   4.711  0.00  0.00    +0.000 A 
ATOM     18  C   UNL     1      50.264  -3.062   6.003  0.00  0.00    +0.000 A 
ATOM     19  C   UNL     1      51.656   1.721   4.180  0.00  0.00    +0.000 A 
ATOM     20  C   UNL     1      51.952   3.071   4.530  0.00  0.00    +0.000 A 
ATOM     21  C   UNL     1      52.038   1.458   2.813  0.00  0.00    +0.000 C 
ATOM     22  C   UNL     1      52.557   3.700   3.324  0.00  0.00    +0.000 C 
ATOM     23  N   UNL     1      52.553   2.699   2.417  0.00  0.00    +0.000 N 
ATOM     24  H   UNL     1      52.909   2.821   1.479  0.00  0.00    +0.000 HD
ATOM     25  O   UNL     1      51.979   0.474   2.091  0.00  0.00    +0.000 OA
ATOM     26  C   UNL     1      51.988   4.618   6.494  0.00  0.00    +0.000 A 
ATOM     27  C   UNL     1      51.600   4.502   7.882  0.00  0.00    +0.000 A 
ATOM     28  C   UNL     1      52.615   5.808   6.069  0.00  0.00    +0.000 A 
ATOM     29  C   UNL     1      51.869   5.555   8.774  0.00  0.00    +0.000 A 
ATOM     30  C   UNL     1      52.490   6.712   8.304  0.00  0.00    +0.000 A 
ATOM     31  C   UNL     1      52.852   6.842   6.973  0.00  0.00    +0.000 A 
ENDROOT
BRANCH   3  32
ATOM     32  O   UNL     1      52.812   2.191  10.029  0.00  0.00    +0.000 OA
ATOM     33  H   UNL     1      53.007   3.029  10.503  0.00  0.00    +0.000 HD
ENDBRANCH   3  32
BRANCH   3  34
ATOM     34  C   UNL     1      51.111   1.937  11.750  0.00  0.00    +0.000 C 
ATOM     35  O   UNL     1      51.629   2.795  12.470  0.00  0.00    +0.000 OA
BRANCH  34  36
ATOM     36  O   UNL     1      50.273   0.924  12.127  0.00  0.00    +0.000 OA
ATOM     37  C   UNL     1      50.630   0.165  13.250  0.00  0.00    +0.000 C 
ENDBRANCH  34  36
ENDBRANCH   3  34
TORSDOF 3
ENDMDL
MODEL 3
REMARK VINA RESULT:      -7.2      5.262      9.230
REMARK  Name = 3035817_K252a.pdbqt.pdb
REMARK  3 active torsions:
REMARK  status: ('A' for Active; 'I' for Inactive)
REMARK    1  A    between atoms: C_3  and  O_7
REMARK    2  A    between atoms: C_3  and  C_9
REMARK    3  A    between atoms: C_9  and  O_11
REMARK                            x       y       z     vdW  Elec       q    Type
REMARK                         _______ _______ _______ _____ _____    ______ ____
ROOT
ATOM      1  O   UNL     1      51.349   2.171   2.606  0.00  0.00    +0.000 OA
ATOM      2  C   UNL     1      51.811   0.774   2.650  0.00  0.00    +0.000 C 
ATOM      3  C   UNL     1      53.396   0.890   2.619  0.00  0.00    +0.000 C 
ATOM      4  C   UNL     1      52.282   2.868   3.394  0.00  0.00    +0.000 C 
ATOM      5  C   UNL     1      53.529   2.230   3.185  0.00  0.00    +0.000 C 
ATOM      6  C   UNL     1      51.184   0.095   1.388  0.00  0.00    +0.000 C 
ATOM      7  N   UNL     1      51.293   0.198   3.908  0.00  0.00    +0.000 N 
ATOM      8  C   UNL     1      51.006   0.785   5.114  0.00  0.00    +0.000 A 
ATOM      9  C   UNL     1      51.260   2.105   5.490  0.00  0.00    +0.000 A 
ATOM     10  C   UNL     1      50.477   0.002   6.145  0.00  0.00    +0.000 A 
ATOM     11  N   UNL     1      51.880   3.030   4.709  0.00  0.00    +0.000 N 
ATOM     12  C   UNL     1      50.953   2.421   6.818  0.00  0.00    +0.000 A 
ATOM     13  C   UNL     1      52.049   4.072   5.638  0.00  0.00    +0.000 A 
ATOM     14  C   UNL     1      51.468   3.732   6.918  0.00  0.00    +0.000 A 
ATOM     15  C   UNL     1      52.669   5.316   5.436  0.00  0.00    +0.000 A 
ATOM     16  C   UNL     1      51.556   4.683   7.954  0.00  0.00    +0.000 A 
ATOM     17  C   UNL     1      52.173   5.914   7.734  0.00  0.00    +0.000 A 
ATOM     18  C   UNL     1      52.720   6.221   6.496  0.00  0.00    +0.000 A 
ATOM     19  C   UNL     1      50.402   1.649   7.861  0.00  0.00    +0.000 A 
ATOM     20  C   UNL     1      50.140   0.303   7.472  0.00  0.00    +0.000 A 
ATOM     21  C   UNL     1      50.068   1.847   9.252  0.00  0.00    +0.000 C 
ATOM     22  C   UNL     1      49.615  -0.394   8.678  0.00  0.00    +0.000 C 
ATOM     23  N   UNL     1      49.615   0.574   9.620  0.00  0.00    +0.000 N 
ATOM     24  H   UNL     1      49.305   0.404  10.567  0.00  0.00    +0.000 HD
ATOM     25  O   UNL     1      50.121   2.806  10.007  0.00  0.00    +0.000 OA
ATOM     26  C   UNL     1      50.459  -1.277   5.560  0.00  0.00    +0.000 A 
ATOM     27  C   UNL     1      50.983  -1.150   4.219  0.00  0.00    +0.000 A 
ATOM     28  C   UNL     1      50.092  -2.558   6.020  0.00  0.00    +0.000 A 
ATOM     29  C   UNL     1      51.134  -2.294   3.416  0.00  0.00    +0.000 A 
ATOM     30  C   UNL     1      50.756  -3.540   3.916  0.00  0.00    +0.000 A 
ATOM     31  C   UNL     1      50.237  -3.672   5.194  0.00  0.00    +0.000 A 
ENDROOT
BRANCH   3  32
ATOM     32  O   UNL     1      54.086  -0.043   3.465  0.00  0.00    +0.000 OA
ATOM     33  H   UNL     1      54.972   0.335   3.655  0.00  0.00    +0.000 HD
ENDBRANCH   3  32
BRANCH   3  34
ATOM     34  C   UNL     1      53.942   0.822   1.195  0.00  0.00    +0.000 C 
ATOM     35  O   UNL     1      53.977   1.834   0.489  0.00  0.00    +0.000 OA
BRANCH  34  36
ATOM     36  O   UNL     1      54.298  -0.452   0.849  0.00  0.00    +0.000 OA
ATOM     37  C   UNL     1      54.401  -0.753  -0.516  0.00  0.00    +0.000 C 
ENDBRANCH  34  36
ENDBRANCH   3  34
TORSDOF 3
ENDMDL
MODEL 4
REMARK VINA RESULT:      -6.6     22.767     24.583
REMARK  Name = 3035817_K252a.pdbqt.pdb
REMARK  3 active torsions:
REMARK  status: ('A' for Active; 'I' for Inactive)
REMARK    1  A    between atoms: C_3  and  O_7
REMARK    2  A    between atoms: C_3  and  C_9
REMARK    3  A    between atoms: C_9  and  O_11
REMARK                            x       y       z     vdW  Elec       q    Type
REMARK                         _______ _______ _______ _____ _____    ______ ____
ROOT
ATOM      1  O   UNL     1      36.858   2.876  -9.509  0.00  0.00    +0.000 OA
ATOM      2  C   UNL     1      36.176   3.827  -8.617  0.00  0.00    +0.000 C 
ATOM      3  C   UNL     1      36.029   3.035  -7.247  0.00  0.00    +0.000 C 
ATOM      4  C   UNL     1      37.776   2.216  -8.673  0.00  0.00    +0.000 C 
ATOM      5  C   UNL     1      37.150   2.112  -7.407  0.00  0.00    +0.000 C 
ATOM      6  C   UNL     1      34.821   4.155  -9.327  0.00  0.00    +0.000 C 
ATOM      7  N   UNL     1      37.051   5.012  -8.515  0.00  0.00    +0.000 N 
ATOM      8  C   UNL     1      38.414   5.133  -8.609  0.00  0.00    +0.000 A 
ATOM      9  C   UNL     1      39.347   4.101  -8.709  0.00  0.00    +0.000 A 
ATOM     10  C   UNL     1      38.995   6.403  -8.515  0.00  0.00    +0.000 A 
ATOM     11  N   UNL     1      39.043   2.774  -8.696  0.00  0.00    +0.000 N 
ATOM     12  C   UNL     1      40.689   4.498  -8.695  0.00  0.00    +0.000 A 
ATOM     13  C   UNL     1      40.332   2.220  -8.615  0.00  0.00    +0.000 A 
ATOM     14  C   UNL     1      41.348   3.250  -8.641  0.00  0.00    +0.000 A 
ATOM     15  C   UNL     1      40.685   0.863  -8.535  0.00  0.00    +0.000 A 
ATOM     16  C   UNL     1      42.696   2.846  -8.571  0.00  0.00    +0.000 A 
ATOM     17  C   UNL     1      43.027   1.494  -8.495  0.00  0.00    +0.000 A 
ATOM     18  C   UNL     1      42.036   0.523  -8.475  0.00  0.00    +0.000 A 
ATOM     19  C   UNL     1      41.287   5.772  -8.620  0.00  0.00    +0.000 A 
ATOM     20  C   UNL     1      40.331   6.825  -8.522  0.00  0.00    +0.000 A 
ATOM     21  C   UNL     1      42.629   6.301  -8.572  0.00  0.00    +0.000 C 
ATOM     22  C   UNL     1      41.104   8.092  -8.401  0.00  0.00    +0.000 C 
ATOM     23  N   UNL     1      42.389   7.675  -8.443  0.00  0.00    +0.000 N 
ATOM     24  H   UNL     1      43.166   8.319  -8.383  0.00  0.00    +0.000 HD
ATOM     25  O   UNL     1      43.741   5.797  -8.620  0.00  0.00    +0.000 OA
ATOM     26  C   UNL     1      37.874   7.219  -8.279  0.00  0.00    +0.000 A 
ATOM     27  C   UNL     1      36.710   6.363  -8.251  0.00  0.00    +0.000 A 
ATOM     28  C   UNL     1      37.700   8.598  -8.043  0.00  0.00    +0.000 A 
ATOM     29  C   UNL     1      35.445   6.911  -7.973  0.00  0.00    +0.000 A 
ATOM     30  C   UNL     1      35.325   8.282  -7.748  0.00  0.00    +0.000 A 
ATOM     31  C   UNL     1      36.431   9.115  -7.788  0.00  0.00    +0.000 A 
ENDROOT
BRANCH   3  32
ATOM     32  O   UNL     1      36.241   3.826  -6.068  0.00  0.00    +0.000 OA
ATOM     33  H   UNL     1      36.193   3.219  -5.296  0.00  0.00    +0.000 HD
ENDBRANCH   3  32
BRANCH   3  34
ATOM     34  C   UNL     1      34.697   2.295  -7.160  0.00  0.00    +0.000 C 
ATOM     35  O   UNL     1      33.739   2.798  -6.567  0.00  0.00    +0.000 OA
BRANCH  34  36
ATOM     36  O   UNL     1      34.763   1.063  -7.750  0.00  0.00    +0.000 OA
ATOM     37  C   UNL     1      33.792   0.747  -8.710  0.00  0.00    +0.000 C 
ENDBRANCH  34  36
ENDBRANCH   3  34
TORSDOF 3
ENDMDL
MODEL 5
REMARK VINA RESULT:      -6.2     23.122     24.777
REMARK  Name = 3035817_K252a.pdbqt.pdb
REMARK  3 active torsions:
REMARK  status: ('A' for Active; 'I' for Inactive)
REMARK    1  A    between atoms: C_3  and  O_7
REMARK    2  A    between atoms: C_3  and  C_9
REMARK    3  A    between atoms: C_9  and  O_11
REMARK                            x       y       z     vdW  Elec       q    Type
REMARK                         _______ _______ _______ _____ _____    ______ ____
ROOT
ATOM      1  O   UNL     1      41.630   6.218 -11.184  0.00  0.00    +0.000 OA
ATOM      2  C   UNL     1      42.628   5.353 -10.534  0.00  0.00    +0.000 C 
ATOM      3  C   UNL     1      43.454   6.344  -9.607  0.00  0.00    +0.000 C 
ATOM      4  C   UNL     1      41.264   7.135 -10.182  0.00  0.00    +0.000 C 
ATOM      5  C   UNL     1      42.433   7.371  -9.419  0.00  0.00    +0.000 C 
ATOM      6  C   UNL     1      43.449   4.722 -11.706  0.00  0.00    +0.000 C 
ATOM      7  N   UNL     1      41.872   4.336  -9.774  0.00  0.00    +0.000 N 
ATOM      8  C   UNL     1      40.635   4.390  -9.185  0.00  0.00    +0.000 A 
ATOM      9  C   UNL     1      39.810   5.509  -9.059  0.00  0.00    +0.000 A 
ATOM     10  C   UNL     1      40.130   3.250  -8.552  0.00  0.00    +0.000 A 
ATOM     11  N   UNL     1      40.129   6.762  -9.483  0.00  0.00    +0.000 N 
ATOM     12  C   UNL     1      38.634   5.310  -8.327  0.00  0.00    +0.000 A 
ATOM     13  C   UNL     1      39.065   7.494  -8.928  0.00  0.00    +0.000 A 
ATOM     14  C   UNL     1      38.130   6.626  -8.245  0.00  0.00    +0.000 A 
ATOM     15  C   UNL     1      38.845   8.880  -8.993  0.00  0.00    +0.000 A 
ATOM     16  C   UNL     1      37.004   7.219  -7.639  0.00  0.00    +0.000 A 
ATOM     17  C   UNL     1      36.802   8.596  -7.716  0.00  0.00    +0.000 A 
ATOM     18  C   UNL     1      37.710   9.409  -8.380  0.00  0.00    +0.000 A 
ATOM     19  C   UNL     1      38.104   4.163  -7.701  0.00  0.00    +0.000 A 
ATOM     20  C   UNL     1      38.947   3.022  -7.836  0.00  0.00    +0.000 A 
ATOM     21  C   UNL     1      36.939   3.841  -6.911  0.00  0.00    +0.000 C 
ATOM     22  C   UNL     1      38.287   1.915  -7.089  0.00  0.00    +0.000 C 
ATOM     23  N   UNL     1      37.162   2.491  -6.612  0.00  0.00    +0.000 N 
ATOM     24  H   UNL     1      36.492   1.981  -6.053  0.00  0.00    +0.000 HD
ATOM     25  O   UNL     1      35.965   4.478  -6.539  0.00  0.00    +0.000 OA
ATOM     26  C   UNL     1      41.192   2.340  -8.699  0.00  0.00    +0.000 A 
ATOM     27  C   UNL     1      42.251   3.019  -9.412  0.00  0.00    +0.000 A 
ATOM     28  C   UNL     1      41.411   1.013  -8.276  0.00  0.00    +0.000 A 
ATOM     29  C   UNL     1      43.469   2.359  -9.649  0.00  0.00    +0.000 A 
ATOM     30  C   UNL     1      43.635   1.045  -9.212  0.00  0.00    +0.000 A 
ATOM     31  C   UNL     1      42.622   0.378  -8.542  0.00  0.00    +0.000 A 
ENDROOT
BRANCH   3  32
ATOM     32  O   UNL     1      43.819   5.809  -8.326  0.00  0.00    +0.000 OA
ATOM     33  H   UNL     1      43.353   4.950  -8.225  0.00  0.00    +0.000 HD
ENDBRANCH   3  32
BRANCH   3  34
ATOM     34  C   UNL     1      44.684   6.897 -10.323  0.00  0.00    +0.000 C 
ATOM     35  O   UNL     1      45.780   6.343 -10.203  0.00  0.00    +0.000 OA
BRANCH  34  36
ATOM     36  O   UNL     1      44.397   8.043 -11.011  0.00  0.00    +0.000 OA
ATOM     37  C   UNL     1      44.778   8.108 -12.358  0.00  0.00    +0.000 C 
ENDBRANCH  34  36
ENDBRANCH   3  34
TORSDOF 3
ENDMDL
MODEL 6
REMARK VINA RESULT:      -6.1     12.501     15.427
REMARK  Name = 3035817_K252a.pdbqt.pdb
REMARK  3 active torsions:
REMARK  status: ('A' for Active; 'I' for Inactive)
REMARK    1  A    between atoms: C_3  and  O_7
REMARK    2  A    between atoms: C_3  and  C_9
REMARK    3  A    between atoms: C_9  and  O_11
REMARK                            x       y       z     vdW  Elec       q    Type
REMARK                         _______ _______ _______ _____ _____    ______ ____
ROOT
ATOM      1  O   UNL     1      54.163  17.660  13.077  0.00  0.00    +0.000 OA
ATOM      2  C   UNL     1      55.424  17.110  12.555  0.00  0.00    +0.000 C 
ATOM      3  C   UNL     1      55.170  15.542  12.502  0.00  0.00    +0.000 C 
ATOM      4  C   UNL     1      53.167  16.863  12.484  0.00  0.00    +0.000 C 
ATOM      5  C   UNL     1      53.714  15.561  12.385  0.00  0.00    +0.000 C 
ATOM      6  C   UNL     1      56.521  17.556  13.577  0.00  0.00    +0.000 C 
ATOM      7  N   UNL     1      55.628  17.713  11.222  0.00  0.00    +0.000 N 
ATOM      8  C   UNL     1      54.726  18.162  10.291  0.00  0.00    +0.000 A 
ATOM      9  C   UNL     1      53.336  18.039  10.337  0.00  0.00    +0.000 A 
ATOM     10  C   UNL     1      55.196  18.739   9.107  0.00  0.00    +0.000 A 
ATOM     11  N   UNL     1      52.644  17.408  11.324  0.00  0.00    +0.000 N 
ATOM     12  C   UNL     1      52.654  18.501   9.207  0.00  0.00    +0.000 A 
ATOM     13  C   UNL     1      51.354  17.407  10.766  0.00  0.00    +0.000 A 
ATOM     14  C   UNL     1      51.333  18.091   9.492  0.00  0.00    +0.000 A 
ATOM     15  C   UNL     1      50.180  16.857  11.307  0.00  0.00    +0.000 A 
ATOM     16  C   UNL     1      50.103  18.175   8.810  0.00  0.00    +0.000 A 
ATOM     17  C   UNL     1      48.948  17.625   9.364  0.00  0.00    +0.000 A 
ATOM     18  C   UNL     1      48.990  16.977  10.590  0.00  0.00    +0.000 A 
ATOM     19  C   UNL     1      53.113  19.102   8.017  0.00  0.00    +0.000 A 
ATOM     20  C   UNL     1      54.532  19.229   7.975  0.00  0.00    +0.000 A 
ATOM     21  C   UNL     1      52.525  19.588   6.791  0.00  0.00    +0.000 C 
ATOM     22  C   UNL     1      54.867  19.825   6.652  0.00  0.00    +0.000 C 
ATOM     23  N   UNL     1      53.658  19.988   6.071  0.00  0.00    +0.000 N 
ATOM     24  H   UNL     1      53.555  20.381   5.146  0.00  0.00    +0.000 HD
ATOM     25  O   UNL     1      51.378  19.680   6.379  0.00  0.00    +0.000 OA
ATOM     26  C   UNL     1      56.589  18.608   9.253  0.00  0.00    +0.000 A 
ATOM     27  C   UNL     1      56.836  17.960  10.522  0.00  0.00    +0.000 A 
ATOM     28  C   UNL     1      57.693  18.931   8.438  0.00  0.00    +0.000 A 
ATOM     29  C   UNL     1      58.152  17.649  10.904  0.00  0.00    +0.000 A 
ATOM     30  C   UNL     1      59.211  17.990  10.062  0.00  0.00    +0.000 A 
ATOM     31  C   UNL     1      58.989  18.626   8.852  0.00  0.00    +0.000 A 
ENDROOT
BRANCH   3  32
ATOM     32  O   UNL     1      55.721  14.880  11.354  0.00  0.00    +0.000 OA
ATOM     33  H   UNL     1      54.986  14.402  10.911  0.00  0.00    +0.000 HD
ENDBRANCH   3  32
BRANCH   3  34
ATOM     34  C   UNL     1      55.624  14.851  13.785  0.00  0.00    +0.000 C 
ATOM     35  O   UNL     1      56.744  14.339  13.858  0.00  0.00    +0.000 OA
BRANCH  34  36
ATOM     36  O   UNL     1      54.639  14.847  14.734  0.00  0.00    +0.000 OA
ATOM     37  C   UNL     1      54.956  15.345  16.005  0.00  0.00    +0.000 C 
ENDBRANCH  34  36
ENDBRANCH   3  34
TORSDOF 3
ENDMDL
MODEL 7
REMARK VINA RESULT:      -5.9     13.631     18.005
REMARK  Name = 3035817_K252a.pdbqt.pdb
REMARK  3 active torsions:
REMARK  status: ('A' for Active; 'I' for Inactive)
REMARK    1  A    between atoms: C_3  and  O_7
REMARK    2  A    between atoms: C_3  and  C_9
REMARK    3  A    between atoms: C_9  and  O_11
REMARK                            x       y       z     vdW  Elec       q    Type
REMARK                         _______ _______ _______ _____ _____    ______ ____
ROOT
ATOM      1  O   UNL     1      53.099  21.114  14.221  0.00  0.00    +0.000 OA
ATOM      2  C   UNL     1      51.983  20.317  14.754  0.00  0.00    +0.000 C 
ATOM      3  C   UNL     1      50.856  21.393  15.070  0.00  0.00    +0.000 C 
ATOM      4  C   UNL     1      52.475  22.113  13.453  0.00  0.00    +0.000 C 
ATOM      5  C   UNL     1      51.266  22.424  14.121  0.00  0.00    +0.000 C 
ATOM      6  C   UNL     1      52.561  19.591  16.013  0.00  0.00    +0.000 C 
ATOM      7  N   UNL     1      51.599  19.366  13.691  0.00  0.00    +0.000 N 
ATOM      8  C   UNL     1      51.684  19.462  12.325  0.00  0.00    +0.000 A 
ATOM      9  C   UNL     1      52.060  20.581  11.581  0.00  0.00    +0.000 A 
ATOM     10  C   UNL     1      51.281  18.378  11.539  0.00  0.00    +0.000 A 
ATOM     11  N   UNL     1      52.378  21.794  12.109  0.00  0.00    +0.000 N 
ATOM     12  C   UNL     1      51.970  20.438  10.192  0.00  0.00    +0.000 A 
ATOM     13  C   UNL     1      52.465  22.564  10.936  0.00  0.00    +0.000 A 
ATOM     14  C   UNL     1      52.247  21.753   9.758  0.00  0.00    +0.000 A 
ATOM     15  C   UNL     1      52.739  23.937  10.824  0.00  0.00    +0.000 A 
ATOM     16  C   UNL     1      52.306  22.388   8.502  0.00  0.00    +0.000 A 
ATOM     17  C   UNL     1      52.582  23.751   8.410  0.00  0.00    +0.000 A 
ATOM     18  C   UNL     1      52.792  24.510   9.553  0.00  0.00    +0.000 A 
ATOM     19  C   UNL     1      51.585  19.347   9.387  0.00  0.00    +0.000 A 
ATOM     20  C   UNL     1      51.205  18.205  10.150  0.00  0.00    +0.000 A 
ATOM     21  C   UNL     1      51.427  19.088   7.975  0.00  0.00    +0.000 C 
ATOM     22  C   UNL     1      50.780  17.163   9.174  0.00  0.00    +0.000 C 
ATOM     23  N   UNL     1      50.950  17.770   7.979  0.00  0.00    +0.000 N 
ATOM     24  H   UNL     1      50.742  17.307   7.106  0.00  0.00    +0.000 HD
ATOM     25  O   UNL     1      51.622  19.747   6.965  0.00  0.00    +0.000 OA
ATOM     26  C   UNL     1      50.825  17.467  12.508  0.00  0.00    +0.000 A 
ATOM     27  C   UNL     1      50.994  18.088  13.803  0.00  0.00    +0.000 A 
ATOM     28  C   UNL     1      50.243  16.184  12.450  0.00  0.00    +0.000 A 
ATOM     29  C   UNL     1      50.563  17.419  14.961  0.00  0.00    +0.000 A 
ATOM     30  C   UNL     1      49.995  16.150  14.851  0.00  0.00    +0.000 A 
ATOM     31  C   UNL     1      49.842  15.537  13.617  0.00  0.00    +0.000 A 
ENDROOT
BRANCH   3  32
ATOM     32  O   UNL     1      49.519  20.975  14.757  0.00  0.00    +0.000 OA
ATOM     33  H   UNL     1      49.568  20.420  13.948  0.00  0.00    +0.000 HD
ENDBRANCH   3  32
BRANCH   3  34
ATOM     34  C   UNL     1      50.936  21.889  16.512  0.00  0.00    +0.000 C 
ATOM     35  O   UNL     1      51.796  22.708  16.845  0.00  0.00    +0.000 OA
BRANCH  34  36
ATOM     36  O   UNL     1      50.007  21.279  17.309  0.00  0.00    +0.000 OA
ATOM     37  C   UNL     1      50.278  21.199  18.682  0.00  0.00    +0.000 C 
ENDBRANCH  34  36
ENDBRANCH   3  34
TORSDOF 3
ENDMDL
MODEL 8
REMARK VINA RESULT:      -5.8     22.386     24.780
REMARK  Name = 3035817_K252a.pdbqt.pdb
REMARK  3 active torsions:
REMARK  status: ('A' for Active; 'I' for Inactive)
REMARK    1  A    between atoms: C_3  and  O_7
REMARK    2  A    between atoms: C_3  and  C_9
REMARK    3  A    between atoms: C_9  and  O_11
REMARK                            x       y       z     vdW  Elec       q    Type
REMARK                         _______ _______ _______ _____ _____    ______ ____
ROOT
ATOM      1  O   UNL     1      28.670   3.670  19.762  0.00  0.00    +0.000 OA
ATOM      2  C   UNL     1      29.648   2.938  20.583  0.00  0.00    +0.000 C 
ATOM      3  C   UNL     1      28.762   2.214  21.686  0.00  0.00    +0.000 C 
ATOM      4  C   UNL     1      27.560   2.809  19.697  0.00  0.00    +0.000 C 
ATOM      5  C   UNL     1      27.504   2.144  20.946  0.00  0.00    +0.000 C 
ATOM      6  C   UNL     1      30.615   4.033  21.142  0.00  0.00    +0.000 C 
ATOM      7  N   UNL     1      30.337   1.996  19.677  0.00  0.00    +0.000 N 
ATOM      8  C   UNL     1      29.906   1.369  18.536  0.00  0.00    +0.000 A 
ATOM      9  C   UNL     1      28.617   1.382  18.002  0.00  0.00    +0.000 A 
ATOM     10  C   UNL     1      30.792   0.545  17.835  0.00  0.00    +0.000 A 
ATOM     11  N   UNL     1      27.549   2.010  18.566  0.00  0.00    +0.000 N 
ATOM     12  C   UNL     1      28.424   0.578  16.874  0.00  0.00    +0.000 A 
ATOM     13  C   UNL     1      26.513   1.530  17.745  0.00  0.00    +0.000 A 
ATOM     14  C   UNL     1      27.027   0.680  16.694  0.00  0.00    +0.000 A 
ATOM     15  C   UNL     1      25.138   1.800  17.845  0.00  0.00    +0.000 A 
ATOM     16  C   UNL     1      26.104   0.125  15.786  0.00  0.00    +0.000 A 
ATOM     17  C   UNL     1      24.743   0.406  15.900  0.00  0.00    +0.000 A 
ATOM     18  C   UNL     1      24.272   1.228  16.914  0.00  0.00    +0.000 A 
ATOM     19  C   UNL     1      29.311  -0.242  16.147  0.00  0.00    +0.000 A 
ATOM     20  C   UNL     1      30.628  -0.250  16.692  0.00  0.00    +0.000 A 
ATOM     21  C   UNL     1      29.230  -1.123  15.006  0.00  0.00    +0.000 C 
ATOM     22  C   UNL     1      31.428  -1.188  15.858  0.00  0.00    +0.000 C 
ATOM     23  N   UNL     1      30.539  -1.619  14.936  0.00  0.00    +0.000 N 
ATOM     24  H   UNL     1      30.790  -2.280  14.214  0.00  0.00    +0.000 HD
ATOM     25  O   UNL     1      28.334  -1.434  14.237  0.00  0.00    +0.000 OA
ATOM     26  C   UNL     1      31.940   0.594  18.646  0.00  0.00    +0.000 A 
ATOM     27  C   UNL     1      31.642   1.450  19.772  0.00  0.00    +0.000 A 
ATOM     28  C   UNL     1      33.208  -0.021  18.586  0.00  0.00    +0.000 A 
ATOM     29  C   UNL     1      32.601   1.635  20.783  0.00  0.00    +0.000 A 
ATOM     30  C   UNL     1      33.841   1.006  20.677  0.00  0.00    +0.000 A 
ATOM     31  C   UNL     1      34.145   0.196  19.595  0.00  0.00    +0.000 A 
ENDROOT
BRANCH   3  32
ATOM     32  O   UNL     1      29.182   0.883  22.019  0.00  0.00    +0.000 OA
ATOM     33  H   UNL     1      29.483   0.455  21.187  0.00  0.00    +0.000 HD
ENDBRANCH   3  32
BRANCH   3  34
ATOM     34  C   UNL     1      28.626   3.061  22.949  0.00  0.00    +0.000 C 
ATOM     35  O   UNL     1      29.395   2.896  23.899  0.00  0.00    +0.000 OA
BRANCH  34  36
ATOM     36  O   UNL     1      27.562   3.917  22.872  0.00  0.00    +0.000 OA
ATOM     37  C   UNL     1      27.783   5.263  23.191  0.00  0.00    +0.000 C 
ENDBRANCH  34  36
ENDBRANCH   3  34
TORSDOF 3
ENDMDL
MODEL 9
REMARK VINA RESULT:      -5.8     24.565     25.405
REMARK  Name = 3035817_K252a.pdbqt.pdb
REMARK  3 active torsions:
REMARK  status: ('A' for Active; 'I' for Inactive)
REMARK    1  A    between atoms: C_3  and  O_7
REMARK    2  A    between atoms: C_3  and  C_9
REMARK    3  A    between atoms: C_9  and  O_11
REMARK                            x       y       z     vdW  Elec       q    Type
REMARK                         _______ _______ _______ _____ _____    ______ ____
ROOT
ATOM      1  O   UNL     1      33.946  19.271  -0.025  0.00  0.00    +0.000 OA
ATOM      2  C   UNL     1      34.327  19.538   1.371  0.00  0.00    +0.000 C 
ATOM      3  C   UNL     1      34.419  18.094   2.029  0.00  0.00    +0.000 C 
ATOM      4  C   UNL     1      34.652  18.102  -0.359  0.00  0.00    +0.000 C 
ATOM      5  C   UNL     1      34.699  17.321   0.822  0.00  0.00    +0.000 C 
ATOM      6  C   UNL     1      33.185  20.441   1.942  0.00  0.00    +0.000 C 
ATOM      7  N   UNL     1      35.624  20.243   1.326  0.00  0.00    +0.000 N 
ATOM      8  C   UNL     1      36.647  20.187   0.414  0.00  0.00    +0.000 A 
ATOM      9  C   UNL     1      36.759  19.321  -0.674  0.00  0.00    +0.000 A 
ATOM     10  C   UNL     1      37.767  21.006   0.593  0.00  0.00    +0.000 A 
ATOM     11  N   UNL     1      35.860  18.348  -0.989  0.00  0.00    +0.000 N 
ATOM     12  C   UNL     1      37.955  19.409  -1.394  0.00  0.00    +0.000 A 
ATOM     13  C   UNL     1      36.560  17.679  -2.008  0.00  0.00    +0.000 A 
ATOM     14  C   UNL     1      37.824  18.325  -2.288  0.00  0.00    +0.000 A 
ATOM     15  C   UNL     1      36.158  16.541  -2.727  0.00  0.00    +0.000 A 
ATOM     16  C   UNL     1      38.639  17.767  -3.294  0.00  0.00    +0.000 A 
ATOM     17  C   UNL     1      38.222  16.639  -3.998  0.00  0.00    +0.000 A 
ATOM     18  C   UNL     1      37.003  16.038  -3.716  0.00  0.00    +0.000 A 
ATOM     19  C   UNL     1      39.082  20.242  -1.237  0.00  0.00    +0.000 A 
ATOM     20  C   UNL     1      38.963  21.128  -0.127  0.00  0.00    +0.000 A 
ATOM     21  C   UNL     1      40.362  20.409  -1.883  0.00  0.00    +0.000 C 
ATOM     22  C   UNL     1      40.236  21.898  -0.059  0.00  0.00    +0.000 C 
ATOM     23  N   UNL     1      40.948  21.412  -1.099  0.00  0.00    +0.000 N 
ATOM     24  H   UNL     1      41.876  21.746  -1.318  0.00  0.00    +0.000 HD
ATOM     25  O   UNL     1      40.900  19.886  -2.847  0.00  0.00    +0.000 OA
ATOM     26  C   UNL     1      37.466  21.650   1.807  0.00  0.00    +0.000 A 
ATOM     27  C   UNL     1      36.183  21.157   2.255  0.00  0.00    +0.000 A 
ATOM     28  C   UNL     1      38.150  22.578   2.618  0.00  0.00    +0.000 A 
ATOM     29  C   UNL     1      35.658  21.593   3.484  0.00  0.00    +0.000 A 
ATOM     30  C   UNL     1      36.372  22.514   4.250  0.00  0.00    +0.000 A 
ATOM     31  C   UNL     1      37.596  23.005   3.823  0.00  0.00    +0.000 A 
ENDROOT
BRANCH   3  32
ATOM     32  O   UNL     1      35.503  17.922   2.954  0.00  0.00    +0.000 OA
ATOM     33  H   UNL     1      35.823  18.818   3.200  0.00  0.00    +0.000 HD
ENDBRANCH   3  32
BRANCH   3  34
ATOM     34  C   UNL     1      33.098  17.679   2.672  0.00  0.00    +0.000 C 
ATOM     35  O   UNL     1      32.874  17.927   3.859  0.00  0.00    +0.000 OA
BRANCH  34  36
ATOM     36  O   UNL     1      32.303  16.994   1.795  0.00  0.00    +0.000 OA
ATOM     37  C   UNL     1      31.392  16.071   2.326  0.00  0.00    +0.000 C 
ENDBRANCH  34  36
ENDBRANCH   3  34
TORSDOF 3
ENDMDL
