MODEL 1
REMARK VINA RESULT:      -5.7      0.000      0.000
REMARK  Name = 3136_Dimethoxy.pdbqt.pdb
REMARK  2 active torsions:
REMARK  status: ('A' for Active; 'I' for Inactive)
REMARK    1  A    between atoms: C_7  and  O_13
REMARK    2  A    between atoms: C_8  and  O_15
REMARK                            x       y       z     vdW  Elec       q    Type
REMARK                         _______ _______ _______ _____ _____    ______ ____
ROOT
ATOM      1  O   UNL     1      42.919  -0.915  17.055  0.00  0.00    +0.000 OA
ATOM      2  O   UNL     1      41.509  -1.763  11.986  0.00  0.00    +0.000 OA
ATOM      3  C   UNL     1      42.902  -2.381  15.233  0.00  0.00    +0.000 A 
ATOM      4  C   UNL     1      42.513  -2.611  13.921  0.00  0.00    +0.000 A 
ATOM      5  C   UNL     1      42.620  -1.096  15.882  0.00  0.00    +0.000 C 
ATOM      6  C   UNL     1      41.805  -1.577  13.158  0.00  0.00    +0.000 C 
ATOM      7  C   UNL     1      41.948  -0.043  15.083  0.00  0.00    +0.000 C 
ATOM      8  C   UNL     1      41.482  -0.302  13.844  0.00  0.00    +0.000 C 
ATOM      9  C   UNL     1      43.569  -3.375  15.948  0.00  0.00    +0.000 A 
ATOM     10  C   UNL     1      42.792  -3.835  13.313  0.00  0.00    +0.000 A 
ATOM     11  C   UNL     1      43.848  -4.599  15.343  0.00  0.00    +0.000 A 
ATOM     12  C   UNL     1      43.460  -4.829  14.025  0.00  0.00    +0.000 A 
ENDROOT
BRANCH   7  13
ATOM     13  O   UNL     1      41.753   1.160  15.737  0.00  0.00    +0.000 OA
ATOM     14  C   UNL     1      40.568   1.102  16.493  0.00  0.00    +0.000 C 
ENDBRANCH   7  13
BRANCH   8  15
ATOM     15  O   UNL     1      40.770   0.612  13.088  0.00  0.00    +0.000 OA
ATOM     16  C   UNL     1      39.390   0.368  13.225  0.00  0.00    +0.000 C 
ENDBRANCH   8  15
TORSDOF 2
ENDMDL
MODEL 2
REMARK VINA RESULT:      -5.6      1.785      3.856
REMARK  Name = 3136_Dimethoxy.pdbqt.pdb
REMARK  2 active torsions:
REMARK  status: ('A' for Active; 'I' for Inactive)
REMARK    1  A    between atoms: C_7  and  O_13
REMARK    2  A    between atoms: C_8  and  O_15
REMARK                            x       y       z     vdW  Elec       q    Type
REMARK                         _______ _______ _______ _____ _____    ______ ____
ROOT
ATOM      1  O   UNL     1      42.397   0.690  15.113  0.00  0.00    +0.000 OA
ATOM      2  O   UNL     1      42.917  -4.533  16.035  0.00  0.00    +0.000 OA
ATOM      3  C   UNL     1      42.292  -1.483  14.255  0.00  0.00    +0.000 A 
ATOM      4  C   UNL     1      42.452  -2.841  14.489  0.00  0.00    +0.000 A 
ATOM      5  C   UNL     1      42.489  -0.510  15.335  0.00  0.00    +0.000 C 
ATOM      6  C   UNL     1      42.828  -3.333  15.819  0.00  0.00    +0.000 C 
ATOM      7  C   UNL     1      42.820  -1.024  16.687  0.00  0.00    +0.000 C 
ATOM      8  C   UNL     1      43.073  -2.334  16.888  0.00  0.00    +0.000 C 
ATOM      9  C   UNL     1      41.941  -1.030  12.984  0.00  0.00    +0.000 A 
ATOM     10  C   UNL     1      42.257  -3.757  13.454  0.00  0.00    +0.000 A 
ATOM     11  C   UNL     1      41.747  -1.942  11.949  0.00  0.00    +0.000 A 
ATOM     12  C   UNL     1      41.904  -3.306  12.184  0.00  0.00    +0.000 A 
ENDROOT
BRANCH   7  13
ATOM     13  O   UNL     1      42.945  -0.061  17.671  0.00  0.00    +0.000 OA
ATOM     14  C   UNL     1      41.728   0.066  18.366  0.00  0.00    +0.000 C 
ENDBRANCH   7  13
BRANCH   8  15
ATOM     15  O   UNL     1      43.472  -2.857  18.105  0.00  0.00    +0.000 OA
ATOM     16  C   UNL     1      44.877  -2.921  18.154  0.00  0.00    +0.000 C 
ENDBRANCH   8  15
TORSDOF 2
ENDMDL
MODEL 3
REMARK VINA RESULT:      -5.4     19.818     22.398
REMARK  Name = 3136_Dimethoxy.pdbqt.pdb
REMARK  2 active torsions:
REMARK  status: ('A' for Active; 'I' for Inactive)
REMARK    1  A    between atoms: C_7  and  O_13
REMARK    2  A    between atoms: C_8  and  O_15
REMARK                            x       y       z     vdW  Elec       q    Type
REMARK                         _______ _______ _______ _____ _____    ______ ____
ROOT
ATOM      1  O   UNL     1      37.716  20.102  18.378  0.00  0.00    +0.000 OA
ATOM      2  O   UNL     1      34.732  18.351  22.430  0.00  0.00    +0.000 OA
ATOM      3  C   UNL     1      37.129  18.311  19.762  0.00  0.00    +0.000 A 
ATOM      4  C   UNL     1      36.370  17.863  20.834  0.00  0.00    +0.000 A 
ATOM      5  C   UNL     1      37.009  19.695  19.290  0.00  0.00    +0.000 C 
ATOM      6  C   UNL     1      35.437  18.763  21.520  0.00  0.00    +0.000 C 
ATOM      7  C   UNL     1      36.026  20.580  19.961  0.00  0.00    +0.000 C 
ATOM      8  C   UNL     1      35.364  20.172  21.063  0.00  0.00    +0.000 C 
ATOM      9  C   UNL     1      38.016  17.446  19.123  0.00  0.00    +0.000 A 
ATOM     10  C   UNL     1      36.488  16.542  21.270  0.00  0.00    +0.000 A 
ATOM     11  C   UNL     1      38.137  16.129  19.558  0.00  0.00    +0.000 A 
ATOM     12  C   UNL     1      37.373  15.676  20.632  0.00  0.00    +0.000 A 
ENDROOT
BRANCH   7  13
ATOM     13  O   UNL     1      35.927  21.857  19.438  0.00  0.00    +0.000 OA
ATOM     14  C   UNL     1      34.763  21.957  18.653  0.00  0.00    +0.000 C 
ENDBRANCH   7  13
BRANCH   8  15
ATOM     15  O   UNL     1      34.504  20.983  21.782  0.00  0.00    +0.000 OA
ATOM     16  C   UNL     1      35.238  21.749  22.708  0.00  0.00    +0.000 C 
ENDBRANCH   8  15
TORSDOF 2
ENDMDL
MODEL 4
REMARK VINA RESULT:      -4.8     19.853     21.442
REMARK  Name = 3136_Dimethoxy.pdbqt.pdb
REMARK  2 active torsions:
REMARK  status: ('A' for Active; 'I' for Inactive)
REMARK    1  A    between atoms: C_7  and  O_13
REMARK    2  A    between atoms: C_8  and  O_15
REMARK                            x       y       z     vdW  Elec       q    Type
REMARK                         _______ _______ _______ _____ _____    ______ ____
ROOT
ATOM      1  O   UNL     1      52.933  18.160   9.393  0.00  0.00    +0.000 OA
ATOM      2  O   UNL     1      49.454  16.076  12.850  0.00  0.00    +0.000 OA
ATOM      3  C   UNL     1      50.729  17.505   9.818  0.00  0.00    +0.000 A 
ATOM      4  C   UNL     1      49.829  16.940  10.709  0.00  0.00    +0.000 A 
ATOM      5  C   UNL     1      52.131  17.708  10.199  0.00  0.00    +0.000 C 
ATOM      6  C   UNL     1      50.261  16.526  12.049  0.00  0.00    +0.000 C 
ATOM      7  C   UNL     1      52.543  17.332  11.573  0.00  0.00    +0.000 C 
ATOM      8  C   UNL     1      51.692  16.691  12.402  0.00  0.00    +0.000 C 
ATOM      9  C   UNL     1      50.306  17.888   8.545  0.00  0.00    +0.000 A 
ATOM     10  C   UNL     1      48.496  16.757  10.337  0.00  0.00    +0.000 A 
ATOM     11  C   UNL     1      48.976  17.706   8.171  0.00  0.00    +0.000 A 
ATOM     12  C   UNL     1      48.071  17.141   9.067  0.00  0.00    +0.000 A 
ENDROOT
BRANCH   7  13
ATOM     13  O   UNL     1      53.865  17.592  11.886  0.00  0.00    +0.000 OA
ATOM     14  C   UNL     1      53.953  18.807  12.591  0.00  0.00    +0.000 C 
ENDBRANCH   7  13
BRANCH   8  15
ATOM     15  O   UNL     1      52.047  16.237  13.660  0.00  0.00    +0.000 OA
ATOM     16  C   UNL     1      52.614  14.953  13.557  0.00  0.00    +0.000 C 
ENDBRANCH   8  15
TORSDOF 2
ENDMDL
MODEL 5
REMARK VINA RESULT:      -4.5     12.251     13.418
REMARK  Name = 3136_Dimethoxy.pdbqt.pdb
REMARK  2 active torsions:
REMARK  status: ('A' for Active; 'I' for Inactive)
REMARK    1  A    between atoms: C_7  and  O_13
REMARK    2  A    between atoms: C_8  and  O_15
REMARK                            x       y       z     vdW  Elec       q    Type
REMARK                         _______ _______ _______ _____ _____    ______ ____
ROOT
ATOM      1  O   UNL     1      51.261   3.765   7.916  0.00  0.00    +0.000 OA
ATOM      2  O   UNL     1      51.189   7.330  11.875  0.00  0.00    +0.000 OA
ATOM      3  C   UNL     1      51.198   6.018   8.537  0.00  0.00    +0.000 A 
ATOM      4  C   UNL     1      51.154   6.945   9.569  0.00  0.00    +0.000 A 
ATOM      5  C   UNL     1      51.274   4.582   8.826  0.00  0.00    +0.000 C 
ATOM      6  C   UNL     1      51.175   6.509  10.969  0.00  0.00    +0.000 C 
ATOM      7  C   UNL     1      51.344   4.158  10.246  0.00  0.00    +0.000 C 
ATOM      8  C   UNL     1      51.200   5.052  11.245  0.00  0.00    +0.000 C 
ATOM      9  C   UNL     1      51.172   6.447   7.211  0.00  0.00    +0.000 A 
ATOM     10  C   UNL     1      51.089   8.309   9.281  0.00  0.00    +0.000 A 
ATOM     11  C   UNL     1      51.105   7.807   6.921  0.00  0.00    +0.000 A 
ATOM     12  C   UNL     1      51.064   8.739   7.956  0.00  0.00    +0.000 A 
ENDROOT
BRANCH   7  13
ATOM     13  O   UNL     1      51.462   2.795  10.450  0.00  0.00    +0.000 OA
ATOM     14  C   UNL     1      50.188   2.238  10.668  0.00  0.00    +0.000 C 
ENDBRANCH   7  13
BRANCH   8  15
ATOM     15  O   UNL     1      51.168   4.704  12.584  0.00  0.00    +0.000 OA
ATOM     16  C   UNL     1      52.481   4.515  13.056  0.00  0.00    +0.000 C 
ENDBRANCH   8  15
TORSDOF 2
ENDMDL
MODEL 6
REMARK VINA RESULT:      -4.2     23.354     24.837
REMARK  Name = 3136_Dimethoxy.pdbqt.pdb
REMARK  2 active torsions:
REMARK  status: ('A' for Active; 'I' for Inactive)
REMARK    1  A    between atoms: C_7  and  O_13
REMARK    2  A    between atoms: C_8  and  O_15
REMARK                            x       y       z     vdW  Elec       q    Type
REMARK                         _______ _______ _______ _____ _____    ______ ____
ROOT
ATOM      1  O   UNL     1      44.296  -0.796 -11.782  0.00  0.00    +0.000 OA
ATOM      2  O   UNL     1      40.997   0.721  -7.882  0.00  0.00    +0.000 OA
ATOM      3  C   UNL     1      42.292  -1.174 -10.637  0.00  0.00    +0.000 A 
ATOM      4  C   UNL     1      41.446  -0.794  -9.606  0.00  0.00    +0.000 A 
ATOM      5  C   UNL     1      43.526  -0.428 -10.904  0.00  0.00    +0.000 C 
ATOM      6  C   UNL     1      41.770   0.357  -8.756  0.00  0.00    +0.000 C 
ATOM      7  C   UNL     1      43.817   0.764 -10.070  0.00  0.00    +0.000 C 
ATOM      8  C   UNL     1      43.046   1.071  -9.007  0.00  0.00    +0.000 C 
ATOM      9  C   UNL     1      41.974  -2.275 -11.433  0.00  0.00    +0.000 A 
ATOM     10  C   UNL     1      40.271  -1.509  -9.365  0.00  0.00    +0.000 A 
ATOM     11  C   UNL     1      40.803  -2.990 -11.194  0.00  0.00    +0.000 A 
ATOM     12  C   UNL     1      39.951  -2.607 -10.160  0.00  0.00    +0.000 A 
ENDROOT
BRANCH   7  13
ATOM     13  O   UNL     1      44.970   1.451 -10.403  0.00  0.00    +0.000 OA
ATOM     14  C   UNL     1      44.679   2.413 -11.387  0.00  0.00    +0.000 C 
ENDBRANCH   7  13
BRANCH   8  15
ATOM     15  O   UNL     1      43.318   2.115  -8.141  0.00  0.00    +0.000 OA
ATOM     16  C   UNL     1      42.630   3.269  -8.561  0.00  0.00    +0.000 C 
ENDBRANCH   8  15
TORSDOF 2
ENDMDL
MODEL 7
REMARK VINA RESULT:      -4.0     19.675     22.157
REMARK  Name = 3136_Dimethoxy.pdbqt.pdb
REMARK  2 active torsions:
REMARK  status: ('A' for Active; 'I' for Inactive)
REMARK    1  A    between atoms: C_7  and  O_13
REMARK    2  A    between atoms: C_8  and  O_15
REMARK                            x       y       z     vdW  Elec       q    Type
REMARK                         _______ _______ _______ _____ _____    ______ ____
ROOT
ATOM      1  O   UNL     1      30.307  -2.491  -5.973  0.00  0.00    +0.000 OA
ATOM      2  O   UNL     1      32.812   1.460  -3.422  0.00  0.00    +0.000 OA
ATOM      3  C   UNL     1      31.612  -1.842  -4.145  0.00  0.00    +0.000 A 
ATOM      4  C   UNL     1      32.285  -0.817  -3.494  0.00  0.00    +0.000 A 
ATOM      5  C   UNL     1      30.857  -1.577  -5.374  0.00  0.00    +0.000 C 
ATOM      6  C   UNL     1      32.261   0.550  -4.025  0.00  0.00    +0.000 C 
ATOM      7  C   UNL     1      30.801  -0.181  -5.873  0.00  0.00    +0.000 C 
ATOM      8  C   UNL     1      31.536   0.792  -5.296  0.00  0.00    +0.000 C 
ATOM      9  C   UNL     1      31.648  -3.138  -3.632  0.00  0.00    +0.000 A 
ATOM     10  C   UNL     1      32.995  -1.081  -2.321  0.00  0.00    +0.000 A 
ATOM     11  C   UNL     1      32.357  -3.403  -2.463  0.00  0.00    +0.000 A 
ATOM     12  C   UNL     1      33.030  -2.375  -1.807  0.00  0.00    +0.000 A 
ENDROOT
BRANCH   7  13
ATOM     13  O   UNL     1      30.035   0.011  -7.008  0.00  0.00    +0.000 OA
ATOM     14  C   UNL     1      28.750   0.452  -6.642  0.00  0.00    +0.000 C 
ENDBRANCH   7  13
BRANCH   8  15
ATOM     15  O   UNL     1      31.593   2.090  -5.770  0.00  0.00    +0.000 OA
ATOM     16  C   UNL     1      32.543   2.175  -6.806  0.00  0.00    +0.000 C 
ENDBRANCH   8  15
TORSDOF 2
ENDMDL
MODEL 8
REMARK VINA RESULT:      -4.0     19.365     21.637
REMARK  Name = 3136_Dimethoxy.pdbqt.pdb
REMARK  2 active torsions:
REMARK  status: ('A' for Active; 'I' for Inactive)
REMARK    1  A    between atoms: C_7  and  O_13
REMARK    2  A    between atoms: C_8  and  O_15
REMARK                            x       y       z     vdW  Elec       q    Type
REMARK                         _______ _______ _______ _____ _____    ______ ____
ROOT
ATOM      1  O   UNL     1      31.511  -5.114  -2.081  0.00  0.00    +0.000 OA
ATOM      2  O   UNL     1      31.291  -1.097  -5.576  0.00  0.00    +0.000 OA
ATOM      3  C   UNL     1      31.037  -4.426  -4.265  0.00  0.00    +0.000 A 
ATOM      4  C   UNL     1      30.956  -3.376  -5.168  0.00  0.00    +0.000 A 
ATOM      5  C   UNL     1      31.489  -4.195  -2.889  0.00  0.00    +0.000 C 
ATOM      6  C   UNL     1      31.313  -2.012  -4.764  0.00  0.00    +0.000 C 
ATOM      7  C   UNL     1      31.895  -2.820  -2.508  0.00  0.00    +0.000 C 
ATOM      8  C   UNL     1      31.720  -1.785  -3.356  0.00  0.00    +0.000 C 
ATOM      9  C   UNL     1      30.688  -5.717  -4.661  0.00  0.00    +0.000 A 
ATOM     10  C   UNL     1      30.530  -3.609  -6.477  0.00  0.00    +0.000 A 
ATOM     11  C   UNL     1      30.261  -5.952  -5.966  0.00  0.00    +0.000 A 
ATOM     12  C   UNL     1      30.183  -4.898  -6.875  0.00  0.00    +0.000 A 
ENDROOT
BRANCH   7  13
ATOM     13  O   UNL     1      32.356  -2.678  -1.212  0.00  0.00    +0.000 OA
ATOM     14  C   UNL     1      33.763  -2.655  -1.211  0.00  0.00    +0.000 C 
ENDBRANCH   7  13
BRANCH   8  15
ATOM     15  O   UNL     1      31.996  -0.471  -3.025  0.00  0.00    +0.000 OA
ATOM     16  C   UNL     1      30.872   0.107  -2.404  0.00  0.00    +0.000 C 
ENDBRANCH   8  15
TORSDOF 2
ENDMDL
MODEL 9
REMARK VINA RESULT:      -3.9     14.408     16.924
REMARK  Name = 3136_Dimethoxy.pdbqt.pdb
REMARK  2 active torsions:
REMARK  status: ('A' for Active; 'I' for Inactive)
REMARK    1  A    between atoms: C_7  and  O_13
REMARK    2  A    between atoms: C_8  and  O_15
REMARK                            x       y       z     vdW  Elec       q    Type
REMARK                         _______ _______ _______ _____ _____    ______ ____
ROOT
ATOM      1  O   UNL     1      40.789 -15.261   2.237  0.00  0.00    +0.000 OA
ATOM      2  O   UNL     1      39.792 -10.043   2.660  0.00  0.00    +0.000 OA
ATOM      3  C   UNL     1      40.558 -13.406   3.643  0.00  0.00    +0.000 A 
ATOM      4  C   UNL     1      40.323 -12.043   3.750  0.00  0.00    +0.000 A 
ATOM      5  C   UNL     1      40.531 -14.069   2.334  0.00  0.00    +0.000 C 
ATOM      6  C   UNL     1      40.050 -11.234   2.557  0.00  0.00    +0.000 C 
ATOM      7  C   UNL     1      40.205 -13.248   1.142  0.00  0.00    +0.000 C 
ATOM      8  C   UNL     1      40.077 -11.909   1.236  0.00  0.00    +0.000 C 
ATOM      9  C   UNL     1      40.822 -14.162   4.785  0.00  0.00    +0.000 A 
ATOM     10  C   UNL     1      40.345 -11.426   5.001  0.00  0.00    +0.000 A 
ATOM     11  C   UNL     1      40.846 -13.548   6.034  0.00  0.00    +0.000 A 
ATOM     12  C   UNL     1      40.608 -12.180   6.143  0.00  0.00    +0.000 A 
ENDROOT
BRANCH   7  13
ATOM     13  O   UNL     1      40.149 -13.940  -0.054  0.00  0.00    +0.000 OA
ATOM     14  C   UNL     1      38.807 -14.208  -0.382  0.00  0.00    +0.000 C 
ENDBRANCH   7  13
BRANCH   8  15
ATOM     15  O   UNL     1      39.861 -11.083   0.147  0.00  0.00    +0.000 OA
ATOM     16  C   UNL     1      41.090 -10.788  -0.474  0.00  0.00    +0.000 C 
ENDBRANCH   8  15
TORSDOF 2
ENDMDL
