MODEL 1
REMARK VINA RESULT:      -5.6      0.000      0.000
REMARK  Name = 326_Cuminaldehyde.pdb
REMARK  1 active torsions:
REMARK  status: ('A' for Active; 'I' for Inactive)
REMARK    1  A    between atoms: C_1  and  C_7
REMARK                            x       y       z     vdW  Elec       q    Type
REMARK                         _______ _______ _______ _____ _____    ______ ____
ROOT
ATOM      1  C   UNL     1      36.497  15.159  20.681  0.00  0.00    +0.000 C 
ATOM      2  C   UNL     1      37.714  15.295  20.008  0.00  0.00    +0.000 C 
ATOM      3  C   UNL     1      35.650  16.264  20.799  0.00  0.00    +0.000 C 
ATOM      4  C   UNL     1      38.079  16.523  19.457  0.00  0.00    +0.000 C 
ATOM      5  C   UNL     1      36.014  17.492  20.249  0.00  0.00    +0.000 C 
ATOM      6  C   UNL     1      37.229  17.619  19.578  0.00  0.00    +0.000 C 
ATOM      7  O   UNL     1      37.910  19.911  18.552  0.00  0.00    +0.000 OA
ATOM      8  C   UNL     1      37.602  18.875  19.016  0.00  0.00    +0.000 C 
ENDROOT
BRANCH   1   9
ATOM      9  C   UNL     1      36.115  13.873  21.256  0.00  0.00    +0.000 C 
ATOM     10  C   UNL     1      35.980  12.637  20.403  0.00  0.00    +0.000 C 
ATOM     11  C   UNL     1      35.837  13.722  22.731  0.00  0.00    +0.000 C 
ENDBRANCH   1   9
TORSDOF 1
ENDMDL
MODEL 2
REMARK VINA RESULT:      -5.2      3.799      5.928
REMARK  Name = 326_Cuminaldehyde.pdb
REMARK  1 active torsions:
REMARK  status: ('A' for Active; 'I' for Inactive)
REMARK    1  A    between atoms: C_1  and  C_7
REMARK                            x       y       z     vdW  Elec       q    Type
REMARK                         _______ _______ _______ _____ _____    ______ ____
ROOT
ATOM      1  C   UNL     1      36.091  14.407  21.539  0.00  0.00    +0.000 C 
ATOM      2  C   UNL     1      36.028  13.462  20.512  0.00  0.00    +0.000 C 
ATOM      3  C   UNL     1      36.000  13.984  22.868  0.00  0.00    +0.000 C 
ATOM      4  C   UNL     1      35.876  12.109  20.809  0.00  0.00    +0.000 C 
ATOM      5  C   UNL     1      35.848  12.631  23.166  0.00  0.00    +0.000 C 
ATOM      6  C   UNL     1      35.786  11.695  22.136  0.00  0.00    +0.000 C 
ATOM      7  O   UNL     1      35.502   9.169  22.692  0.00  0.00    +0.000 OA
ATOM      8  C   UNL     1      35.631  10.311  22.441  0.00  0.00    +0.000 C 
ENDROOT
BRANCH   1   9
ATOM      9  C   UNL     1      36.251  15.824  21.227  0.00  0.00    +0.000 C 
ATOM     10  C   UNL     1      35.488  16.887  21.978  0.00  0.00    +0.000 C 
ATOM     11  C   UNL     1      37.185  16.290  20.139  0.00  0.00    +0.000 C 
ENDBRANCH   1   9
TORSDOF 1
ENDMDL
MODEL 3
REMARK VINA RESULT:      -5.0     15.023     17.340
REMARK  Name = 326_Cuminaldehyde.pdb
REMARK  1 active torsions:
REMARK  status: ('A' for Active; 'I' for Inactive)
REMARK    1  A    between atoms: C_1  and  C_7
REMARK                            x       y       z     vdW  Elec       q    Type
REMARK                         _______ _______ _______ _____ _____    ______ ____
ROOT
ATOM      1  C   UNL     1      40.002   1.016  15.413  0.00  0.00    +0.000 C 
ATOM      2  C   UNL     1      41.166   0.257  15.558  0.00  0.00    +0.000 C 
ATOM      3  C   UNL     1      39.442   1.180  14.143  0.00  0.00    +0.000 C 
ATOM      4  C   UNL     1      41.764  -0.333  14.445  0.00  0.00    +0.000 C 
ATOM      5  C   UNL     1      40.040   0.591  13.030  0.00  0.00    +0.000 C 
ATOM      6  C   UNL     1      41.200  -0.164  13.183  0.00  0.00    +0.000 C 
ATOM      7  O   UNL     1      42.316  -1.264  11.105  0.00  0.00    +0.000 OA
ATOM      8  C   UNL     1      41.812  -0.767  12.044  0.00  0.00    +0.000 C 
ENDROOT
BRANCH   1   9
ATOM      9  C   UNL     1      39.376   1.633  16.578  0.00  0.00    +0.000 C 
ATOM     10  C   UNL     1      38.981   0.817  17.785  0.00  0.00    +0.000 C 
ATOM     11  C   UNL     1      39.094   3.113  16.630  0.00  0.00    +0.000 C 
ENDBRANCH   1   9
TORSDOF 1
ENDMDL
MODEL 4
REMARK VINA RESULT:      -4.7     18.630     20.899
REMARK  Name = 326_Cuminaldehyde.pdb
REMARK  1 active torsions:
REMARK  status: ('A' for Active; 'I' for Inactive)
REMARK    1  A    between atoms: C_1  and  C_7
REMARK                            x       y       z     vdW  Elec       q    Type
REMARK                         _______ _______ _______ _____ _____    ______ ____
ROOT
ATOM      1  C   UNL     1      42.897  -3.601  13.474  0.00  0.00    +0.000 C 
ATOM      2  C   UNL     1      41.944  -3.428  12.466  0.00  0.00    +0.000 C 
ATOM      3  C   UNL     1      43.144  -2.560  14.372  0.00  0.00    +0.000 C 
ATOM      4  C   UNL     1      41.244  -2.228  12.360  0.00  0.00    +0.000 C 
ATOM      5  C   UNL     1      42.445  -1.359  14.266  0.00  0.00    +0.000 C 
ATOM      6  C   UNL     1      41.495  -1.195  13.259  0.00  0.00    +0.000 C 
ATOM      7  O   UNL     1      40.190   1.048  13.060  0.00  0.00    +0.000 OA
ATOM      8  C   UNL     1      40.780   0.034  13.150  0.00  0.00    +0.000 C 
ENDROOT
BRANCH   1   9
ATOM      9  C   UNL     1      43.629  -4.859  13.585  0.00  0.00    +0.000 C 
ATOM     10  C   UNL     1      44.877  -4.973  14.425  0.00  0.00    +0.000 C 
ATOM     11  C   UNL     1      43.172  -6.103  12.866  0.00  0.00    +0.000 C 
ENDBRANCH   1   9
TORSDOF 1
ENDMDL
MODEL 5
REMARK VINA RESULT:      -4.6      2.310      3.780
REMARK  Name = 326_Cuminaldehyde.pdb
REMARK  1 active torsions:
REMARK  status: ('A' for Active; 'I' for Inactive)
REMARK    1  A    between atoms: C_1  and  C_7
REMARK                            x       y       z     vdW  Elec       q    Type
REMARK                         _______ _______ _______ _____ _____    ______ ____
ROOT
ATOM      1  C   UNL     1      35.177  12.073  21.831  0.00  0.00    +0.000 C 
ATOM      2  C   UNL     1      35.810  12.451  20.645  0.00  0.00    +0.000 C 
ATOM      3  C   UNL     1      34.976  13.023  22.836  0.00  0.00    +0.000 C 
ATOM      4  C   UNL     1      36.235  13.766  20.463  0.00  0.00    +0.000 C 
ATOM      5  C   UNL     1      35.402  14.338  22.656  0.00  0.00    +0.000 C 
ATOM      6  C   UNL     1      36.032  14.707  21.469  0.00  0.00    +0.000 C 
ATOM      7  O   UNL     1      36.828  17.161  21.132  0.00  0.00    +0.000 OA
ATOM      8  C   UNL     1      36.468  16.052  21.285  0.00  0.00    +0.000 C 
ENDROOT
BRANCH   1   9
ATOM      9  C   UNL     1      34.730  10.696  22.020  0.00  0.00    +0.000 C 
ATOM     10  C   UNL     1      35.640   9.645  22.605  0.00  0.00    +0.000 C 
ATOM     11  C   UNL     1      33.337  10.261  21.639  0.00  0.00    +0.000 C 
ENDBRANCH   1   9
TORSDOF 1
ENDMDL
MODEL 6
REMARK VINA RESULT:      -4.1     24.065     25.483
REMARK  Name = 326_Cuminaldehyde.pdb
REMARK  1 active torsions:
REMARK  status: ('A' for Active; 'I' for Inactive)
REMARK    1  A    between atoms: C_1  and  C_7
REMARK                            x       y       z     vdW  Elec       q    Type
REMARK                         _______ _______ _______ _____ _____    ______ ____
ROOT
ATOM      1  C   UNL     1      50.585  -1.334   6.092  0.00  0.00    +0.000 C 
ATOM      2  C   UNL     1      50.192  -1.657   7.393  0.00  0.00    +0.000 C 
ATOM      3  C   UNL     1      50.413  -0.028   5.626  0.00  0.00    +0.000 C 
ATOM      4  C   UNL     1      49.634  -0.683   8.220  0.00  0.00    +0.000 C 
ATOM      5  C   UNL     1      49.855   0.946   6.452  0.00  0.00    +0.000 C 
ATOM      6  C   UNL     1      49.466   0.616   7.749  0.00  0.00    +0.000 C 
ATOM      7  O   UNL     1      48.423   2.434   9.292  0.00  0.00    +0.000 OA
ATOM      8  C   UNL     1      48.894   1.612   8.595  0.00  0.00    +0.000 C 
ENDROOT
BRANCH   1   9
ATOM      9  C   UNL     1      51.170  -2.353   5.226  0.00  0.00    +0.000 C 
ATOM     10  C   UNL     1      50.565  -2.690   3.886  0.00  0.00    +0.000 C 
ATOM     11  C   UNL     1      52.406  -3.116   5.632  0.00  0.00    +0.000 C 
ENDBRANCH   1   9
TORSDOF 1
ENDMDL
MODEL 7
REMARK VINA RESULT:      -3.9     27.051     28.443
REMARK  Name = 326_Cuminaldehyde.pdb
REMARK  1 active torsions:
REMARK  status: ('A' for Active; 'I' for Inactive)
REMARK    1  A    between atoms: C_1  and  C_7
REMARK                            x       y       z     vdW  Elec       q    Type
REMARK                         _______ _______ _______ _____ _____    ______ ____
ROOT
ATOM      1  C   UNL     1      30.353  -3.571   0.649  0.00  0.00    +0.000 C 
ATOM      2  C   UNL     1      31.414  -3.290   1.513  0.00  0.00    +0.000 C 
ATOM      3  C   UNL     1      29.264  -4.311   1.117  0.00  0.00    +0.000 C 
ATOM      4  C   UNL     1      31.387  -3.743   2.831  0.00  0.00    +0.000 C 
ATOM      5  C   UNL     1      29.236  -4.765   2.435  0.00  0.00    +0.000 C 
ATOM      6  C   UNL     1      30.298  -4.480   3.290  0.00  0.00    +0.000 C 
ATOM      7  O   UNL     1      30.246  -5.327   5.750  0.00  0.00    +0.000 OA
ATOM      8  C   UNL     1      30.270  -4.944   4.638  0.00  0.00    +0.000 C 
ENDROOT
BRANCH   1   9
ATOM      9  C   UNL     1      30.382  -3.096  -0.731  0.00  0.00    +0.000 C 
ATOM     10  C   UNL     1      29.776  -1.771  -1.121  0.00  0.00    +0.000 C 
ATOM     11  C   UNL     1      31.019  -3.909  -1.830  0.00  0.00    +0.000 C 
ENDBRANCH   1   9
TORSDOF 1
ENDMDL
MODEL 8
REMARK VINA RESULT:      -3.9     12.036     13.426
REMARK  Name = 326_Cuminaldehyde.pdb
REMARK  1 active torsions:
REMARK  status: ('A' for Active; 'I' for Inactive)
REMARK    1  A    between atoms: C_1  and  C_7
REMARK                            x       y       z     vdW  Elec       q    Type
REMARK                         _______ _______ _______ _____ _____    ______ ____
ROOT
ATOM      1  C   UNL     1      44.104   9.914  27.365  0.00  0.00    +0.000 C 
ATOM      2  C   UNL     1      45.167  10.778  27.094  0.00  0.00    +0.000 C 
ATOM      3  C   UNL     1      44.297   8.837  28.233  0.00  0.00    +0.000 C 
ATOM      4  C   UNL     1      46.411  10.569  27.688  0.00  0.00    +0.000 C 
ATOM      5  C   UNL     1      45.540   8.627  28.827  0.00  0.00    +0.000 C 
ATOM      6  C   UNL     1      46.596   9.494  28.553  0.00  0.00    +0.000 C 
ATOM      7  O   UNL     1      48.918   9.102  29.660  0.00  0.00    +0.000 OA
ATOM      8  C   UNL     1      47.869   9.279  29.160  0.00  0.00    +0.000 C 
ENDROOT
BRANCH   1   9
ATOM      9  C   UNL     1      42.801  10.134  26.743  0.00  0.00    +0.000 C 
ATOM     10  C   UNL     1      42.549   9.786  25.297  0.00  0.00    +0.000 C 
ATOM     11  C   UNL     1      41.647  10.719  27.519  0.00  0.00    +0.000 C 
ENDBRANCH   1   9
TORSDOF 1
ENDMDL
MODEL 9
REMARK VINA RESULT:      -3.8     10.859     12.256
REMARK  Name = 326_Cuminaldehyde.pdb
REMARK  1 active torsions:
REMARK  status: ('A' for Active; 'I' for Inactive)
REMARK    1  A    between atoms: C_1  and  C_7
REMARK                            x       y       z     vdW  Elec       q    Type
REMARK                         _______ _______ _______ _____ _____    ______ ____
ROOT
ATOM      1  C   UNL     1      43.204   9.020  27.151  0.00  0.00    +0.000 C 
ATOM      2  C   UNL     1      42.832   7.721  27.507  0.00  0.00    +0.000 C 
ATOM      3  C   UNL     1      42.901   9.495  25.873  0.00  0.00    +0.000 C 
ATOM      4  C   UNL     1      42.162   6.907  26.595  0.00  0.00    +0.000 C 
ATOM      5  C   UNL     1      42.232   8.682  24.960  0.00  0.00    +0.000 C 
ATOM      6  C   UNL     1      41.863   7.388  25.323  0.00  0.00    +0.000 C 
ATOM      7  O   UNL     1      40.615   5.868  23.619  0.00  0.00    +0.000 OA
ATOM      8  C   UNL     1      41.179   6.555  24.389  0.00  0.00    +0.000 C 
ENDROOT
BRANCH   1   9
ATOM      9  C   UNL     1      43.904   9.872  28.107  0.00  0.00    +0.000 C 
ATOM     10  C   UNL     1      45.335  10.294  27.885  0.00  0.00    +0.000 C 
ATOM     11  C   UNL     1      43.229  10.370  29.360  0.00  0.00    +0.000 C 
ENDBRANCH   1   9
TORSDOF 1
ENDMDL
