MODEL 1
REMARK VINA RESULT:      -6.4      0.000      0.000
REMARK  Name = 3363_5FluorouracilDeoxyriboside.pdbqt.pdb
REMARK  4 active torsions:
REMARK  status: ('A' for Active; 'I' for Inactive)
REMARK    1  A    between atoms: N_4  and  C1*_13
REMARK    2  A    between atoms: C3*_12  and  O3*_16
REMARK    3  A    between atoms: C4*_15  and  C5*_18
REMARK    4  A    between atoms: C5*_18  and  O5*_19
REMARK                            x       y       z     vdW  Elec       q    Type
REMARK                         _______ _______ _______ _____ _____    ______ ____
ROOT
ATOM      1  F   UNL     1      40.484   0.625  19.617  0.00  0.00    +0.000 F 
ATOM      2  O   UNL     1      39.378   2.558  14.662  0.00  0.00    +0.000 OA
ATOM      3  O   UNL     1      39.062   3.038  19.215  0.00  0.00    +0.000 OA
ATOM      4  N   UNL     1      40.567   1.025  16.024  0.00  0.00    +0.000 N 
ATOM      5  N   UNL     1      39.324   2.797  16.940  0.00  0.00    +0.000 N 
ATOM      6  C   UNL     1      39.742   2.143  15.756  0.00  0.00    +0.000 C 
ATOM      7  C   UNL     1      40.831   0.751  17.317  0.00  0.00    +0.000 C 
ATOM      8  C   UNL     1      40.503   1.283  18.446  0.00  0.00    +0.000 C 
ATOM      9  C   UNL     1      39.576   2.447  18.273  0.00  0.00    +0.000 C 
ATOM     10  H   UNL     1      38.700   3.579  16.800  0.00  0.00    +0.000 HD
ENDROOT
BRANCH   4  13
ATOM     11  O4* UNL     1      40.795   0.390  13.700  0.00  0.00    +0.000 OA
ATOM     12  C3* UNL     1      42.257  -1.393  13.934  0.00  0.00    +0.000 A 
ATOM     13  C1* UNL     1      41.094   0.215  15.058  0.00  0.00    +0.000 A 
ATOM     14  C2* UNL     1      41.989  -0.861  15.208  0.00  0.00    +0.000 A 
ATOM     15  C4* UNL     1      41.504  -0.593  12.999  0.00  0.00    +0.000 A 
BRANCH  12  16
ATOM     16  O3* UNL     1      43.445  -1.978  13.595  0.00  0.00    +0.000 OA
ATOM     17  H3* UNL     1      43.416  -2.380  12.708  0.00  0.00    +0.000 HD
ENDBRANCH  12  16
BRANCH  15  18
ATOM     18  C5* UNL     1      41.598  -0.600  11.593  0.00  0.00    +0.000 C 
BRANCH  18  19
ATOM     19  O5* UNL     1      41.669  -0.596  10.267  0.00  0.00    +0.000 OA
ATOM     20  H5* UNL     1      42.465  -0.124   9.966  0.00  0.00    +0.000 HD
ENDBRANCH  18  19
ENDBRANCH  15  18
ENDBRANCH   4  13
TORSDOF 4
ENDMDL
MODEL 2
REMARK VINA RESULT:      -5.4      1.559      2.159
REMARK  Name = 3363_5FluorouracilDeoxyriboside.pdbqt.pdb
REMARK  4 active torsions:
REMARK  status: ('A' for Active; 'I' for Inactive)
REMARK    1  A    between atoms: N_4  and  C1*_13
REMARK    2  A    between atoms: C3*_12  and  O3*_16
REMARK    3  A    between atoms: C4*_15  and  C5*_18
REMARK    4  A    between atoms: C5*_18  and  O5*_19
REMARK                            x       y       z     vdW  Elec       q    Type
REMARK                         _______ _______ _______ _____ _____    ______ ____
ROOT
ATOM      1  F   UNL     1      38.840  -0.566  19.720  0.00  0.00    +0.000 F 
ATOM      2  O   UNL     1      39.806   3.578  16.342  0.00  0.00    +0.000 OA
ATOM      3  O   UNL     1      38.642   2.134  20.540  0.00  0.00    +0.000 OA
ATOM      4  N   UNL     1      39.923   1.252  16.787  0.00  0.00    +0.000 N 
ATOM      5  N   UNL     1      39.316   2.806  18.443  0.00  0.00    +0.000 N 
ATOM      6  C   UNL     1      39.704   2.616  17.095  0.00  0.00    +0.000 C 
ATOM      7  C   UNL     1      39.742   0.360  17.783  0.00  0.00    +0.000 C 
ATOM      8  C   UNL     1      39.397   0.438  19.023  0.00  0.00    +0.000 C 
ATOM      9  C   UNL     1      39.083   1.844  19.435  0.00  0.00    +0.000 C 
ATOM     10  H   UNL     1      39.109   3.761  18.699  0.00  0.00    +0.000 HD
ENDROOT
BRANCH   4  13
ATOM     11  O4* UNL     1      41.413  -0.027  15.374  0.00  0.00    +0.000 OA
ATOM     12  C3* UNL     1      40.408   0.351  13.320  0.00  0.00    +0.000 A 
ATOM     13  C1* UNL     1      40.295   0.797  15.554  0.00  0.00    +0.000 A 
ATOM     14  C2* UNL     1      39.672   1.025  14.311  0.00  0.00    +0.000 A 
ATOM     15  C4* UNL     1      41.493  -0.308  14.005  0.00  0.00    +0.000 A 
BRANCH  12  16
ATOM     16  O3* UNL     1      39.848  -0.164  12.185  0.00  0.00    +0.000 OA
ATOM     17  H3* UNL     1      38.951   0.183  12.027  0.00  0.00    +0.000 HD
ENDBRANCH  12  16
BRANCH  15  18
ATOM     18  C5* UNL     1      42.381  -1.268  13.480  0.00  0.00    +0.000 C 
BRANCH  18  19
ATOM     19  O5* UNL     1      43.210  -2.171  12.967  0.00  0.00    +0.000 OA
ATOM     20  H5* UNL     1      42.902  -3.072  13.165  0.00  0.00    +0.000 HD
ENDBRANCH  18  19
ENDBRANCH  15  18
ENDBRANCH   4  13
TORSDOF 4
ENDMDL
MODEL 3
REMARK VINA RESULT:      -4.9     22.694     24.330
REMARK  Name = 3363_5FluorouracilDeoxyriboside.pdbqt.pdb
REMARK  4 active torsions:
REMARK  status: ('A' for Active; 'I' for Inactive)
REMARK    1  A    between atoms: N_4  and  C1*_13
REMARK    2  A    between atoms: C3*_12  and  O3*_16
REMARK    3  A    between atoms: C4*_15  and  C5*_18
REMARK    4  A    between atoms: C5*_18  and  O5*_19
REMARK                            x       y       z     vdW  Elec       q    Type
REMARK                         _______ _______ _______ _____ _____    ______ ____
ROOT
ATOM      1  F   UNL     1      43.704  23.807   5.997  0.00  0.00    +0.000 F 
ATOM      2  O   UNL     1      44.698  25.082  11.183  0.00  0.00    +0.000 OA
ATOM      3  O   UNL     1      45.862  25.470   6.761  0.00  0.00    +0.000 OA
ATOM      4  N   UNL     1      43.235  24.153   9.566  0.00  0.00    +0.000 N 
ATOM      5  N   UNL     1      45.185  25.316   8.957  0.00  0.00    +0.000 N 
ATOM      6  C   UNL     1      44.374  24.858  10.023  0.00  0.00    +0.000 C 
ATOM      7  C   UNL     1      43.086  24.024   8.232  0.00  0.00    +0.000 C 
ATOM      8  C   UNL     1      43.761  24.402   7.200  0.00  0.00    +0.000 C 
ATOM      9  C   UNL     1      45.025  25.111   7.580  0.00  0.00    +0.000 C 
ATOM     10  H   UNL     1      46.032  25.791   9.236  0.00  0.00    +0.000 HD
ENDROOT
BRANCH   4  13
ATOM     11  O4* UNL     1      42.192  22.212  10.566  0.00  0.00    +0.000 OA
ATOM     12  C3* UNL     1      40.593  23.268  11.869  0.00  0.00    +0.000 A 
ATOM     13  C1* UNL     1      42.298  23.598  10.391  0.00  0.00    +0.000 A 
ATOM     14  C2* UNL     1      41.335  24.248  11.186  0.00  0.00    +0.000 A 
ATOM     15  C4* UNL     1      41.148  21.996  11.473  0.00  0.00    +0.000 A 
BRANCH  12  16
ATOM     16  O3* UNL     1      40.041  23.464  13.104  0.00  0.00    +0.000 OA
ATOM     17  H3* UNL     1      40.608  24.010  13.677  0.00  0.00    +0.000 HD
ENDBRANCH  12  16
BRANCH  15  18
ATOM     18  C5* UNL     1      40.883  20.732  12.035  0.00  0.00    +0.000 C 
BRANCH  18  19
ATOM     19  O5* UNL     1      40.615  19.541  12.558  0.00  0.00    +0.000 OA
ATOM     20  H5* UNL     1      39.759  19.554  13.021  0.00  0.00    +0.000 HD
ENDBRANCH  18  19
ENDBRANCH  15  18
ENDBRANCH   4  13
TORSDOF 4
ENDMDL
MODEL 4
REMARK VINA RESULT:      -4.9      1.966      2.418
REMARK  Name = 3363_5FluorouracilDeoxyriboside.pdbqt.pdb
REMARK  4 active torsions:
REMARK  status: ('A' for Active; 'I' for Inactive)
REMARK    1  A    between atoms: N_4  and  C1*_13
REMARK    2  A    between atoms: C3*_12  and  O3*_16
REMARK    3  A    between atoms: C4*_15  and  C5*_18
REMARK    4  A    between atoms: C5*_18  and  O5*_19
REMARK                            x       y       z     vdW  Elec       q    Type
REMARK                         _______ _______ _______ _____ _____    ______ ____
ROOT
ATOM      1  F   UNL     1      41.546   0.516  20.960  0.00  0.00    +0.000 F 
ATOM      2  O   UNL     1      38.423   3.030  17.294  0.00  0.00    +0.000 OA
ATOM      3  O   UNL     1      40.441   3.081  21.415  0.00  0.00    +0.000 OA
ATOM      4  N   UNL     1      39.913   1.263  17.821  0.00  0.00    +0.000 N 
ATOM      5  N   UNL     1      39.523   3.045  19.304  0.00  0.00    +0.000 N 
ATOM      6  C   UNL     1      39.217   2.475  18.044  0.00  0.00    +0.000 C 
ATOM      7  C   UNL     1      40.738   0.838  18.800  0.00  0.00    +0.000 C 
ATOM      8  C   UNL     1      41.076   1.283  19.962  0.00  0.00    +0.000 C 
ATOM      9  C   UNL     1      40.346   2.541  20.320  0.00  0.00    +0.000 C 
ATOM     10  H   UNL     1      39.019   3.892  19.524  0.00  0.00    +0.000 HD
ENDROOT
BRANCH   4  13
ATOM     11  O4* UNL     1      40.138   1.001  15.426  0.00  0.00    +0.000 OA
ATOM     12  C3* UNL     1      39.388  -1.180  15.209  0.00  0.00    +0.000 A 
ATOM     13  C1* UNL     1      39.789   0.507  16.690  0.00  0.00    +0.000 A 
ATOM     14  C2* UNL     1      39.339  -0.822  16.568  0.00  0.00    +0.000 A 
ATOM     15  C4* UNL     1      39.896  -0.026  14.507  0.00  0.00    +0.000 A 
BRANCH  12  16
ATOM     16  O3* UNL     1      39.621  -2.454  14.772  0.00  0.00    +0.000 OA
ATOM     17  H3* UNL     1      39.284  -2.600  13.870  0.00  0.00    +0.000 HD
ENDBRANCH  12  16
BRANCH  15  18
ATOM     18  C5* UNL     1      40.317   0.045  13.164  0.00  0.00    +0.000 C 
BRANCH  18  19
ATOM     19  O5* UNL     1      40.707   0.093  11.895  0.00  0.00    +0.000 OA
ATOM     20  H5* UNL     1      39.938   0.163  11.302  0.00  0.00    +0.000 HD
ENDBRANCH  18  19
ENDBRANCH  15  18
ENDBRANCH   4  13
TORSDOF 4
ENDMDL
MODEL 5
REMARK VINA RESULT:      -4.0     19.940     21.448
REMARK  Name = 3363_5FluorouracilDeoxyriboside.pdbqt.pdb
REMARK  4 active torsions:
REMARK  status: ('A' for Active; 'I' for Inactive)
REMARK    1  A    between atoms: N_4  and  C1*_13
REMARK    2  A    between atoms: C3*_12  and  O3*_16
REMARK    3  A    between atoms: C4*_15  and  C5*_18
REMARK    4  A    between atoms: C5*_18  and  O5*_19
REMARK                            x       y       z     vdW  Elec       q    Type
REMARK                         _______ _______ _______ _____ _____    ______ ____
ROOT
ATOM      1  F   UNL     1      30.569  18.242   5.043  0.00  0.00    +0.000 F 
ATOM      2  O   UNL     1      32.520  14.679   1.435  0.00  0.00    +0.000 OA
ATOM      3  O   UNL     1      32.895  18.753   3.515  0.00  0.00    +0.000 OA
ATOM      4  N   UNL     1      31.040  15.150   3.226  0.00  0.00    +0.000 N 
ATOM      5  N   UNL     1      32.713  16.663   2.565  0.00  0.00    +0.000 N 
ATOM      6  C   UNL     1      32.108  15.404   2.333  0.00  0.00    +0.000 C 
ATOM      7  C   UNL     1      30.760  16.105   4.137  0.00  0.00    +0.000 C 
ATOM      8  C   UNL     1      31.249  17.264   4.420  0.00  0.00    +0.000 C 
ATOM      9  C   UNL     1      32.355  17.654   3.488  0.00  0.00    +0.000 C 
ATOM     10  H   UNL     1      33.456  16.905   1.925  0.00  0.00    +0.000 HD
ENDROOT
BRANCH   4  13
ATOM     11  O4* UNL     1      30.374  13.046   4.218  0.00  0.00    +0.000 OA
ATOM     12  C3* UNL     1      28.795  12.374   2.662  0.00  0.00    +0.000 A 
ATOM     13  C1* UNL     1      30.283  14.013   3.209  0.00  0.00    +0.000 A 
ATOM     14  C2* UNL     1      29.319  13.616   2.262  0.00  0.00    +0.000 A 
ATOM     15  C4* UNL     1      29.465  12.033   3.894  0.00  0.00    +0.000 A 
BRANCH  12  16
ATOM     16  O3* UNL     1      27.515  11.975   2.399  0.00  0.00    +0.000 OA
ATOM     17  H3* UNL     1      26.881  12.320   3.054  0.00  0.00    +0.000 HD
ENDBRANCH  12  16
BRANCH  15  18
ATOM     18  C5* UNL     1      29.144  10.990   4.785  0.00  0.00    +0.000 C 
BRANCH  18  19
ATOM     19  O5* UNL     1      28.859  10.011   5.637  0.00  0.00    +0.000 OA
ATOM     20  H5* UNL     1      29.660   9.720   6.106  0.00  0.00    +0.000 HD
ENDBRANCH  18  19
ENDBRANCH  15  18
ENDBRANCH   4  13
TORSDOF 4
ENDMDL
MODEL 6
REMARK VINA RESULT:      -4.0     23.101     24.797
REMARK  Name = 3363_5FluorouracilDeoxyriboside.pdbqt.pdb
REMARK  4 active torsions:
REMARK  status: ('A' for Active; 'I' for Inactive)
REMARK    1  A    between atoms: N_4  and  C1*_13
REMARK    2  A    between atoms: C3*_12  and  O3*_16
REMARK    3  A    between atoms: C4*_15  and  C5*_18
REMARK    4  A    between atoms: C5*_18  and  O5*_19
REMARK                            x       y       z     vdW  Elec       q    Type
REMARK                         _______ _______ _______ _____ _____    ______ ____
ROOT
ATOM      1  F   UNL     1      43.583  23.827   6.091  0.00  0.00    +0.000 F 
ATOM      2  O   UNL     1      44.789  25.090  11.235  0.00  0.00    +0.000 OA
ATOM      3  O   UNL     1      45.858  25.361   6.780  0.00  0.00    +0.000 OA
ATOM      4  N   UNL     1      43.229  24.237   9.667  0.00  0.00    +0.000 N 
ATOM      5  N   UNL     1      45.231  25.271   8.994  0.00  0.00    +0.000 N 
ATOM      6  C   UNL     1      44.421  24.875  10.086  0.00  0.00    +0.000 C 
ATOM      7  C   UNL     1      43.038  24.104   8.339  0.00  0.00    +0.000 C 
ATOM      8  C   UNL     1      43.707  24.430   7.285  0.00  0.00    +0.000 C 
ATOM      9  C   UNL     1      45.022  25.063   7.624  0.00  0.00    +0.000 C 
ATOM     10  H   UNL     1      46.112  25.695   9.246  0.00  0.00    +0.000 HD
ENDROOT
BRANCH   4  13
ATOM     11  O4* UNL     1      41.596  24.579  11.419  0.00  0.00    +0.000 OA
ATOM     12  C3* UNL     1      40.836  22.403  11.661  0.00  0.00    +0.000 A 
ATOM     13  C1* UNL     1      42.282  23.750  10.522  0.00  0.00    +0.000 A 
ATOM     14  C2* UNL     1      41.820  22.427  10.656  0.00  0.00    +0.000 A 
ATOM     15  C4* UNL     1      40.704  23.763  12.125  0.00  0.00    +0.000 A 
BRANCH  12  16
ATOM     16  O3* UNL     1      39.784  21.531  11.667  0.00  0.00    +0.000 OA
ATOM     17  H3* UNL     1      40.034  20.657  12.019  0.00  0.00    +0.000 HD
ENDBRANCH  12  16
BRANCH  15  18
ATOM     18  C5* UNL     1      39.711  24.287  12.976  0.00  0.00    +0.000 C 
BRANCH  18  19
ATOM     19  O5* UNL     1      38.789  24.792  13.788  0.00  0.00    +0.000 OA
ATOM     20  H5* UNL     1      38.108  25.268  13.281  0.00  0.00    +0.000 HD
ENDBRANCH  18  19
ENDBRANCH  15  18
ENDBRANCH   4  13
TORSDOF 4
ENDMDL
MODEL 7
REMARK VINA RESULT:      -4.0     11.364     13.022
REMARK  Name = 3363_5FluorouracilDeoxyriboside.pdbqt.pdb
REMARK  4 active torsions:
REMARK  status: ('A' for Active; 'I' for Inactive)
REMARK    1  A    between atoms: N_4  and  C1*_13
REMARK    2  A    between atoms: C3*_12  and  O3*_16
REMARK    3  A    between atoms: C4*_15  and  C5*_18
REMARK    4  A    between atoms: C5*_18  and  O5*_19
REMARK                            x       y       z     vdW  Elec       q    Type
REMARK                         _______ _______ _______ _____ _____    ______ ____
ROOT
ATOM      1  F   UNL     1      53.109  -0.441   8.710  0.00  0.00    +0.000 F 
ATOM      2  O   UNL     1      48.353   2.177   8.907  0.00  0.00    +0.000 OA
ATOM      3  O   UNL     1      50.709  -1.587   7.746  0.00  0.00    +0.000 OA
ATOM      4  N   UNL     1      50.624   2.041   9.573  0.00  0.00    +0.000 N 
ATOM      5  N   UNL     1      49.557   0.287   8.427  0.00  0.00    +0.000 N 
ATOM      6  C   UNL     1      49.423   1.584   8.981  0.00  0.00    +0.000 C 
ATOM      7  C   UNL     1      51.686   1.210   9.530  0.00  0.00    +0.000 C 
ATOM      8  C   UNL     1      51.900   0.030   9.056  0.00  0.00    +0.000 C 
ATOM      9  C   UNL     1      50.698  -0.523   8.353  0.00  0.00    +0.000 C 
ATOM     10  H   UNL     1      48.735  -0.065   7.958  0.00  0.00    +0.000 HD
ENDROOT
BRANCH   4  13
ATOM     11  O4* UNL     1      51.294   3.401  11.459  0.00  0.00    +0.000 OA
ATOM     12  C3* UNL     1      50.777   5.498  10.618  0.00  0.00    +0.000 A 
ATOM     13  C1* UNL     1      50.766   3.262  10.168  0.00  0.00    +0.000 A 
ATOM     14  C2* UNL     1      50.458   4.533   9.647  0.00  0.00    +0.000 A 
ATOM     15  C4* UNL     1      51.305   4.771  11.747  0.00  0.00    +0.000 A 
BRANCH  12  16
ATOM     16  O3* UNL     1      51.189   6.765  10.316  0.00  0.00    +0.000 OA
ATOM     17  H3* UNL     1      50.751   7.436  10.872  0.00  0.00    +0.000 HD
ENDBRANCH  12  16
BRANCH  15  18
ATOM     18  C5* UNL     1      51.950   5.299  12.883  0.00  0.00    +0.000 C 
BRANCH  18  19
ATOM     19  O5* UNL     1      52.560   5.816  13.944  0.00  0.00    +0.000 OA
ATOM     20  H5* UNL     1      52.707   5.134  14.622  0.00  0.00    +0.000 HD
ENDBRANCH  18  19
ENDBRANCH  15  18
ENDBRANCH   4  13
TORSDOF 4
ENDMDL
MODEL 8
REMARK VINA RESULT:      -3.9     19.366     21.013
REMARK  Name = 3363_5FluorouracilDeoxyriboside.pdbqt.pdb
REMARK  4 active torsions:
REMARK  status: ('A' for Active; 'I' for Inactive)
REMARK    1  A    between atoms: N_4  and  C1*_13
REMARK    2  A    between atoms: C3*_12  and  O3*_16
REMARK    3  A    between atoms: C4*_15  and  C5*_18
REMARK    4  A    between atoms: C5*_18  and  O5*_19
REMARK                            x       y       z     vdW  Elec       q    Type
REMARK                         _______ _______ _______ _____ _____    ______ ____
ROOT
ATOM      1  F   UNL     1      52.856  16.598  20.229  0.00  0.00    +0.000 F 
ATOM      2  O   UNL     1      47.551  17.199  21.236  0.00  0.00    +0.000 OA
ATOM      3  O   UNL     1      51.493  15.035  22.153  0.00  0.00    +0.000 OA
ATOM      4  N   UNL     1      49.528  18.015  20.213  0.00  0.00    +0.000 N 
ATOM      5  N   UNL     1      49.561  16.210  21.720  0.00  0.00    +0.000 N 
ATOM      6  C   UNL     1      48.763  17.173  21.054  0.00  0.00    +0.000 C 
ATOM      7  C   UNL     1      50.858  17.793  20.167  0.00  0.00    +0.000 C 
ATOM      8  C   UNL     1      51.661  16.956  20.729  0.00  0.00    +0.000 C 
ATOM      9  C   UNL     1      50.937  15.976  21.601  0.00  0.00    +0.000 C 
ATOM     10  H   UNL     1      49.052  15.560  22.301  0.00  0.00    +0.000 HD
ENDROOT
BRANCH   4  13
ATOM     11  O4* UNL     1      49.046  20.359  19.855  0.00  0.00    +0.000 OA
ATOM     12  C3* UNL     1      47.993  20.221  17.796  0.00  0.00    +0.000 A 
ATOM     13  C1* UNL     1      49.000  19.018  19.451  0.00  0.00    +0.000 A 
ATOM     14  C2* UNL     1      48.369  18.926  18.196  0.00  0.00    +0.000 A 
ATOM     15  C4* UNL     1      48.430  21.108  18.846  0.00  0.00    +0.000 A 
BRANCH  12  16
ATOM     16  O3* UNL     1      47.931  20.619  16.490  0.00  0.00    +0.000 OA
ATOM     17  H3* UNL     1      48.582  20.154  15.933  0.00  0.00    +0.000 HD
ENDBRANCH  12  16
BRANCH  15  18
ATOM     18  C5* UNL     1      48.467  22.516  18.820  0.00  0.00    +0.000 C 
BRANCH  18  19
ATOM     19  O5* UNL     1      48.489  23.845  18.812  0.00  0.00    +0.000 OA
ATOM     20  H5* UNL     1      47.634  24.204  19.106  0.00  0.00    +0.000 HD
ENDBRANCH  18  19
ENDBRANCH  15  18
ENDBRANCH   4  13
TORSDOF 4
ENDMDL
MODEL 9
REMARK VINA RESULT:      -3.9     22.900     24.239
REMARK  Name = 3363_5FluorouracilDeoxyriboside.pdbqt.pdb
REMARK  4 active torsions:
REMARK  status: ('A' for Active; 'I' for Inactive)
REMARK    1  A    between atoms: N_4  and  C1*_13
REMARK    2  A    between atoms: C3*_12  and  O3*_16
REMARK    3  A    between atoms: C4*_15  and  C5*_18
REMARK    4  A    between atoms: C5*_18  and  O5*_19
REMARK                            x       y       z     vdW  Elec       q    Type
REMARK                         _______ _______ _______ _____ _____    ______ ____
ROOT
ATOM      1  F   UNL     1      40.533  22.004  11.702  0.00  0.00    +0.000 F 
ATOM      2  O   UNL     1      44.830  24.964  13.214  0.00  0.00    +0.000 OA
ATOM      3  O   UNL     1      42.456  22.938   9.849  0.00  0.00    +0.000 OA
ATOM      4  N   UNL     1      42.726  24.015  13.757  0.00  0.00    +0.000 N 
ATOM      5  N   UNL     1      43.563  24.011  11.560  0.00  0.00    +0.000 N 
ATOM      6  C   UNL     1      43.793  24.389  12.905  0.00  0.00    +0.000 C 
ATOM      7  C   UNL     1      41.681  23.379  13.190  0.00  0.00    +0.000 C 
ATOM      8  C   UNL     1      41.386  23.000  11.993  0.00  0.00    +0.000 C 
ATOM      9  C   UNL     1      42.484  23.299  11.019  0.00  0.00    +0.000 C 
ATOM     10  H   UNL     1      44.316  24.222  10.921  0.00  0.00    +0.000 HD
ENDROOT
BRANCH   4  13
ATOM     11  O4* UNL     1      41.706  25.033  15.700  0.00  0.00    +0.000 OA
ATOM     12  C3* UNL     1      43.167  24.283  17.335  0.00  0.00    +0.000 A 
ATOM     13  C1* UNL     1      42.703  24.252  15.102  0.00  0.00    +0.000 A 
ATOM     14  C2* UNL     1      43.591  23.785  16.090  0.00  0.00    +0.000 A 
ATOM     15  C4* UNL     1      41.980  25.060  17.073  0.00  0.00    +0.000 A 
BRANCH  12  16
ATOM     16  O3* UNL     1      43.353  23.620  18.515  0.00  0.00    +0.000 OA
ATOM     17  H3* UNL     1      44.294  23.571  18.764  0.00  0.00    +0.000 HD
ENDBRANCH  12  16
BRANCH  15  18
ATOM     18  C5* UNL     1      41.076  25.590  18.014  0.00  0.00    +0.000 C 
BRANCH  18  19
ATOM     19  O5* UNL     1      40.208  26.080  18.892  0.00  0.00    +0.000 OA
ATOM     20  H5* UNL     1      39.304  26.055  18.532  0.00  0.00    +0.000 HD
ENDBRANCH  18  19
ENDBRANCH  15  18
ENDBRANCH   4  13
TORSDOF 4
ENDMDL
