REMARK  Name = 3385_5Fluorouracil.pdbqt.pdb
REMARK  0 active torsions:
REMARK  status: ('A' for Active; 'I' for Inactive)
REMARK                            x       y       z     vdW  Elec       q    Type
REMARK                         _______ _______ _______ _____ _____    ______ ____
ROOT
ATOM      1  F   UNL     1      -2.459  -0.903  -0.189  0.00  0.00    +0.000 F 
ATOM      2  O   UNL     1      -1.567   1.779  -0.003  0.00  0.00    +0.000 OA
ATOM      3  O   UNL     1       2.820   0.355  -0.070  0.00  0.00    +0.000 OA
ATOM      4  N   UNL     1       0.618   1.056   0.033  0.00  0.00    +0.000 N 
ATOM      5  N   UNL     1       1.130  -1.208   0.013  0.00  0.00    +0.000 N 
ATOM      6  C   UNL     1      -0.769   0.851   0.054  0.00  0.00    +0.000 C 
ATOM      7  C   UNL     1       1.629   0.086  -0.010  0.00  0.00    +0.000 C 
ATOM      8  C   UNL     1      -1.194  -0.588   0.134  0.00  0.00    +0.000 C 
ATOM      9  C   UNL     1      -0.195  -1.403   0.076  0.00  0.00    +0.000 C 
ATOM     10  H   UNL     1       0.925   2.016  -0.019  0.00  0.00    +0.000 HD
ATOM     11  H   UNL     1       1.780  -1.983  -0.020  0.00  0.00    +0.000 HD
ENDROOT
TORSDOF 0
