MODEL 1
REMARK VINA RESULT:      -5.2      0.000      0.000
REMARK  Name = 3385_5Fluorouracil.pdbqt.pdb
REMARK  0 active torsions:
REMARK  status: ('A' for Active; 'I' for Inactive)
REMARK                            x       y       z     vdW  Elec       q    Type
REMARK                         _______ _______ _______ _____ _____    ______ ____
ROOT
ATOM      1  F   UNL     1      43.119  -1.949  12.838  0.00  0.00    +0.000 F 
ATOM      2  O   UNL     1      41.170  -1.159  10.941  0.00  0.00    +0.000 OA
ATOM      3  O   UNL     1      39.418   1.861  13.957  0.00  0.00    +0.000 OA
ATOM      4  N   UNL     1      40.258   0.295  12.475  0.00  0.00    +0.000 N 
ATOM      5  N   UNL     1      41.094   0.434  14.636  0.00  0.00    +0.000 N 
ATOM      6  C   UNL     1      41.135  -0.729  12.088  0.00  0.00    +0.000 C 
ATOM      7  C   UNL     1      40.189   0.942  13.717  0.00  0.00    +0.000 C 
ATOM      8  C   UNL     1      42.032  -1.239  13.180  0.00  0.00    +0.000 C 
ATOM      9  C   UNL     1      41.902  -0.574  14.278  0.00  0.00    +0.000 C 
ATOM     10  H   UNL     1      39.646   0.652  11.757  0.00  0.00    +0.000 HD
ATOM     11  H   UNL     1      41.127   0.838  15.564  0.00  0.00    +0.000 HD
ENDROOT
TORSDOF 0
ENDMDL
MODEL 2
REMARK VINA RESULT:      -5.0      2.090      2.407
REMARK  Name = 3385_5Fluorouracil.pdbqt.pdb
REMARK  0 active torsions:
REMARK  status: ('A' for Active; 'I' for Inactive)
REMARK                            x       y       z     vdW  Elec       q    Type
REMARK                         _______ _______ _______ _____ _____    ______ ____
ROOT
ATOM      1  F   UNL     1      40.516  -2.296  11.431  0.00  0.00    +0.000 F 
ATOM      2  O   UNL     1      39.189  -0.049  12.532  0.00  0.00    +0.000 OA
ATOM      3  O   UNL     1      42.664   0.588  15.497  0.00  0.00    +0.000 OA
ATOM      4  N   UNL     1      40.894   0.220  14.054  0.00  0.00    +0.000 N 
ATOM      5  N   UNL     1      42.672  -1.270  14.135  0.00  0.00    +0.000 N 
ATOM      6  C   UNL     1      40.222  -0.472  13.036  0.00  0.00    +0.000 C 
ATOM      7  C   UNL     1      42.127  -0.099  14.640  0.00  0.00    +0.000 C 
ATOM      8  C   UNL     1      40.876  -1.754  12.606  0.00  0.00    +0.000 C 
ATOM      9  C   UNL     1      42.008  -1.954  13.192  0.00  0.00    +0.000 C 
ATOM     10  H   UNL     1      40.471   1.084  14.359  0.00  0.00    +0.000 HD
ATOM     11  H   UNL     1      43.565  -1.586  14.490  0.00  0.00    +0.000 HD
ENDROOT
TORSDOF 0
ENDMDL
MODEL 3
REMARK VINA RESULT:      -4.9      1.585      2.214
REMARK  Name = 3385_5Fluorouracil.pdbqt.pdb
REMARK  0 active torsions:
REMARK  status: ('A' for Active; 'I' for Inactive)
REMARK                            x       y       z     vdW  Elec       q    Type
REMARK                         _______ _______ _______ _____ _____    ______ ____
ROOT
ATOM      1  F   UNL     1      42.977  -2.426  12.799  0.00  0.00    +0.000 F 
ATOM      2  O   UNL     1      42.943  -0.949  15.215  0.00  0.00    +0.000 OA
ATOM      3  O   UNL     1      39.270   1.424  13.745  0.00  0.00    +0.000 OA
ATOM      4  N   UNL     1      41.153   0.278  14.446  0.00  0.00    +0.000 N 
ATOM      5  N   UNL     1      40.301  -0.056  12.313  0.00  0.00    +0.000 N 
ATOM      6  C   UNL     1      42.184  -0.660  14.297  0.00  0.00    +0.000 C 
ATOM      7  C   UNL     1      40.163   0.621  13.516  0.00  0.00    +0.000 C 
ATOM      8  C   UNL     1      42.273  -1.291  12.936  0.00  0.00    +0.000 C 
ATOM      9  C   UNL     1      41.313  -0.922  12.156  0.00  0.00    +0.000 C 
ATOM     10  H   UNL     1      41.078   0.715  15.353  0.00  0.00    +0.000 HD
ATOM     11  H   UNL     1      39.631   0.117  11.575  0.00  0.00    +0.000 HD
ENDROOT
TORSDOF 0
ENDMDL
MODEL 4
REMARK VINA RESULT:      -4.2     19.444     19.828
REMARK  Name = 3385_5Fluorouracil.pdbqt.pdb
REMARK  0 active torsions:
REMARK  status: ('A' for Active; 'I' for Inactive)
REMARK                            x       y       z     vdW  Elec       q    Type
REMARK                         _______ _______ _______ _____ _____    ______ ____
ROOT
ATOM      1  F   UNL     1      49.685  16.936  11.242  0.00  0.00    +0.000 F 
ATOM      2  O   UNL     1      51.413  16.944   8.998  0.00  0.00    +0.000 OA
ATOM      3  O   UNL     1      47.837  17.793   6.210  0.00  0.00    +0.000 OA
ATOM      4  N   UNL     1      49.614  17.298   7.606  0.00  0.00    +0.000 N 
ATOM      5  N   UNL     1      47.451  17.387   8.445  0.00  0.00    +0.000 N 
ATOM      6  C   UNL     1      50.199  17.023   8.850  0.00  0.00    +0.000 C 
ATOM      7  C   UNL     1      48.258  17.514   7.324  0.00  0.00    +0.000 C 
ATOM      8  C   UNL     1      49.226  16.852   9.982  0.00  0.00    +0.000 C 
ATOM      9  C   UNL     1      48.007  17.082   9.626  0.00  0.00    +0.000 C 
ATOM     10  H   UNL     1      50.250  17.416   6.832  0.00  0.00    +0.000 HD
ATOM     11  H   UNL     1      46.454  17.529   8.348  0.00  0.00    +0.000 HD
ENDROOT
TORSDOF 0
ENDMDL
MODEL 5
REMARK VINA RESULT:      -4.0      3.378      3.832
REMARK  Name = 3385_5Fluorouracil.pdbqt.pdb
REMARK  0 active torsions:
REMARK  status: ('A' for Active; 'I' for Inactive)
REMARK                            x       y       z     vdW  Elec       q    Type
REMARK                         _______ _______ _______ _____ _____    ______ ____
ROOT
ATOM      1  F   UNL     1      39.297  -0.929  13.873  0.00  0.00    +0.000 F 
ATOM      2  O   UNL     1      39.771  -0.834  16.664  0.00  0.00    +0.000 OA
ATOM      3  O   UNL     1      39.728   3.778  16.543  0.00  0.00    +0.000 OA
ATOM      4  N   UNL     1      39.817   1.466  16.584  0.00  0.00    +0.000 N 
ATOM      5  N   UNL     1      39.600   2.598  14.569  0.00  0.00    +0.000 N 
ATOM      6  C   UNL     1      39.768   0.194  15.997  0.00  0.00    +0.000 C 
ATOM      7  C   UNL     1      39.719   2.711  15.946  0.00  0.00    +0.000 C 
ATOM      8  C   UNL     1      39.695   0.193  14.496  0.00  0.00    +0.000 C 
ATOM      9  C   UNL     1      39.596   1.382  14.004  0.00  0.00    +0.000 C 
ATOM     10  H   UNL     1      39.868   1.490  17.591  0.00  0.00    +0.000 HD
ATOM     11  H   UNL     1      39.517   3.441  14.015  0.00  0.00    +0.000 HD
ENDROOT
TORSDOF 0
ENDMDL
MODEL 6
REMARK VINA RESULT:      -3.9     17.199     17.934
REMARK  Name = 3385_5Fluorouracil.pdbqt.pdb
REMARK  0 active torsions:
REMARK  status: ('A' for Active; 'I' for Inactive)
REMARK                            x       y       z     vdW  Elec       q    Type
REMARK                         _______ _______ _______ _____ _____    ______ ____
ROOT
ATOM      1  F   UNL     1      30.805   0.664  -2.675  0.00  0.00    +0.000 F 
ATOM      2  O   UNL     1      29.880  -1.704  -1.424  0.00  0.00    +0.000 OA
ATOM      3  O   UNL     1      34.196  -3.322  -1.233  0.00  0.00    +0.000 OA
ATOM      4  N   UNL     1      32.027  -2.534  -1.396  0.00  0.00    +0.000 N 
ATOM      5  N   UNL     1      33.783  -1.345  -2.340  0.00  0.00    +0.000 N 
ATOM      6  C   UNL     1      31.053  -1.593  -1.761  0.00  0.00    +0.000 C 
ATOM      7  C   UNL     1      33.408  -2.474  -1.627  0.00  0.00    +0.000 C 
ATOM      8  C   UNL     1      31.564  -0.440  -2.578  0.00  0.00    +0.000 C 
ATOM      9  C   UNL     1      32.845  -0.467  -2.726  0.00  0.00    +0.000 C 
ATOM     10  H   UNL     1      31.705  -3.318  -0.848  0.00  0.00    +0.000 HD
ATOM     11  H   UNL     1      34.762  -1.204  -2.554  0.00  0.00    +0.000 HD
ENDROOT
TORSDOF 0
ENDMDL
MODEL 7
REMARK VINA RESULT:      -3.7     22.279     22.833
REMARK  Name = 3385_5Fluorouracil.pdbqt.pdb
REMARK  0 active torsions:
REMARK  status: ('A' for Active; 'I' for Inactive)
REMARK                            x       y       z     vdW  Elec       q    Type
REMARK                         _______ _______ _______ _____ _____    ______ ____
ROOT
ATOM      1  F   UNL     1      46.039  10.247  -4.854  0.00  0.00    +0.000 F 
ATOM      2  O   UNL     1      44.962  12.781  -5.518  0.00  0.00    +0.000 OA
ATOM      3  O   UNL     1      48.951  14.804  -4.391  0.00  0.00    +0.000 OA
ATOM      4  N   UNL     1      46.932  13.790  -4.888  0.00  0.00    +0.000 N 
ATOM      5  N   UNL     1      48.685  12.549  -4.008  0.00  0.00    +0.000 N 
ATOM      6  C   UNL     1      46.072  12.689  -5.007  0.00  0.00    +0.000 C 
ATOM      7  C   UNL     1      48.254  13.801  -4.421  0.00  0.00    +0.000 C 
ATOM      8  C   UNL     1      46.623  11.396  -4.478  0.00  0.00    +0.000 C 
ATOM      9  C   UNL     1      47.847  11.505  -4.082  0.00  0.00    +0.000 C 
ATOM     10  H   UNL     1      46.580  14.669  -5.237  0.00  0.00    +0.000 HD
ATOM     11  H   UNL     1      49.629  12.448  -3.658  0.00  0.00    +0.000 HD
ENDROOT
TORSDOF 0
ENDMDL
MODEL 8
REMARK VINA RESULT:      -3.6      3.986      4.793
REMARK  Name = 3385_5Fluorouracil.pdbqt.pdb
REMARK  0 active torsions:
REMARK  status: ('A' for Active; 'I' for Inactive)
REMARK                            x       y       z     vdW  Elec       q    Type
REMARK                         _______ _______ _______ _____ _____    ______ ____
ROOT
ATOM      1  F   UNL     1      38.289   1.361  17.954  0.00  0.00    +0.000 F 
ATOM      2  O   UNL     1      38.608  -1.257  16.920  0.00  0.00    +0.000 OA
ATOM      3  O   UNL     1      42.650  -0.056  15.049  0.00  0.00    +0.000 OA
ATOM      4  N   UNL     1      40.590  -0.631  15.931  0.00  0.00    +0.000 N 
ATOM      5  N   UNL     1      41.355   1.556  16.063  0.00  0.00    +0.000 N 
ATOM      6  C   UNL     1      39.402  -0.371  16.629  0.00  0.00    +0.000 C 
ATOM      7  C   UNL     1      41.623   0.267  15.627  0.00  0.00    +0.000 C 
ATOM      8  C   UNL     1      39.192   1.069  17.003  0.00  0.00    +0.000 C 
ATOM      9  C   UNL     1      40.200   1.813  16.693  0.00  0.00    +0.000 C 
ATOM     10  H   UNL     1      40.750  -1.592  15.669  0.00  0.00    +0.000 HD
ATOM     11  H   UNL     1      42.042   2.281  15.897  0.00  0.00    +0.000 HD
ENDROOT
TORSDOF 0
ENDMDL
MODEL 9
REMARK VINA RESULT:      -3.6      2.471      2.561
REMARK  Name = 3385_5Fluorouracil.pdbqt.pdb
REMARK  0 active torsions:
REMARK  status: ('A' for Active; 'I' for Inactive)
REMARK                            x       y       z     vdW  Elec       q    Type
REMARK                         _______ _______ _______ _____ _____    ______ ____
ROOT
ATOM      1  F   UNL     1      42.355  -1.351  11.422  0.00  0.00    +0.000 F 
ATOM      2  O   UNL     1      41.555  -3.879  12.417  0.00  0.00    +0.000 OA
ATOM      3  O   UNL     1      38.736  -1.829  15.439  0.00  0.00    +0.000 OA
ATOM      4  N   UNL     1      40.204  -2.847  13.968  0.00  0.00    +0.000 N 
ATOM      5  N   UNL     1      40.129  -0.533  14.140  0.00  0.00    +0.000 N 
ATOM      6  C   UNL     1      41.177  -2.847  12.959  0.00  0.00    +0.000 C 
ATOM      7  C   UNL     1      39.614  -1.739  14.593  0.00  0.00    +0.000 C 
ATOM      8  C   UNL     1      41.701  -1.489  12.586  0.00  0.00    +0.000 C 
ATOM      9  C   UNL     1      41.090  -0.536  13.205  0.00  0.00    +0.000 C 
ATOM     10  H   UNL     1      39.839  -3.750  14.235  0.00  0.00    +0.000 HD
ATOM     11  H   UNL     1      39.765   0.329  14.525  0.00  0.00    +0.000 HD
ENDROOT
TORSDOF 0
ENDMDL
