MODEL 1
REMARK VINA RESULT:      -6.6      0.000      0.000
REMARK  Name = 342374_SipholenolA.pdbqt.pdb
REMARK  5 active torsions:
REMARK  status: ('A' for Active; 'I' for Inactive)
REMARK    1  A    between atoms: C_3  and  C_20
REMARK    2  A    between atoms: C_4  and  O_16
REMARK    3  A    between atoms: C_13  and  O_18
REMARK    4  A    between atoms: C_21  and  C_25
REMARK    5  A    between atoms: C_26  and  O_36
REMARK                            x       y       z     vdW  Elec       q    Type
REMARK                         _______ _______ _______ _____ _____    ______ ____
ROOT
ATOM      1  O   UNL     1      53.138   7.206   4.231  0.00  0.00    +0.000 OA
ATOM      2  C   UNL     1      52.108   6.127   6.375  0.00  0.00    +0.000 C 
ATOM      3  C   UNL     1      52.031   4.835   7.193  0.00  0.00    +0.000 C 
ATOM      4  C   UNL     1      51.860   3.502   6.484  0.00  0.00    +0.000 C 
ATOM      5  C   UNL     1      52.833   6.050   4.960  0.00  0.00    +0.000 C 
ATOM      6  C   UNL     1      52.938   7.122   7.071  0.00  0.00    +0.000 C 
ATOM      7  C   UNL     1      52.261   3.652   5.099  0.00  0.00    +0.000 C 
ATOM      8  C   UNL     1      52.746   4.811   4.296  0.00  0.00    +0.000 C 
ATOM      9  C   UNL     1      50.675   6.680   6.145  0.00  0.00    +0.000 C 
ATOM     10  C   UNL     1      53.998   8.164   6.810  0.00  0.00    +0.000 C 
ATOM     11  C   UNL     1      54.481   7.780   4.336  0.00  0.00    +0.000 C 
ATOM     12  C   UNL     1      52.666   2.398   7.185  0.00  0.00    +0.000 C 
ATOM     13  C   UNL     1      54.686   8.588   5.652  0.00  0.00    +0.000 C 
ATOM     14  C   UNL     1      55.590   6.690   4.250  0.00  0.00    +0.000 C 
ATOM     15  C   UNL     1      54.644   8.781   3.154  0.00  0.00    +0.000 C 
ENDROOT
BRANCH   4  16
ATOM     16  O   UNL     1      50.517   3.094   6.552  0.00  0.00    +0.000 OA
ATOM     17  H   UNL     1      50.601   2.134   6.412  0.00  0.00    +0.000 HD
ENDBRANCH   4  16
BRANCH  13  18
ATOM     18  O   UNL     1      55.503   9.712   5.727  0.00  0.00    +0.000 OA
ATOM     19  H   UNL     1      55.027  10.475   6.115  0.00  0.00    +0.000 HD
ENDBRANCH  13  18
BRANCH   3  20
ATOM     20  C   UNL     1      51.884   4.904   8.624  0.00  0.00    +0.000 C 
ATOM     21  C   UNL     1      51.738   4.991  10.146  0.00  0.00    +0.000 C 
BRANCH  21  25
ATOM     22  C   UNL     1      52.950   6.849  12.973  0.00  0.00    +0.000 C 
ATOM     23  C   UNL     1      51.603   6.431  12.322  0.00  0.00    +0.000 C 
ATOM     24  C   UNL     1      53.694   6.060  14.011  0.00  0.00    +0.000 C 
ATOM     25  C   UNL     1      51.607   5.078  11.572  0.00  0.00    +0.000 C 
ATOM     26  C   UNL     1      54.742   6.885  14.749  0.00  0.00    +0.000 C 
ATOM     27  C   UNL     1      53.502   8.164  13.022  0.00  0.00    +0.000 C 
ATOM     28  C   UNL     1      54.563   8.173  14.088  0.00  0.00    +0.000 C 
ATOM     29  C   UNL     1      53.368   4.697  14.137  0.00  0.00    +0.000 C 
ATOM     30  C   UNL     1      51.638   3.830  12.335  0.00  0.00    +0.000 C 
ATOM     31  C   UNL     1      51.194   7.561  11.304  0.00  0.00    +0.000 C 
ATOM     32  C   UNL     1      50.503   6.421  13.438  0.00  0.00    +0.000 C 
ATOM     33  C   UNL     1      52.437   3.809  13.355  0.00  0.00    +0.000 C 
ATOM     34  C   UNL     1      56.136   6.284  14.641  0.00  0.00    +0.000 C 
ATOM     35  C   UNL     1      51.192   2.500  11.788  0.00  0.00    +0.000 C 
BRANCH  26  36
ATOM     36  O   UNL     1      54.426   6.968  16.114  0.00  0.00    +0.000 OA
ATOM     37  H   UNL     1      54.706   7.879  16.313  0.00  0.00    +0.000 HD
ENDBRANCH  26  36
ENDBRANCH  21  25
ENDBRANCH   3  20
TORSDOF 5
ENDMDL
MODEL 2
REMARK VINA RESULT:      -6.5      4.686      6.951
REMARK  Name = 342374_SipholenolA.pdbqt.pdb
REMARK  5 active torsions:
REMARK  status: ('A' for Active; 'I' for Inactive)
REMARK    1  A    between atoms: C_3  and  C_20
REMARK    2  A    between atoms: C_4  and  O_16
REMARK    3  A    between atoms: C_13  and  O_18
REMARK    4  A    between atoms: C_21  and  C_25
REMARK    5  A    between atoms: C_26  and  O_36
REMARK                            x       y       z     vdW  Elec       q    Type
REMARK                         _______ _______ _______ _____ _____    ______ ____
ROOT
ATOM      1  O   UNL     1      52.293  -1.174   2.286  0.00  0.00    +0.000 OA
ATOM      2  C   UNL     1      51.451  -0.959   4.749  0.00  0.00    +0.000 C 
ATOM      3  C   UNL     1      51.271  -1.722   6.064  0.00  0.00    +0.000 C 
ATOM      4  C   UNL     1      50.739  -3.145   6.045  0.00  0.00    +0.000 C 
ATOM      5  C   UNL     1      51.903  -1.800   3.476  0.00  0.00    +0.000 C 
ATOM      6  C   UNL     1      52.557   0.005   4.866  0.00  0.00    +0.000 C 
ATOM      7  C   UNL     1      50.924  -3.697   4.717  0.00  0.00    +0.000 C 
ATOM      8  C   UNL     1      51.477  -3.143   3.448  0.00  0.00    +0.000 C 
ATOM      9  C   UNL     1      50.128  -0.227   4.390  0.00  0.00    +0.000 C 
ATOM     10  C   UNL     1      53.734   0.548   4.094  0.00  0.00    +0.000 C 
ATOM     11  C   UNL     1      53.718  -0.952   2.032  0.00  0.00    +0.000 C 
ATOM     12  C   UNL     1      51.429  -4.006   7.113  0.00  0.00    +0.000 C 
ATOM     13  C   UNL     1      54.286   0.262   2.827  0.00  0.00    +0.000 C 
ATOM     14  C   UNL     1      54.574  -2.207   2.373  0.00  0.00    +0.000 C 
ATOM     15  C   UNL     1      53.866  -0.618   0.518  0.00  0.00    +0.000 C 
ENDROOT
BRANCH   4  16
ATOM     16  O   UNL     1      49.373  -3.148   6.378  0.00  0.00    +0.000 OA
ATOM     17  H   UNL     1      49.038  -3.859   5.802  0.00  0.00    +0.000 HD
ENDBRANCH   4  16
BRANCH  13  18
ATOM     18  O   UNL     1      55.300   1.077   2.333  0.00  0.00    +0.000 OA
ATOM     19  H   UNL     1      55.054   2.025   2.386  0.00  0.00    +0.000 HD
ENDBRANCH  13  18
BRANCH   3  20
ATOM     20  C   UNL     1      51.379  -1.020   7.317  0.00  0.00    +0.000 C 
ATOM     21  C   UNL     1      51.500  -0.259   8.641  0.00  0.00    +0.000 C 
BRANCH  21  25
ATOM     22  C   UNL     1      50.147   2.577  10.385  0.00  0.00    +0.000 C 
ATOM     23  C   UNL     1      50.392   1.060  10.606  0.00  0.00    +0.000 C 
ATOM     24  C   UNL     1      51.120   3.670  10.720  0.00  0.00    +0.000 C 
ATOM     25  C   UNL     1      51.617   0.460   9.877  0.00  0.00    +0.000 C 
ATOM     26  C   UNL     1      50.471   5.048  10.779  0.00  0.00    +0.000 C 
ATOM     27  C   UNL     1      48.886   3.223  10.219  0.00  0.00    +0.000 C 
ATOM     28  C   UNL     1      49.092   4.693  10.464  0.00  0.00    +0.000 C 
ATOM     29  C   UNL     1      52.467   3.302  10.890  0.00  0.00    +0.000 C 
ATOM     30  C   UNL     1      52.964   0.759  10.365  0.00  0.00    +0.000 C 
ATOM     31  C   UNL     1      49.103   0.293  10.122  0.00  0.00    +0.000 C 
ATOM     32  C   UNL     1      50.507   0.803  12.147  0.00  0.00    +0.000 C 
ATOM     33  C   UNL     1      53.178   1.986  10.721  0.00  0.00    +0.000 C 
ATOM     34  C   UNL     1      51.123   6.040   9.826  0.00  0.00    +0.000 C 
ATOM     35  C   UNL     1      54.173  -0.088  10.064  0.00  0.00    +0.000 C 
BRANCH  26  36
ATOM     36  O   UNL     1      50.573   5.582  12.073  0.00  0.00    +0.000 OA
ATOM     37  H   UNL     1      51.305   6.212  11.955  0.00  0.00    +0.000 HD
ENDBRANCH  26  36
ENDBRANCH  21  25
ENDBRANCH   3  20
TORSDOF 5
ENDMDL
MODEL 3
REMARK VINA RESULT:      -6.5      2.902      9.333
REMARK  Name = 342374_SipholenolA.pdbqt.pdb
REMARK  5 active torsions:
REMARK  status: ('A' for Active; 'I' for Inactive)
REMARK    1  A    between atoms: C_3  and  C_20
REMARK    2  A    between atoms: C_4  and  O_16
REMARK    3  A    between atoms: C_13  and  O_18
REMARK    4  A    between atoms: C_21  and  C_25
REMARK    5  A    between atoms: C_26  and  O_36
REMARK                            x       y       z     vdW  Elec       q    Type
REMARK                         _______ _______ _______ _____ _____    ______ ____
ROOT
ATOM      1  O   UNL     1      56.695   3.853  17.323  0.00  0.00    +0.000 OA
ATOM      2  C   UNL     1      55.114   3.643  15.254  0.00  0.00    +0.000 C 
ATOM      3  C   UNL     1      53.913   2.878  14.691  0.00  0.00    +0.000 C 
ATOM      4  C   UNL     1      53.827   1.372  14.865  0.00  0.00    +0.000 C 
ATOM      5  C   UNL     1      55.737   3.113  16.621  0.00  0.00    +0.000 C 
ATOM      6  C   UNL     1      54.720   5.010  15.628  0.00  0.00    +0.000 C 
ATOM      7  C   UNL     1      54.699   0.975  15.952  0.00  0.00    +0.000 C 
ATOM      8  C   UNL     1      55.626   1.727  16.846  0.00  0.00    +0.000 C 
ATOM      9  C   UNL     1      56.251   3.674  14.196  0.00  0.00    +0.000 C 
ATOM     10  C   UNL     1      54.922   6.042  16.710  0.00  0.00    +0.000 C 
ATOM     11  C   UNL     1      56.263   4.715  18.426  0.00  0.00    +0.000 C 
ATOM     12  C   UNL     1      52.378   0.928  15.116  0.00  0.00    +0.000 C 
ATOM     13  C   UNL     1      55.632   6.051  17.930  0.00  0.00    +0.000 C 
ATOM     14  C   UNL     1      55.237   4.002  19.355  0.00  0.00    +0.000 C 
ATOM     15  C   UNL     1      57.536   5.084  19.244  0.00  0.00    +0.000 C 
ENDROOT
BRANCH   4  16
ATOM     16  O   UNL     1      54.221   0.731  13.677  0.00  0.00    +0.000 OA
ATOM     17  H   UNL     1      53.812  -0.145  13.789  0.00  0.00    +0.000 HD
ENDBRANCH   4  16
BRANCH  13  18
ATOM     18  O   UNL     1      55.753   7.246  18.631  0.00  0.00    +0.000 OA
ATOM     19  H   UNL     1      56.692   7.457  18.820  0.00  0.00    +0.000 HD
ENDBRANCH  13  18
BRANCH   3  20
ATOM     20  C   UNL     1      52.997   3.546  13.803  0.00  0.00    +0.000 C 
ATOM     21  C   UNL     1      52.019   4.241  12.850  0.00  0.00    +0.000 C 
BRANCH  21  25
ATOM     22  C   UNL     1      51.162   4.436   9.365  0.00  0.00    +0.000 C 
ATOM     23  C   UNL     1      50.486   4.156  10.735  0.00  0.00    +0.000 C 
ATOM     24  C   UNL     1      51.301   5.788   8.727  0.00  0.00    +0.000 C 
ATOM     25  C   UNL     1      51.102   4.884  11.953  0.00  0.00    +0.000 C 
ATOM     26  C   UNL     1      51.627   5.713   7.240  0.00  0.00    +0.000 C 
ATOM     27  C   UNL     1      51.399   3.492   8.321  0.00  0.00    +0.000 C 
ATOM     28  C   UNL     1      51.667   4.266   7.060  0.00  0.00    +0.000 C 
ATOM     29  C   UNL     1      51.159   6.910   9.563  0.00  0.00    +0.000 C 
ATOM     30  C   UNL     1      50.878   6.320  12.125  0.00  0.00    +0.000 C 
ATOM     31  C   UNL     1      50.561   2.604  10.995  0.00  0.00    +0.000 C 
ATOM     32  C   UNL     1      48.965   4.511  10.612  0.00  0.00    +0.000 C 
ATOM     33  C   UNL     1      50.963   7.039  11.049  0.00  0.00    +0.000 C 
ATOM     34  C   UNL     1      52.911   6.451   6.888  0.00  0.00    +0.000 C 
ATOM     35  C   UNL     1      51.009   7.039  13.441  0.00  0.00    +0.000 C 
BRANCH  26  36
ATOM     36  O   UNL     1      50.593   6.289   6.484  0.00  0.00    +0.000 OA
ATOM     37  H   UNL     1      49.988   6.578   7.189  0.00  0.00    +0.000 HD
ENDBRANCH  26  36
ENDBRANCH  21  25
ENDBRANCH   3  20
TORSDOF 5
ENDMDL
MODEL 4
REMARK VINA RESULT:      -5.2     10.904     13.164
REMARK  Name = 342374_SipholenolA.pdbqt.pdb
REMARK  5 active torsions:
REMARK  status: ('A' for Active; 'I' for Inactive)
REMARK    1  A    between atoms: C_3  and  C_20
REMARK    2  A    between atoms: C_4  and  O_16
REMARK    3  A    between atoms: C_13  and  O_18
REMARK    4  A    between atoms: C_21  and  C_25
REMARK    5  A    between atoms: C_26  and  O_36
REMARK                            x       y       z     vdW  Elec       q    Type
REMARK                         _______ _______ _______ _____ _____    ______ ____
ROOT
ATOM      1  O   UNL     1      54.739  21.341   7.000  0.00  0.00    +0.000 OA
ATOM      2  C   UNL     1      53.992  19.257   8.385  0.00  0.00    +0.000 C 
ATOM      3  C   UNL     1      54.477  17.933   8.982  0.00  0.00    +0.000 C 
ATOM      4  C   UNL     1      55.382  17.023   8.169  0.00  0.00    +0.000 C 
ATOM      5  C   UNL     1      55.000  20.035   7.429  0.00  0.00    +0.000 C 
ATOM      6  C   UNL     1      53.779  20.249   9.450  0.00  0.00    +0.000 C 
ATOM      7  C   UNL     1      56.004  17.801   7.116  0.00  0.00    +0.000 C 
ATOM      8  C   UNL     1      55.896  19.229   6.700  0.00  0.00    +0.000 C 
ATOM      9  C   UNL     1      52.677  19.017   7.594  0.00  0.00    +0.000 C 
ATOM     10  C   UNL     1      53.998  21.709   9.761  0.00  0.00    +0.000 C 
ATOM     11  C   UNL     1      55.338  22.463   7.728  0.00  0.00    +0.000 C 
ATOM     12  C   UNL     1      56.431  16.347   9.064  0.00  0.00    +0.000 C 
ATOM     13  C   UNL     1      54.593  22.779   9.059  0.00  0.00    +0.000 C 
ATOM     14  C   UNL     1      56.841  22.212   8.052  0.00  0.00    +0.000 C 
ATOM     15  C   UNL     1      55.206  23.721   6.819  0.00  0.00    +0.000 C 
ENDROOT
BRANCH   4  16
ATOM     16  O   UNL     1      54.628  15.977   7.609  0.00  0.00    +0.000 OA
ATOM     17  H   UNL     1      55.069  15.865   6.748  0.00  0.00    +0.000 HD
ENDBRANCH   4  16
BRANCH  13  18
ATOM     18  O   UNL     1      54.482  24.068   9.572  0.00  0.00    +0.000 OA
ATOM     19  H   UNL     1      53.726  24.142  10.192  0.00  0.00    +0.000 HD
ENDBRANCH  13  18
BRANCH   3  20
ATOM     20  C   UNL     1      53.891  17.445  10.204  0.00  0.00    +0.000 C 
ATOM     21  C   UNL     1      53.253  16.923  11.495  0.00  0.00    +0.000 C 
BRANCH  21  25
ATOM     22  C   UNL     1      51.346  18.023  14.336  0.00  0.00    +0.000 C 
ATOM     23  C   UNL     1      51.284  16.951  13.213  0.00  0.00    +0.000 C 
ATOM     24  C   UNL     1      51.995  17.838  15.677  0.00  0.00    +0.000 C 
ATOM     25  C   UNL     1      52.649  16.432  12.700  0.00  0.00    +0.000 C 
ATOM     26  C   UNL     1      51.555  18.879  16.700  0.00  0.00    +0.000 C 
ATOM     27  C   UNL     1      50.503  19.166  14.471  0.00  0.00    +0.000 C 
ATOM     28  C   UNL     1      50.631  19.661  15.886  0.00  0.00    +0.000 C 
ATOM     29  C   UNL     1      52.924  16.789  15.802  0.00  0.00    +0.000 C 
ATOM     30  C   UNL     1      53.437  15.526  13.537  0.00  0.00    +0.000 C 
ATOM     31  C   UNL     1      50.503  17.578  11.998  0.00  0.00    +0.000 C 
ATOM     32  C   UNL     1      50.415  15.753  13.728  0.00  0.00    +0.000 C 
ATOM     33  C   UNL     1      53.484  15.817  14.798  0.00  0.00    +0.000 C 
ATOM     34  C   UNL     1      52.728  19.654  17.283  0.00  0.00    +0.000 C 
ATOM     35  C   UNL     1      54.506  14.609  13.005  0.00  0.00    +0.000 C 
BRANCH  26  36
ATOM     36  O   UNL     1      50.888  18.261  17.770  0.00  0.00    +0.000 OA
ATOM     37  H   UNL     1      51.642  17.979  18.318  0.00  0.00    +0.000 HD
ENDBRANCH  26  36
ENDBRANCH  21  25
ENDBRANCH   3  20
TORSDOF 5
ENDMDL
MODEL 5
REMARK VINA RESULT:      -5.2     22.954     25.993
REMARK  Name = 342374_SipholenolA.pdbqt.pdb
REMARK  5 active torsions:
REMARK  status: ('A' for Active; 'I' for Inactive)
REMARK    1  A    between atoms: C_3  and  C_20
REMARK    2  A    between atoms: C_4  and  O_16
REMARK    3  A    between atoms: C_13  and  O_18
REMARK    4  A    between atoms: C_21  and  C_25
REMARK    5  A    between atoms: C_26  and  O_36
REMARK                            x       y       z     vdW  Elec       q    Type
REMARK                         _______ _______ _______ _____ _____    ______ ____
ROOT
ATOM      1  O   UNL     1      38.215  -8.184 -10.161  0.00  0.00    +0.000 OA
ATOM      2  C   UNL     1      39.369  -9.880  -8.544  0.00  0.00    +0.000 C 
ATOM      3  C   UNL     1      40.475 -10.935  -8.445  0.00  0.00    +0.000 C 
ATOM      4  C   UNL     1      40.669 -11.934  -9.573  0.00  0.00    +0.000 C 
ATOM      5  C   UNL     1      39.054  -9.291  -9.990  0.00  0.00    +0.000 C 
ATOM      6  C   UNL     1      39.760  -8.662  -7.816  0.00  0.00    +0.000 C 
ATOM      7  C   UNL     1      40.047 -11.411 -10.774  0.00  0.00    +0.000 C 
ATOM      8  C   UNL     1      39.277 -10.169 -11.069  0.00  0.00    +0.000 C 
ATOM      9  C   UNL     1      38.048 -10.458  -7.968  0.00  0.00    +0.000 C 
ATOM     10  C   UNL     1      39.721  -7.158  -7.928  0.00  0.00    +0.000 C 
ATOM     11  C   UNL     1      38.810  -6.852 -10.290  0.00  0.00    +0.000 C 
ATOM     12  C   UNL     1      42.160 -12.230  -9.796  0.00  0.00    +0.000 C 
ATOM     13  C   UNL     1      39.263  -6.264  -8.919  0.00  0.00    +0.000 C 
ATOM     14  C   UNL     1      40.033  -6.850 -11.254  0.00  0.00    +0.000 C 
ATOM     15  C   UNL     1      37.705  -5.909 -10.850  0.00  0.00    +0.000 C 
ENDROOT
BRANCH   4  16
ATOM     16  O   UNL     1      40.083 -13.164  -9.227  0.00  0.00    +0.000 OA
ATOM     17  H   UNL     1      40.336 -13.716  -9.989  0.00  0.00    +0.000 HD
ENDBRANCH   4  16
BRANCH  13  18
ATOM     18  O   UNL     1      39.222  -4.903  -8.633  0.00  0.00    +0.000 OA
ATOM     19  H   UNL     1      39.739  -4.691  -7.828  0.00  0.00    +0.000 HD
ENDBRANCH  13  18
BRANCH   3  20
ATOM     20  C   UNL     1      41.165 -11.129  -7.196  0.00  0.00    +0.000 C 
ATOM     21  C   UNL     1      41.886 -11.326  -5.860  0.00  0.00    +0.000 C 
BRANCH  21  25
ATOM     22  C   UNL     1      41.468 -12.872  -2.642  0.00  0.00    +0.000 C 
ATOM     23  C   UNL     1      42.490 -12.832  -3.811  0.00  0.00    +0.000 C 
ATOM     24  C   UNL     1      41.464 -11.945  -1.461  0.00  0.00    +0.000 C 
ATOM     25  C   UNL     1      42.557 -11.505  -4.604  0.00  0.00    +0.000 C 
ATOM     26  C   UNL     1      40.624 -12.463  -0.300  0.00  0.00    +0.000 C 
ATOM     27  C   UNL     1      40.641 -13.973  -2.268  0.00  0.00    +0.000 C 
ATOM     28  C   UNL     1      40.152 -13.720  -0.869  0.00  0.00    +0.000 C 
ATOM     29  C   UNL     1      42.178 -10.740  -1.588  0.00  0.00    +0.000 C 
ATOM     30  C   UNL     1      43.189 -10.333  -3.997  0.00  0.00    +0.000 C 
ATOM     31  C   UNL     1      42.116 -13.990  -4.811  0.00  0.00    +0.000 C 
ATOM     32  C   UNL     1      43.905 -13.184  -3.235  0.00  0.00    +0.000 C 
ATOM     33  C   UNL     1      42.916 -10.126  -2.748  0.00  0.00    +0.000 C 
ATOM     34  C   UNL     1      39.535 -11.483   0.113  0.00  0.00    +0.000 C 
ATOM     35  C   UNL     1      43.725  -9.167  -4.785  0.00  0.00    +0.000 C 
BRANCH  26  36
ATOM     36  O   UNL     1      41.432 -12.689   0.826  0.00  0.00    +0.000 OA
ATOM     37  H   UNL     1      41.633 -13.636   0.722  0.00  0.00    +0.000 HD
ENDBRANCH  26  36
ENDBRANCH  21  25
ENDBRANCH   3  20
TORSDOF 5
ENDMDL
MODEL 6
REMARK VINA RESULT:      -5.1     20.940     24.144
REMARK  Name = 342374_SipholenolA.pdbqt.pdb
REMARK  5 active torsions:
REMARK  status: ('A' for Active; 'I' for Inactive)
REMARK    1  A    between atoms: C_3  and  C_20
REMARK    2  A    between atoms: C_4  and  O_16
REMARK    3  A    between atoms: C_13  and  O_18
REMARK    4  A    between atoms: C_21  and  C_25
REMARK    5  A    between atoms: C_26  and  O_36
REMARK                            x       y       z     vdW  Elec       q    Type
REMARK                         _______ _______ _______ _____ _____    ______ ____
ROOT
ATOM      1  O   UNL     1      45.501 -15.287   7.155  0.00  0.00    +0.000 OA
ATOM      2  C   UNL     1      43.320 -14.617   5.885  0.00  0.00    +0.000 C 
ATOM      3  C   UNL     1      42.185 -13.590   5.836  0.00  0.00    +0.000 C 
ATOM      4  C   UNL     1      41.534 -13.121   7.127  0.00  0.00    +0.000 C 
ATOM      5  C   UNL     1      44.320 -14.536   7.121  0.00  0.00    +0.000 C 
ATOM      6  C   UNL     1      44.240 -14.414   4.755  0.00  0.00    +0.000 C 
ATOM      7  C   UNL     1      42.430 -13.401   8.232  0.00  0.00    +0.000 C 
ATOM      8  C   UNL     1      43.769 -14.052   8.323  0.00  0.00    +0.000 C 
ATOM      9  C   UNL     1      42.723 -16.051   5.849  0.00  0.00    +0.000 C 
ATOM     10  C   UNL     1      45.711 -14.402   4.420  0.00  0.00    +0.000 C 
ATOM     11  C   UNL     1      46.756 -14.661   6.731  0.00  0.00    +0.000 C 
ATOM     12  C   UNL     1      41.180 -11.628   7.055  0.00  0.00    +0.000 C 
ATOM     13  C   UNL     1      46.887 -14.573   5.181  0.00  0.00    +0.000 C 
ATOM     14  C   UNL     1      46.921 -13.229   7.321  0.00  0.00    +0.000 C 
ATOM     15  C   UNL     1      47.915 -15.569   7.239  0.00  0.00    +0.000 C 
ENDROOT
BRANCH   4  16
ATOM     16  O   UNL     1      40.314 -13.793   7.317  0.00  0.00    +0.000 OA
ATOM     17  H   UNL     1      39.753 -13.076   7.663  0.00  0.00    +0.000 HD
ENDBRANCH   4  16
BRANCH  13  18
ATOM     18  O   UNL     1      48.109 -14.669   4.522  0.00  0.00    +0.000 OA
ATOM     19  H   UNL     1      48.286 -15.588   4.231  0.00  0.00    +0.000 HD
ENDBRANCH  13  18
BRANCH   3  20
ATOM     20  C   UNL     1      41.582 -13.253   4.572  0.00  0.00    +0.000 C 
ATOM     21  C   UNL     1      40.957 -12.888   3.223  0.00  0.00    +0.000 C 
BRANCH  21  25
ATOM     22  C   UNL     1      41.394 -13.408  -0.307  0.00  0.00    +0.000 C 
ATOM     23  C   UNL     1      40.294 -13.545   0.782  0.00  0.00    +0.000 C 
ATOM     24  C   UNL     1      41.654 -12.177  -1.127  0.00  0.00    +0.000 C 
ATOM     25  C   UNL     1      40.378 -12.542   1.956  0.00  0.00    +0.000 C 
ATOM     26  C   UNL     1      42.495 -12.455  -2.367  0.00  0.00    +0.000 C 
ATOM     27  C   UNL     1      42.057 -14.471  -0.988  0.00  0.00    +0.000 C 
ATOM     28  C   UNL     1      42.702 -13.891  -2.217  0.00  0.00    +0.000 C 
ATOM     29  C   UNL     1      41.140 -10.961  -0.641  0.00  0.00    +0.000 C 
ATOM     30  C   UNL     1      40.003 -11.144   1.739  0.00  0.00    +0.000 C 
ATOM     31  C   UNL     1      40.384 -15.004   1.369  0.00  0.00    +0.000 C 
ATOM     32  C   UNL     1      38.897 -13.434   0.081  0.00  0.00    +0.000 C 
ATOM     33  C   UNL     1      40.415 -10.613   0.631  0.00  0.00    +0.000 C 
ATOM     34  C   UNL     1      43.763 -11.613  -2.410  0.00  0.00    +0.000 C 
ATOM     35  C   UNL     1      39.601 -10.202   2.842  0.00  0.00    +0.000 C 
BRANCH  26  36
ATOM     36  O   UNL     1      41.762 -12.168  -3.529  0.00  0.00    +0.000 OA
ATOM     37  H   UNL     1      42.371 -11.560  -3.985  0.00  0.00    +0.000 HD
ENDBRANCH  26  36
ENDBRANCH  21  25
ENDBRANCH   3  20
TORSDOF 5
ENDMDL
MODEL 7
REMARK VINA RESULT:      -4.9     15.542     20.429
REMARK  Name = 342374_SipholenolA.pdbqt.pdb
REMARK  5 active torsions:
REMARK  status: ('A' for Active; 'I' for Inactive)
REMARK    1  A    between atoms: C_3  and  C_20
REMARK    2  A    between atoms: C_4  and  O_16
REMARK    3  A    between atoms: C_13  and  O_18
REMARK    4  A    between atoms: C_21  and  C_25
REMARK    5  A    between atoms: C_26  and  O_36
REMARK                            x       y       z     vdW  Elec       q    Type
REMARK                         _______ _______ _______ _____ _____    ______ ____
ROOT
ATOM      1  O   UNL     1      36.788  -3.844  22.992  0.00  0.00    +0.000 OA
ATOM      2  C   UNL     1      37.167  -2.420  20.836  0.00  0.00    +0.000 C 
ATOM      3  C   UNL     1      37.669  -1.067  20.322  0.00  0.00    +0.000 C 
ATOM      4  C   UNL     1      37.288   0.208  21.054  0.00  0.00    +0.000 C 
ATOM      5  C   UNL     1      37.037  -2.594  22.414  0.00  0.00    +0.000 C 
ATOM      6  C   UNL     1      38.132  -3.480  20.507  0.00  0.00    +0.000 C 
ATOM      7  C   UNL     1      36.877  -0.130  22.402  0.00  0.00    +0.000 C 
ATOM      8  C   UNL     1      36.741  -1.422  23.136  0.00  0.00    +0.000 C 
ATOM      9  C   UNL     1      35.781  -2.731  20.208  0.00  0.00    +0.000 C 
ATOM     10  C   UNL     1      38.778  -4.710  21.096  0.00  0.00    +0.000 C 
ATOM     11  C   UNL     1      37.916  -4.634  23.494  0.00  0.00    +0.000 C 
ATOM     12  C   UNL     1      38.451   1.211  21.056  0.00  0.00    +0.000 C 
ATOM     13  C   UNL     1      38.701  -5.347  22.353  0.00  0.00    +0.000 C 
ATOM     14  C   UNL     1      38.917  -3.767  24.312  0.00  0.00    +0.000 C 
ATOM     15  C   UNL     1      37.324  -5.747  24.409  0.00  0.00    +0.000 C 
ENDROOT
BRANCH   4  16
ATOM     16  O   UNL     1      36.234   0.849  20.379  0.00  0.00    +0.000 OA
ATOM     17  H   UNL     1      35.567   0.140  20.351  0.00  0.00    +0.000 HD
ENDBRANCH   4  16
BRANCH  13  18
ATOM     18  O   UNL     1      39.313  -6.586  22.520  0.00  0.00    +0.000 OA
ATOM     19  H   UNL     1      38.666  -7.318  22.439  0.00  0.00    +0.000 HD
ENDBRANCH  13  18
BRANCH   3  20
ATOM     20  C   UNL     1      38.294  -0.985  19.027  0.00  0.00    +0.000 C 
ATOM     21  C   UNL     1      38.959  -0.881  17.651  0.00  0.00    +0.000 C 
BRANCH  21  25
ATOM     22  C   UNL     1      41.096  -2.692  15.399  0.00  0.00    +0.000 C 
ATOM     23  C   UNL     1      39.715  -1.982  15.405  0.00  0.00    +0.000 C 
ATOM     24  C   UNL     1      42.406  -2.039  15.065  0.00  0.00    +0.000 C 
ATOM     25  C   UNL     1      39.581  -0.774  16.362  0.00  0.00    +0.000 C 
ATOM     26  C   UNL     1      43.507  -3.043  14.747  0.00  0.00    +0.000 C 
ATOM     27  C   UNL     1      41.333  -4.096  15.310  0.00  0.00    +0.000 C 
ATOM     28  C   UNL     1      42.771  -4.291  14.914  0.00  0.00    +0.000 C 
ATOM     29  C   UNL     1      42.457  -0.634  15.126  0.00  0.00    +0.000 C 
ATOM     30  C   UNL     1      40.240   0.489  16.028  0.00  0.00    +0.000 C 
ATOM     31  C   UNL     1      38.629  -3.052  15.801  0.00  0.00    +0.000 C 
ATOM     32  C   UNL     1      39.386  -1.541  13.937  0.00  0.00    +0.000 C 
ATOM     33  C   UNL     1      41.442   0.392  15.553  0.00  0.00    +0.000 C 
ATOM     34  C   UNL     1      44.724  -2.877  15.647  0.00  0.00    +0.000 C 
ATOM     35  C   UNL     1      39.833   1.824  16.593  0.00  0.00    +0.000 C 
BRANCH  26  36
ATOM     36  O   UNL     1      43.944  -2.886  13.422  0.00  0.00    +0.000 OA
ATOM     37  H   UNL     1      43.996  -3.814  13.134  0.00  0.00    +0.000 HD
ENDBRANCH  26  36
ENDBRANCH  21  25
ENDBRANCH   3  20
TORSDOF 5
ENDMDL
MODEL 8
REMARK VINA RESULT:      -4.8     27.406     30.563
REMARK  Name = 342374_SipholenolA.pdbqt.pdb
REMARK  5 active torsions:
REMARK  status: ('A' for Active; 'I' for Inactive)
REMARK    1  A    between atoms: C_3  and  C_20
REMARK    2  A    between atoms: C_4  and  O_16
REMARK    3  A    between atoms: C_13  and  O_18
REMARK    4  A    between atoms: C_21  and  C_25
REMARK    5  A    between atoms: C_26  and  O_36
REMARK                            x       y       z     vdW  Elec       q    Type
REMARK                         _______ _______ _______ _____ _____    ______ ____
ROOT
ATOM      1  O   UNL     1      26.169 -14.163   1.549  0.00  0.00    +0.000 OA
ATOM      2  C   UNL     1      27.667 -12.165   2.315  0.00  0.00    +0.000 C 
ATOM      3  C   UNL     1      28.765 -11.199   1.860  0.00  0.00    +0.000 C 
ATOM      4  C   UNL     1      29.936 -11.718   1.044  0.00  0.00    +0.000 C 
ATOM      5  C   UNL     1      27.289 -13.354   1.326  0.00  0.00    +0.000 C 
ATOM      6  C   UNL     1      26.380 -11.460   2.423  0.00  0.00    +0.000 C 
ATOM      7  C   UNL     1      29.566 -12.985   0.445  0.00  0.00    +0.000 C 
ATOM      8  C   UNL     1      28.336 -13.825   0.510  0.00  0.00    +0.000 C 
ATOM      9  C   UNL     1      28.060 -12.790   3.681  0.00  0.00    +0.000 C 
ATOM     10  C   UNL     1      24.912 -11.633   2.120  0.00  0.00    +0.000 C 
ATOM     11  C   UNL     1      24.915 -13.849   0.860  0.00  0.00    +0.000 C 
ATOM     12  C   UNL     1      30.362 -10.696  -0.021  0.00  0.00    +0.000 C 
ATOM     13  C   UNL     1      24.154 -12.658   1.515  0.00  0.00    +0.000 C 
ATOM     14  C   UNL     1      25.143 -13.519  -0.645  0.00  0.00    +0.000 C 
ATOM     15  C   UNL     1      23.999 -15.103   0.983  0.00  0.00    +0.000 C 
ENDROOT
BRANCH   4  16
ATOM     16  O   UNL     1      31.057 -11.891   1.875  0.00  0.00    +0.000 OA
ATOM     17  H   UNL     1      30.682 -11.676   2.748  0.00  0.00    +0.000 HD
ENDBRANCH   4  16
BRANCH  13  18
ATOM     18  O   UNL     1      22.765 -12.574   1.539  0.00  0.00    +0.000 OA
ATOM     19  H   UNL     1      22.357 -13.231   0.937  0.00  0.00    +0.000 HD
ENDBRANCH  13  18
BRANCH   3  20
ATOM     20  C   UNL     1      28.808  -9.865   2.400  0.00  0.00    +0.000 C 
ATOM     21  C   UNL     1      28.868  -8.442   2.964  0.00  0.00    +0.000 C 
BRANCH  21  25
ATOM     22  C   UNL     1      28.843  -5.004   1.917  0.00  0.00    +0.000 C 
ATOM     23  C   UNL     1      28.096  -5.946   2.900  0.00  0.00    +0.000 C 
ATOM     24  C   UNL     1      30.071  -4.206   2.245  0.00  0.00    +0.000 C 
ATOM     25  C   UNL     1      28.932  -7.108   3.488  0.00  0.00    +0.000 C 
ATOM     26  C   UNL     1      30.338  -3.086   1.245  0.00  0.00    +0.000 C 
ATOM     27  C   UNL     1      28.316  -4.426   0.723  0.00  0.00    +0.000 C 
ATOM     28  C   UNL     1      29.212  -3.281   0.339  0.00  0.00    +0.000 C 
ATOM     29  C   UNL     1      30.816  -4.606   3.369  0.00  0.00    +0.000 C 
ATOM     30  C   UNL     1      29.942  -6.826   4.509  0.00  0.00    +0.000 C 
ATOM     31  C   UNL     1      26.866  -6.560   2.132  0.00  0.00    +0.000 C 
ATOM     32  C   UNL     1      27.503  -5.073   4.059  0.00  0.00    +0.000 C 
ATOM     33  C   UNL     1      30.669  -5.771   4.310  0.00  0.00    +0.000 C 
ATOM     34  C   UNL     1      31.716  -3.192   0.607  0.00  0.00    +0.000 C 
ATOM     35  C   UNL     1      30.477  -7.856   5.468  0.00  0.00    +0.000 C 
BRANCH  26  36
ATOM     36  O   UNL     1      30.266  -1.837   1.881  0.00  0.00    +0.000 OA
ATOM     37  H   UNL     1      29.710  -2.053   2.650  0.00  0.00    +0.000 HD
ENDBRANCH  26  36
ENDBRANCH  21  25
ENDBRANCH   3  20
TORSDOF 5
ENDMDL
MODEL 9
REMARK VINA RESULT:      -4.6      4.877      8.553
REMARK  Name = 342374_SipholenolA.pdbqt.pdb
REMARK  5 active torsions:
REMARK  status: ('A' for Active; 'I' for Inactive)
REMARK    1  A    between atoms: C_3  and  C_20
REMARK    2  A    between atoms: C_4  and  O_16
REMARK    3  A    between atoms: C_13  and  O_18
REMARK    4  A    between atoms: C_21  and  C_25
REMARK    5  A    between atoms: C_26  and  O_36
REMARK                            x       y       z     vdW  Elec       q    Type
REMARK                         _______ _______ _______ _____ _____    ______ ____
ROOT
ATOM      1  O   UNL     1      53.239  -3.858   3.019  0.00  0.00    +0.000 OA
ATOM      2  C   UNL     1      53.330  -1.301   3.543  0.00  0.00    +0.000 C 
ATOM      3  C   UNL     1      52.562   0.017   3.402  0.00  0.00    +0.000 C 
ATOM      4  C   UNL     1      51.859   0.346   2.096  0.00  0.00    +0.000 C 
ATOM      5  C   UNL     1      52.736  -2.572   2.791  0.00  0.00    +0.000 C 
ATOM      6  C   UNL     1      53.308  -1.757   4.941  0.00  0.00    +0.000 C 
ATOM      7  C   UNL     1      51.660  -0.880   1.349  0.00  0.00    +0.000 C 
ATOM      8  C   UNL     1      52.027  -2.303   1.604  0.00  0.00    +0.000 C 
ATOM      9  C   UNL     1      54.792  -1.102   3.058  0.00  0.00    +0.000 C 
ATOM     10  C   UNL     1      53.149  -3.006   5.772  0.00  0.00    +0.000 C 
ATOM     11  C   UNL     1      52.561  -4.727   3.984  0.00  0.00    +0.000 C 
ATOM     12  C   UNL     1      50.529   1.069   2.353  0.00  0.00    +0.000 C 
ATOM     13  C   UNL     1      52.899  -4.360   5.460  0.00  0.00    +0.000 C 
ATOM     14  C   UNL     1      51.014  -4.695   3.811  0.00  0.00    +0.000 C 
ATOM     15  C   UNL     1      53.082  -6.174   3.741  0.00  0.00    +0.000 C 
ENDROOT
BRANCH   4  16
ATOM     16  O   UNL     1      52.641   1.242   1.346  0.00  0.00    +0.000 OA
ATOM     17  H   UNL     1      51.954   1.750   0.880  0.00  0.00    +0.000 HD
ENDBRANCH   4  16
BRANCH  13  18
ATOM     18  O   UNL     1      52.976  -5.310   6.474  0.00  0.00    +0.000 OA
ATOM     19  H   UNL     1      52.249  -5.965   6.406  0.00  0.00    +0.000 HD
ENDBRANCH  13  18
BRANCH   3  20
ATOM     20  C   UNL     1      52.703   1.036   4.410  0.00  0.00    +0.000 C 
ATOM     21  C   UNL     1      52.868   2.125   5.474  0.00  0.00    +0.000 C 
BRANCH  21  25
ATOM     22  C   UNL     1      52.121   2.849   8.915  0.00  0.00    +0.000 C 
ATOM     23  C   UNL     1      53.337   2.822   7.949  0.00  0.00    +0.000 C 
ATOM     24  C   UNL     1      51.235   4.036   9.161  0.00  0.00    +0.000 C 
ATOM     25  C   UNL     1      53.030   3.147   6.468  0.00  0.00    +0.000 C 
ATOM     26  C   UNL     1      50.399   3.902  10.429  0.00  0.00    +0.000 C 
ATOM     27  C   UNL     1      51.868   1.950   9.994  0.00  0.00    +0.000 C 
ATOM     28  C   UNL     1      50.847   2.593  10.892  0.00  0.00    +0.000 C 
ATOM     29  C   UNL     1      51.258   5.064   8.202  0.00  0.00    +0.000 C 
ATOM     30  C   UNL     1      52.737   4.527   6.078  0.00  0.00    +0.000 C 
ATOM     31  C   UNL     1      53.971   1.382   8.020  0.00  0.00    +0.000 C 
ATOM     32  C   UNL     1      54.421   3.810   8.501  0.00  0.00    +0.000 C 
ATOM     33  C   UNL     1      51.965   5.190   6.879  0.00  0.00    +0.000 C 
ATOM     34  C   UNL     1      48.906   4.024  10.158  0.00  0.00    +0.000 C 
ATOM     35  C   UNL     1      52.878   5.050   4.673  0.00  0.00    +0.000 C 
BRANCH  26  36
ATOM     36  O   UNL     1      50.741   4.907  11.347  0.00  0.00    +0.000 OA
ATOM     37  H   UNL     1      50.019   5.544  11.200  0.00  0.00    +0.000 HD
ENDBRANCH  26  36
ENDBRANCH  21  25
ENDBRANCH   3  20
TORSDOF 5
ENDMDL
