MODEL 1
REMARK VINA RESULT:      -4.4      0.000      0.000
REMARK  Name = 43806_Diaminocyclohexane.pdbqt.pdb
REMARK  2 active torsions:
REMARK  status: ('A' for Active; 'I' for Inactive)
REMARK    1  A    between atoms: C_1  and  N_7
REMARK    2  A    between atoms: C_2  and  N_10
REMARK                            x       y       z     vdW  Elec       q    Type
REMARK                         _______ _______ _______ _____ _____    ______ ____
ROOT
ATOM      1  C   UNL     1      41.128  -0.246  13.049  0.00  0.00    +0.000 A 
ATOM      2  C   UNL     1      41.946  -0.457  14.263  0.00  0.00    +0.000 A 
ATOM      3  C   UNL     1      41.185  -1.301  12.082  0.00  0.00    +0.000 A 
ATOM      4  C   UNL     1      42.653  -1.704  14.311  0.00  0.00    +0.000 A 
ATOM      5  C   UNL     1      41.923  -2.650  12.061  0.00  0.00    +0.000 A 
ATOM      6  C   UNL     1      42.753  -2.879  13.326  0.00  0.00    +0.000 A 
ENDROOT
BRANCH   1   7
ATOM      7  N   UNL     1      40.284   0.879  12.882  0.00  0.00    +0.000 N 
ATOM      8  H   UNL     1      40.633   1.717  13.335  0.00  0.00    +0.000 HD
ATOM      9  H   UNL     1      39.306   0.705  13.090  0.00  0.00    +0.000 HD
ENDBRANCH   1   7
BRANCH   2  10
ATOM     10  N   UNL     1      42.090   0.526  15.270  0.00  0.00    +0.000 N 
ATOM     11  H   UNL     1      42.567   0.190  16.100  0.00  0.00    +0.000 HD
ATOM     12  H   UNL     1      41.237   1.029  15.492  0.00  0.00    +0.000 HD
ENDBRANCH   2  10
TORSDOF 2
ENDMDL
MODEL 2
REMARK VINA RESULT:      -4.4      0.012      2.286
REMARK  Name = 43806_Diaminocyclohexane.pdbqt.pdb
REMARK  2 active torsions:
REMARK  status: ('A' for Active; 'I' for Inactive)
REMARK    1  A    between atoms: C_1  and  N_7
REMARK    2  A    between atoms: C_2  and  N_10
REMARK                            x       y       z     vdW  Elec       q    Type
REMARK                         _______ _______ _______ _____ _____    ______ ____
ROOT
ATOM      1  C   UNL     1      41.943  -0.453  14.269  0.00  0.00    +0.000 A 
ATOM      2  C   UNL     1      41.121  -0.239  13.058  0.00  0.00    +0.000 A 
ATOM      3  C   UNL     1      42.649  -1.698  14.314  0.00  0.00    +0.000 A 
ATOM      4  C   UNL     1      41.176  -1.294  12.089  0.00  0.00    +0.000 A 
ATOM      5  C   UNL     1      42.747  -2.872  13.327  0.00  0.00    +0.000 A 
ATOM      6  C   UNL     1      41.914  -2.641  12.064  0.00  0.00    +0.000 A 
ENDROOT
BRANCH   1   7
ATOM      7  N   UNL     1      42.089   0.530  15.277  0.00  0.00    +0.000 N 
ATOM      8  H   UNL     1      41.441   1.306  15.183  0.00  0.00    +0.000 HD
ATOM      9  H   UNL     1      43.044   0.839  15.429  0.00  0.00    +0.000 HD
ENDBRANCH   1   7
BRANCH   2  10
ATOM     10  N   UNL     1      40.277   0.885  12.895  0.00  0.00    +0.000 N 
ATOM     11  H   UNL     1      39.518   0.923  13.568  0.00  0.00    +0.000 HD
ATOM     12  H   UNL     1      39.957   1.038  11.944  0.00  0.00    +0.000 HD
ENDBRANCH   2  10
TORSDOF 2
ENDMDL
MODEL 3
REMARK VINA RESULT:      -4.2      1.935      3.731
REMARK  Name = 43806_Diaminocyclohexane.pdbqt.pdb
REMARK  2 active torsions:
REMARK  status: ('A' for Active; 'I' for Inactive)
REMARK    1  A    between atoms: C_1  and  N_7
REMARK    2  A    between atoms: C_2  and  N_10
REMARK                            x       y       z     vdW  Elec       q    Type
REMARK                         _______ _______ _______ _____ _____    ______ ____
ROOT
ATOM      1  C   UNL     1      42.007  -0.794  13.624  0.00  0.00    +0.000 A 
ATOM      2  C   UNL     1      41.020  -0.326  12.626  0.00  0.00    +0.000 A 
ATOM      3  C   UNL     1      41.793  -0.325  14.961  0.00  0.00    +0.000 A 
ATOM      4  C   UNL     1      39.972   0.501  13.148  0.00  0.00    +0.000 A 
ATOM      5  C   UNL     1      40.707   0.566  15.586  0.00  0.00    +0.000 A 
ATOM      6  C   UNL     1      39.674   1.032  14.559  0.00  0.00    +0.000 A 
ENDROOT
BRANCH   1   7
ATOM      7  N   UNL     1      43.044  -1.702  13.305  0.00  0.00    +0.000 N 
ATOM      8  H   UNL     1      42.782  -2.675  13.427  0.00  0.00    +0.000 HD
ATOM      9  H   UNL     1      43.939  -1.486  13.733  0.00  0.00    +0.000 HD
ENDBRANCH   1   7
BRANCH   2  10
ATOM     10  N   UNL     1      41.138  -0.606  11.245  0.00  0.00    +0.000 N 
ATOM     11  H   UNL     1      40.454  -0.120  10.673  0.00  0.00    +0.000 HD
ATOM     12  H   UNL     1      41.199  -1.593  11.018  0.00  0.00    +0.000 HD
ENDBRANCH   2  10
TORSDOF 2
ENDMDL
MODEL 4
REMARK VINA RESULT:      -3.9     19.885     20.529
REMARK  Name = 43806_Diaminocyclohexane.pdbqt.pdb
REMARK  2 active torsions:
REMARK  status: ('A' for Active; 'I' for Inactive)
REMARK    1  A    between atoms: C_1  and  N_7
REMARK    2  A    between atoms: C_2  and  N_10
REMARK                            x       y       z     vdW  Elec       q    Type
REMARK                         _______ _______ _______ _____ _____    ______ ____
ROOT
ATOM      1  C   UNL     1      49.336  17.438   7.304  0.00  0.00    +0.000 A 
ATOM      2  C   UNL     1      47.928  17.573   7.737  0.00  0.00    +0.000 A 
ATOM      3  C   UNL     1      50.268  17.124   8.345  0.00  0.00    +0.000 A 
ATOM      4  C   UNL     1      47.695  17.337   9.132  0.00  0.00    +0.000 A 
ATOM      5  C   UNL     1      50.094  16.870   9.851  0.00  0.00    +0.000 A 
ATOM      6  C   UNL     1      48.635  16.988  10.296  0.00  0.00    +0.000 A 
ENDROOT
BRANCH   1   7
ATOM      7  N   UNL     1      49.731  17.533   5.948  0.00  0.00    +0.000 N 
ATOM      8  H   UNL     1      48.958  17.450   5.295  0.00  0.00    +0.000 HD
ATOM      9  H   UNL     1      50.516  16.941   5.695  0.00  0.00    +0.000 HD
ENDBRANCH   1   7
BRANCH   2  10
ATOM     10  N   UNL     1      46.894  17.982   6.863  0.00  0.00    +0.000 N 
ATOM     11  H   UNL     1      46.705  17.317   6.120  0.00  0.00    +0.000 HD
ATOM     12  H   UNL     1      46.987  18.931   6.516  0.00  0.00    +0.000 HD
ENDBRANCH   2  10
TORSDOF 2
ENDMDL
MODEL 5
REMARK VINA RESULT:      -3.9      2.987      3.792
REMARK  Name = 43806_Diaminocyclohexane.pdbqt.pdb
REMARK  2 active torsions:
REMARK  status: ('A' for Active; 'I' for Inactive)
REMARK    1  A    between atoms: C_1  and  N_7
REMARK    2  A    between atoms: C_2  and  N_10
REMARK                            x       y       z     vdW  Elec       q    Type
REMARK                         _______ _______ _______ _____ _____    ______ ____
ROOT
ATOM      1  C   UNL     1      39.840   0.635  14.278  0.00  0.00    +0.000 A 
ATOM      2  C   UNL     1      39.638   1.582  15.396  0.00  0.00    +0.000 A 
ATOM      3  C   UNL     1      39.690  -0.749  14.617  0.00  0.00    +0.000 A 
ATOM      4  C   UNL     1      39.288   0.980  16.649  0.00  0.00    +0.000 A 
ATOM      5  C   UNL     1      39.330  -1.464  15.930  0.00  0.00    +0.000 A 
ATOM      6  C   UNL     1      39.100  -0.483  17.081  0.00  0.00    +0.000 A 
ENDROOT
BRANCH   1   7
ATOM      7  N   UNL     1      40.086   1.060  12.951  0.00  0.00    +0.000 N 
ATOM      8  H   UNL     1      40.749   1.825  12.888  0.00  0.00    +0.000 HD
ATOM      9  H   UNL     1      39.249   1.226  12.401  0.00  0.00    +0.000 HD
ENDBRANCH   1   7
BRANCH   2  10
ATOM     10  N   UNL     1      39.850   2.975  15.266  0.00  0.00    +0.000 N 
ATOM     11  H   UNL     1      39.568   3.506  16.084  0.00  0.00    +0.000 HD
ATOM     12  H   UNL     1      39.495   3.376  14.405  0.00  0.00    +0.000 HD
ENDBRANCH   2  10
TORSDOF 2
ENDMDL
MODEL 6
REMARK VINA RESULT:      -3.8      2.240      3.456
REMARK  Name = 43806_Diaminocyclohexane.pdbqt.pdb
REMARK  2 active torsions:
REMARK  status: ('A' for Active; 'I' for Inactive)
REMARK    1  A    between atoms: C_1  and  N_7
REMARK    2  A    between atoms: C_2  and  N_10
REMARK                            x       y       z     vdW  Elec       q    Type
REMARK                         _______ _______ _______ _____ _____    ______ ____
ROOT
ATOM      1  C   UNL     1      40.779  -0.125  14.902  0.00  0.00    +0.000 A 
ATOM      2  C   UNL     1      40.105  -0.193  13.587  0.00  0.00    +0.000 A 
ATOM      3  C   UNL     1      40.306  -1.059  15.880  0.00  0.00    +0.000 A 
ATOM      4  C   UNL     1      39.098  -1.207  13.471  0.00  0.00    +0.000 A 
ATOM      5  C   UNL     1      39.232  -2.158  15.830  0.00  0.00    +0.000 A 
ATOM      6  C   UNL     1      38.549  -2.243  14.463  0.00  0.00    +0.000 A 
ENDROOT
BRANCH   1   7
ATOM      7  N   UNL     1      41.867   0.743  15.159  0.00  0.00    +0.000 N 
ATOM      8  H   UNL     1      41.738   1.676  14.781  0.00  0.00    +0.000 HD
ATOM      9  H   UNL     1      42.777   0.355  14.932  0.00  0.00    +0.000 HD
ENDBRANCH   1   7
BRANCH   2  10
ATOM     10  N   UNL     1      40.372   0.723  12.542  0.00  0.00    +0.000 N 
ATOM     11  H   UNL     1      40.805   1.584  12.859  0.00  0.00    +0.000 HD
ATOM     12  H   UNL     1      39.589   0.891  11.919  0.00  0.00    +0.000 HD
ENDBRANCH   2  10
TORSDOF 2
ENDMDL
MODEL 7
REMARK VINA RESULT:      -3.6     19.587     20.309
REMARK  Name = 43806_Diaminocyclohexane.pdbqt.pdb
REMARK  2 active torsions:
REMARK  status: ('A' for Active; 'I' for Inactive)
REMARK    1  A    between atoms: C_1  and  N_7
REMARK    2  A    between atoms: C_2  and  N_10
REMARK                            x       y       z     vdW  Elec       q    Type
REMARK                         _______ _______ _______ _____ _____    ______ ____
ROOT
ATOM      1  C   UNL     1      50.142  17.325   8.550  0.00  0.00    +0.000 A 
ATOM      2  C   UNL     1      49.379  16.944   9.759  0.00  0.00    +0.000 A 
ATOM      3  C   UNL     1      49.352  17.555   7.377  0.00  0.00    +0.000 A 
ATOM      4  C   UNL     1      47.956  16.892   9.590  0.00  0.00    +0.000 A 
ATOM      5  C   UNL     1      47.837  17.507   7.120  0.00  0.00    +0.000 A 
ATOM      6  C   UNL     1      47.046  17.134   8.376  0.00  0.00    +0.000 A 
ENDROOT
BRANCH   1   7
ATOM      7  N   UNL     1      51.542  17.528   8.563  0.00  0.00    +0.000 N 
ATOM      8  H   UNL     1      51.972  17.324   9.459  0.00  0.00    +0.000 HD
ATOM      9  H   UNL     1      51.842  18.420   8.183  0.00  0.00    +0.000 HD
ENDBRANCH   1   7
BRANCH   2  10
ATOM     10  N   UNL     1      50.004  16.579  10.974  0.00  0.00    +0.000 N 
ATOM     11  H   UNL     1      49.490  15.879  11.500  0.00  0.00    +0.000 HD
ATOM     12  H   UNL     1      50.291  17.361  11.552  0.00  0.00    +0.000 HD
ENDBRANCH   2  10
TORSDOF 2
ENDMDL
MODEL 8
REMARK VINA RESULT:      -3.4     11.009     11.490
REMARK  Name = 43806_Diaminocyclohexane.pdbqt.pdb
REMARK  2 active torsions:
REMARK  status: ('A' for Active; 'I' for Inactive)
REMARK    1  A    between atoms: C_1  and  N_7
REMARK    2  A    between atoms: C_2  and  N_10
REMARK                            x       y       z     vdW  Elec       q    Type
REMARK                         _______ _______ _______ _____ _____    ______ ____
ROOT
ATOM      1  C   UNL     1      50.451   5.374  10.118  0.00  0.00    +0.000 A 
ATOM      2  C   UNL     1      49.793   4.782  11.303  0.00  0.00    +0.000 A 
ATOM      3  C   UNL     1      51.256   6.529  10.381  0.00  0.00    +0.000 A 
ATOM      4  C   UNL     1      50.085   5.429  12.548  0.00  0.00    +0.000 A 
ATOM      5  C   UNL     1      51.603   7.279  11.677  0.00  0.00    +0.000 A 
ATOM      6  C   UNL     1      50.941   6.654  12.906  0.00  0.00    +0.000 A 
ENDROOT
BRANCH   1   7
ATOM      7  N   UNL     1      50.359   4.802   8.827  0.00  0.00    +0.000 N 
ATOM      8  H   UNL     1      50.916   5.285   8.129  0.00  0.00    +0.000 HD
ATOM      9  H   UNL     1      49.411   4.626   8.510  0.00  0.00    +0.000 HD
ENDBRANCH   1   7
BRANCH   2  10
ATOM     10  N   UNL     1      48.880   3.705  11.213  0.00  0.00    +0.000 N 
ATOM     11  H   UNL     1      48.020   3.942  10.730  0.00  0.00    +0.000 HD
ATOM     12  H   UNL     1      48.711   3.222  12.089  0.00  0.00    +0.000 HD
ENDBRANCH   2  10
TORSDOF 2
ENDMDL
MODEL 9
REMARK VINA RESULT:      -3.4      8.916      9.367
REMARK  Name = 43806_Diaminocyclohexane.pdbqt.pdb
REMARK  2 active torsions:
REMARK  status: ('A' for Active; 'I' for Inactive)
REMARK    1  A    between atoms: C_1  and  N_7
REMARK    2  A    between atoms: C_2  and  N_10
REMARK                            x       y       z     vdW  Elec       q    Type
REMARK                         _______ _______ _______ _____ _____    ______ ____
ROOT
ATOM      1  C   UNL     1      50.635   0.661  10.736  0.00  0.00    +0.000 A 
ATOM      2  C   UNL     1      49.159   0.723  10.658  0.00  0.00    +0.000 A 
ATOM      3  C   UNL     1      51.306   0.491   9.482  0.00  0.00    +0.000 A 
ATOM      4  C   UNL     1      48.615   0.637   9.334  0.00  0.00    +0.000 A 
ATOM      5  C   UNL     1      50.793   0.382   8.036  0.00  0.00    +0.000 A 
ATOM      6  C   UNL     1      49.267   0.467   7.953  0.00  0.00    +0.000 A 
ENDROOT
BRANCH   1   7
ATOM      7  N   UNL     1      51.344   0.835  11.948  0.00  0.00    +0.000 N 
ATOM      8  H   UNL     1      50.981   1.588  12.525  0.00  0.00    +0.000 HD
ATOM      9  H   UNL     1      52.353   0.881  11.843  0.00  0.00    +0.000 HD
ENDBRANCH   1   7
BRANCH   2  10
ATOM     10  N   UNL     1      48.334   0.782  11.805  0.00  0.00    +0.000 N 
ATOM     11  H   UNL     1      48.332   1.691  12.257  0.00  0.00    +0.000 HD
ATOM     12  H   UNL     1      48.475   0.024  12.465  0.00  0.00    +0.000 HD
ENDBRANCH   2  10
TORSDOF 2
ENDMDL
