MODEL 1
REMARK VINA RESULT:      -7.2      0.000      0.000
REMARK  Name = 44234954_SipholenolL.pdbqt.pdb
REMARK  5 active torsions:
REMARK  status: ('A' for Active; 'I' for Inactive)
REMARK    1  A    between atoms: C_3  and  C_20
REMARK    2  A    between atoms: C_4  and  O_16
REMARK    3  A    between atoms: C_13  and  O_18
REMARK    4  A    between atoms: C_21  and  C_25
REMARK    5  A    between atoms: C_26  and  O_36
REMARK                            x       y       z     vdW  Elec       q    Type
REMARK                         _______ _______ _______ _____ _____    ______ ____
ROOT
ATOM      1  O   UNL     1      44.752   0.601  23.389  0.00  0.00    +0.000 OA
ATOM      2  C   UNL     1      42.932   1.579  21.801  0.00  0.00    +0.000 C 
ATOM      3  C   UNL     1      41.447   1.491  21.441  0.00  0.00    +0.000 C 
ATOM      4  C   UNL     1      40.407   1.496  22.547  0.00  0.00    +0.000 C 
ATOM      5  C   UNL     1      43.396   0.762  23.086  0.00  0.00    +0.000 C 
ATOM      6  C   UNL     1      43.766   0.961  20.760  0.00  0.00    +0.000 C 
ATOM      7  C   UNL     1      41.026   1.004  23.764  0.00  0.00    +0.000 C 
ATOM      8  C   UNL     1      42.429   0.623  24.102  0.00  0.00    +0.000 C 
ATOM      9  C   UNL     1      43.337   3.064  21.994  0.00  0.00    +0.000 C 
ATOM     10  C   UNL     1      44.956   0.049  20.599  0.00  0.00    +0.000 C 
ATOM     11  C   UNL     1      45.440  -0.645  23.011  0.00  0.00    +0.000 C 
ATOM     12  C   UNL     1      39.732   2.856  22.692  0.00  0.00    +0.000 C 
ATOM     13  C   UNL     1      45.780  -0.684  21.483  0.00  0.00    +0.000 C 
ATOM     14  C   UNL     1      46.764  -0.653  23.822  0.00  0.00    +0.000 C 
ATOM     15  C   UNL     1      44.573  -1.894  23.363  0.00  0.00    +0.000 C 
ENDROOT
BRANCH   4  16
ATOM     16  O   UNL     1      39.365   0.608  22.194  0.00  0.00    +0.000 OA
ATOM     17  H   UNL     1      39.543  -0.132  22.805  0.00  0.00    +0.000 HD
ENDBRANCH   4  16
BRANCH  13  18
ATOM     18  O   UNL     1      46.706  -1.578  20.958  0.00  0.00    +0.000 OA
ATOM     19  H   UNL     1      47.546  -1.146  20.721  0.00  0.00    +0.000 HD
ENDBRANCH  13  18
BRANCH   3  20
ATOM     20  C   UNL     1      41.022   1.466  20.068  0.00  0.00    +0.000 C 
ATOM     21  C   UNL     1      40.603   1.448  18.594  0.00  0.00    +0.000 C 
BRANCH  21  25
ATOM     22  C   UNL     1      40.548   0.175  16.350  0.00  0.00    +0.000 A 
ATOM     23  C   UNL     1      40.133   0.167  14.827  0.00  0.00    +0.000 A 
ATOM     24  C   UNL     1      41.275  -1.063  17.021  0.00  0.00    +0.000 C 
ATOM     25  C   UNL     1      40.260   1.426  17.207  0.00  0.00    +0.000 A 
ATOM     26  C   UNL     1      40.299  -0.975  13.799  0.00  0.00    +0.000 C 
ATOM     27  C   UNL     1      41.423  -2.046  15.943  0.00  0.00    +0.000 C 
ATOM     28  C   UNL     1      41.003  -2.033  14.498  0.00  0.00    +0.000 C 
ATOM     29  C   UNL     1      39.580   1.427  14.453  0.00  0.00    +0.000 A 
ATOM     30  C   UNL     1      39.639   2.661  16.651  0.00  0.00    +0.000 A 
ATOM     31  C   UNL     1      40.377  -1.655  18.134  0.00  0.00    +0.000 C 
ATOM     32  C   UNL     1      42.675  -0.645  17.521  0.00  0.00    +0.000 C 
ATOM     33  C   UNL     1      39.369   2.582  15.388  0.00  0.00    +0.000 A 
ATOM     34  C   UNL     1      38.955  -1.413  13.233  0.00  0.00    +0.000 C 
ATOM     35  C   UNL     1      39.204   3.864  17.436  0.00  0.00    +0.000 C 
BRANCH  26  36
ATOM     36  O   UNL     1      41.076  -0.526  12.718  0.00  0.00    +0.000 OA
ATOM     37  H   UNL     1      41.572  -1.335  12.497  0.00  0.00    +0.000 HD
ENDBRANCH  26  36
ENDBRANCH  21  25
ENDBRANCH   3  20
TORSDOF 5
ENDMDL
MODEL 2
REMARK VINA RESULT:      -6.6     12.936     14.582
REMARK  Name = 44234954_SipholenolL.pdbqt.pdb
REMARK  5 active torsions:
REMARK  status: ('A' for Active; 'I' for Inactive)
REMARK    1  A    between atoms: C_3  and  C_20
REMARK    2  A    between atoms: C_4  and  O_16
REMARK    3  A    between atoms: C_13  and  O_18
REMARK    4  A    between atoms: C_21  and  C_25
REMARK    5  A    between atoms: C_26  and  O_36
REMARK                            x       y       z     vdW  Elec       q    Type
REMARK                         _______ _______ _______ _____ _____    ______ ____
ROOT
ATOM      1  O   UNL     1      56.337   7.027  17.372  0.00  0.00    +0.000 OA
ATOM      2  C   UNL     1      54.436   5.668  16.220  0.00  0.00    +0.000 C 
ATOM      3  C   UNL     1      54.120   4.321  15.564  0.00  0.00    +0.000 C 
ATOM      4  C   UNL     1      54.549   3.037  16.249  0.00  0.00    +0.000 C 
ATOM      5  C   UNL     1      55.858   5.792  16.925  0.00  0.00    +0.000 C 
ATOM      6  C   UNL     1      54.529   6.737  15.214  0.00  0.00    +0.000 C 
ATOM      7  C   UNL     1      55.683   3.328  17.107  0.00  0.00    +0.000 C 
ATOM      8  C   UNL     1      56.372   4.600  17.474  0.00  0.00    +0.000 C 
ATOM      9  C   UNL     1      53.341   6.014  17.262  0.00  0.00    +0.000 C 
ATOM     10  C   UNL     1      55.376   7.928  14.843  0.00  0.00    +0.000 C 
ATOM     11  C   UNL     1      57.284   7.787  16.538  0.00  0.00    +0.000 C 
ATOM     12  C   UNL     1      53.387   2.348  16.958  0.00  0.00    +0.000 C 
ATOM     13  C   UNL     1      56.567   8.501  15.343  0.00  0.00    +0.000 C 
ATOM     14  C   UNL     1      57.895   8.864  17.475  0.00  0.00    +0.000 C 
ATOM     15  C   UNL     1      58.401   6.858  15.968  0.00  0.00    +0.000 C 
ENDROOT
BRANCH   4  16
ATOM     16  O   UNL     1      54.971   2.116  15.263  0.00  0.00    +0.000 OA
ATOM     17  H   UNL     1      55.911   2.362  15.174  0.00  0.00    +0.000 HD
ENDBRANCH   4  16
BRANCH  13  18
ATOM     18  O   UNL     1      57.173   9.528  14.630  0.00  0.00    +0.000 OA
ATOM     19  H   UNL     1      56.961   9.497  13.680  0.00  0.00    +0.000 HD
ENDBRANCH  13  18
BRANCH   3  20
ATOM     20  C   UNL     1      53.366   4.256  14.342  0.00  0.00    +0.000 C 
ATOM     21  C   UNL     1      52.583   4.214  13.026  0.00  0.00    +0.000 C 
BRANCH  21  25
ATOM     22  C   UNL     1      51.721   5.499  10.959  0.00  0.00    +0.000 A 
ATOM     23  C   UNL     1      50.977   5.449   9.568  0.00  0.00    +0.000 A 
ATOM     24  C   UNL     1      52.282   6.856  11.556  0.00  0.00    +0.000 C 
ATOM     25  C   UNL     1      51.891   4.199  11.775  0.00  0.00    +0.000 A 
ATOM     26  C   UNL     1      50.720   6.611   8.582  0.00  0.00    +0.000 C 
ATOM     27  C   UNL     1      51.931   7.879  10.565  0.00  0.00    +0.000 C 
ATOM     28  C   UNL     1      51.232   7.800   9.235  0.00  0.00    +0.000 C 
ATOM     29  C   UNL     1      50.496   4.132   9.306  0.00  0.00    +0.000 A 
ATOM     30  C   UNL     1      51.343   2.888  11.329  0.00  0.00    +0.000 A 
ATOM     31  C   UNL     1      53.822   6.773  11.682  0.00  0.00    +0.000 C 
ATOM     32  C   UNL     1      51.574   7.179  12.889  0.00  0.00    +0.000 C 
ATOM     33  C   UNL     1      50.714   2.946  10.199  0.00  0.00    +0.000 A 
ATOM     34  C   UNL     1      51.359   6.340   7.227  0.00  0.00    +0.000 C 
ATOM     35  C   UNL     1      51.576   1.560  11.988  0.00  0.00    +0.000 C 
BRANCH  26  36
ATOM     36  O   UNL     1      49.339   6.747   8.367  0.00  0.00    +0.000 OA
ATOM     37  H   UNL     1      49.330   7.287   7.555  0.00  0.00    +0.000 HD
ENDBRANCH  26  36
ENDBRANCH  21  25
ENDBRANCH   3  20
TORSDOF 5
ENDMDL
MODEL 3
REMARK VINA RESULT:      -6.5      1.707      3.372
REMARK  Name = 44234954_SipholenolL.pdbqt.pdb
REMARK  5 active torsions:
REMARK  status: ('A' for Active; 'I' for Inactive)
REMARK    1  A    between atoms: C_3  and  C_20
REMARK    2  A    between atoms: C_4  and  O_16
REMARK    3  A    between atoms: C_13  and  O_18
REMARK    4  A    between atoms: C_21  and  C_25
REMARK    5  A    between atoms: C_26  and  O_36
REMARK                            x       y       z     vdW  Elec       q    Type
REMARK                         _______ _______ _______ _____ _____    ______ ____
ROOT
ATOM      1  O   UNL     1      44.771   0.230  23.407  0.00  0.00    +0.000 OA
ATOM      2  C   UNL     1      43.589   0.251  21.085  0.00  0.00    +0.000 C 
ATOM      3  C   UNL     1      42.409  -0.336  20.308  0.00  0.00    +0.000 C 
ATOM      4  C   UNL     1      41.033  -0.367  20.947  0.00  0.00    +0.000 C 
ATOM      5  C   UNL     1      43.641  -0.076  22.642  0.00  0.00    +0.000 C 
ATOM      6  C   UNL     1      44.862  -0.333  20.634  0.00  0.00    +0.000 C 
ATOM      7  C   UNL     1      41.194  -0.363  22.389  0.00  0.00    +0.000 C 
ATOM      8  C   UNL     1      42.391  -0.241  23.272  0.00  0.00    +0.000 C 
ATOM      9  C   UNL     1      43.620   1.791  20.908  0.00  0.00    +0.000 C 
ATOM     10  C   UNL     1      46.158  -0.881  21.177  0.00  0.00    +0.000 C 
ATOM     11  C   UNL     1      45.759  -0.823  23.701  0.00  0.00    +0.000 C 
ATOM     12  C   UNL     1      40.129   0.741  20.414  0.00  0.00    +0.000 C 
ATOM     13  C   UNL     1      46.678  -1.122  22.469  0.00  0.00    +0.000 C 
ATOM     14  C   UNL     1      46.633  -0.264  24.857  0.00  0.00    +0.000 C 
ATOM     15  C   UNL     1      45.057  -2.147  24.134  0.00  0.00    +0.000 C 
ENDROOT
BRANCH   4  16
ATOM     16  O   UNL     1      40.388  -1.570  20.581  0.00  0.00    +0.000 OA
ATOM     17  H   UNL     1      39.485  -1.246  20.407  0.00  0.00    +0.000 HD
ENDBRANCH   4  16
BRANCH  13  18
ATOM     18  O   UNL     1      47.877  -1.813  22.596  0.00  0.00    +0.000 OA
ATOM     19  H   UNL     1      48.635  -1.219  22.740  0.00  0.00    +0.000 HD
ENDBRANCH  13  18
BRANCH   3  20
ATOM     20  C   UNL     1      42.575  -0.802  18.958  0.00  0.00    +0.000 C 
ATOM     21  C   UNL     1      42.718  -1.312  17.520  0.00  0.00    +0.000 C 
BRANCH  21  25
ATOM     22  C   UNL     1      41.791  -1.312  15.111  0.00  0.00    +0.000 A 
ATOM     23  C   UNL     1      41.924  -1.834  13.628  0.00  0.00    +0.000 A 
ATOM     24  C   UNL     1      40.631  -0.324  15.546  0.00  0.00    +0.000 C 
ATOM     25  C   UNL     1      42.802  -1.790  16.176  0.00  0.00    +0.000 A 
ATOM     26  C   UNL     1      41.049  -1.471  12.406  0.00  0.00    +0.000 C 
ATOM     27  C   UNL     1      39.847  -0.101  14.327  0.00  0.00    +0.000 C 
ATOM     28  C   UNL     1      40.005  -0.602  12.916  0.00  0.00    +0.000 C 
ATOM     29  C   UNL     1      42.991  -2.774  13.522  0.00  0.00    +0.000 A 
ATOM     30  C   UNL     1      43.887  -2.766  15.879  0.00  0.00    +0.000 A 
ATOM     31  C   UNL     1      41.238   1.020  16.015  0.00  0.00    +0.000 C 
ATOM     32  C   UNL     1      39.736  -0.996  16.608  0.00  0.00    +0.000 C 
ATOM     33  C   UNL     1      43.897  -3.172  14.650  0.00  0.00    +0.000 A 
ATOM     34  C   UNL     1      41.877  -0.836  11.298  0.00  0.00    +0.000 C 
ATOM     35  C   UNL     1      44.987  -3.179  16.813  0.00  0.00    +0.000 C 
BRANCH  26  36
ATOM     36  O   UNL     1      40.475  -2.638  11.876  0.00  0.00    +0.000 OA
ATOM     37  H   UNL     1      39.844  -2.871  12.581  0.00  0.00    +0.000 HD
ENDBRANCH  26  36
ENDBRANCH  21  25
ENDBRANCH   3  20
TORSDOF 5
ENDMDL
MODEL 4
REMARK VINA RESULT:      -6.4     28.081     31.203
REMARK  Name = 44234954_SipholenolL.pdbqt.pdb
REMARK  5 active torsions:
REMARK  status: ('A' for Active; 'I' for Inactive)
REMARK    1  A    between atoms: C_3  and  C_20
REMARK    2  A    between atoms: C_4  and  O_16
REMARK    3  A    between atoms: C_13  and  O_18
REMARK    4  A    between atoms: C_21  and  C_25
REMARK    5  A    between atoms: C_26  and  O_36
REMARK                            x       y       z     vdW  Elec       q    Type
REMARK                         _______ _______ _______ _____ _____    ______ ____
ROOT
ATOM      1  O   UNL     1      51.724   1.035 -10.599  0.00  0.00    +0.000 OA
ATOM      2  C   UNL     1      49.684  -0.080 -11.777  0.00  0.00    +0.000 C 
ATOM      3  C   UNL     1      48.527   0.195 -12.740  0.00  0.00    +0.000 C 
ATOM      4  C   UNL     1      48.791   0.949 -14.031  0.00  0.00    +0.000 C 
ATOM      5  C   UNL     1      50.748   1.091 -11.599  0.00  0.00    +0.000 C 
ATOM      6  C   UNL     1      49.199  -0.229 -10.396  0.00  0.00    +0.000 C 
ATOM      7  C   UNL     1      49.972   1.773 -13.851  0.00  0.00    +0.000 C 
ATOM      8  C   UNL     1      50.948   1.910 -12.729  0.00  0.00    +0.000 C 
ATOM      9  C   UNL     1      50.438  -1.363 -12.216  0.00  0.00    +0.000 C 
ATOM     10  C   UNL     1      49.531   0.186  -8.985  0.00  0.00    +0.000 C 
ATOM     11  C   UNL     1      51.515   1.760  -9.335  0.00  0.00    +0.000 C 
ATOM     12  C   UNL     1      48.855   0.016 -15.236  0.00  0.00    +0.000 C 
ATOM     13  C   UNL     1      50.511   1.015  -8.392  0.00  0.00    +0.000 C 
ATOM     14  C   UNL     1      52.906   1.812  -8.648  0.00  0.00    +0.000 C 
ATOM     15  C   UNL     1      50.978   3.202  -9.597  0.00  0.00    +0.000 C 
ENDROOT
BRANCH   4  16
ATOM     16  O   UNL     1      47.696   1.804 -14.289  0.00  0.00    +0.000 OA
ATOM     17  H   UNL     1      47.019   1.155 -14.559  0.00  0.00    +0.000 HD
ENDBRANCH   4  16
BRANCH  13  18
ATOM     18  O   UNL     1      50.413   1.314  -7.039  0.00  0.00    +0.000 OA
ATOM     19  H   UNL     1      50.941   0.711  -6.486  0.00  0.00    +0.000 HD
ENDBRANCH  13  18
BRANCH   3  20
ATOM     20  C   UNL     1      47.207  -0.305 -12.468  0.00  0.00    +0.000 C 
ATOM     21  C   UNL     1      45.797  -0.813 -12.153  0.00  0.00    +0.000 C 
BRANCH  21  25
ATOM     22  C   UNL     1      43.683  -0.573 -10.690  0.00  0.00    +0.000 A 
ATOM     23  C   UNL     1      42.209  -1.046 -10.384  0.00  0.00    +0.000 A 
ATOM     24  C   UNL     1      44.390   0.559  -9.835  0.00  0.00    +0.000 C 
ATOM     25  C   UNL     1      44.470  -1.242 -11.838  0.00  0.00    +0.000 A 
ATOM     26  C   UNL     1      41.237  -0.505  -9.310  0.00  0.00    +0.000 C 
ATOM     27  C   UNL     1      43.397   0.947  -8.828  0.00  0.00    +0.000 C 
ATOM     28  C   UNL     1      41.988   0.488  -8.566  0.00  0.00    +0.000 C 
ATOM     29  C   UNL     1      41.845  -2.131 -11.235  0.00  0.00    +0.000 A 
ATOM     30  C   UNL     1      43.915  -2.356 -12.656  0.00  0.00    +0.000 A 
ATOM     31  C   UNL     1      44.705   1.775 -10.738  0.00  0.00    +0.000 C 
ATOM     32  C   UNL     1      45.634  -0.016  -9.125  0.00  0.00    +0.000 C 
ATOM     33  C   UNL     1      42.718  -2.707 -12.310  0.00  0.00    +0.000 A 
ATOM     34  C   UNL     1      39.965   0.044  -9.939  0.00  0.00    +0.000 C 
ATOM     35  C   UNL     1      44.553  -2.968 -13.869  0.00  0.00    +0.000 C 
BRANCH  26  36
ATOM     36  O   UNL     1      40.856  -1.549  -8.452  0.00  0.00    +0.000 OA
ATOM     37  H   UNL     1      39.885  -1.506  -8.527  0.00  0.00    +0.000 HD
ENDBRANCH  26  36
ENDBRANCH  21  25
ENDBRANCH   3  20
TORSDOF 5
ENDMDL
MODEL 5
REMARK VINA RESULT:      -6.3     11.771     13.004
REMARK  Name = 44234954_SipholenolL.pdbqt.pdb
REMARK  5 active torsions:
REMARK  status: ('A' for Active; 'I' for Inactive)
REMARK    1  A    between atoms: C_3  and  C_20
REMARK    2  A    between atoms: C_4  and  O_16
REMARK    3  A    between atoms: C_13  and  O_18
REMARK    4  A    between atoms: C_21  and  C_25
REMARK    5  A    between atoms: C_26  and  O_36
REMARK                            x       y       z     vdW  Elec       q    Type
REMARK                         _______ _______ _______ _____ _____    ______ ____
ROOT
ATOM      1  O   UNL     1      56.637   0.658  16.981  0.00  0.00    +0.000 OA
ATOM      2  C   UNL     1      55.532   2.386  15.374  0.00  0.00    +0.000 C 
ATOM      3  C   UNL     1      54.591   3.592  15.335  0.00  0.00    +0.000 C 
ATOM      4  C   UNL     1      54.780   4.721  16.331  0.00  0.00    +0.000 C 
ATOM      5  C   UNL     1      55.955   1.867  16.818  0.00  0.00    +0.000 C 
ATOM      6  C   UNL     1      54.879   1.187  14.826  0.00  0.00    +0.000 C 
ATOM      7  C   UNL     1      55.450   4.193  17.505  0.00  0.00    +0.000 C 
ATOM      8  C   UNL     1      56.027   2.854  17.823  0.00  0.00    +0.000 C 
ATOM      9  C   UNL     1      56.822   2.700  14.571  0.00  0.00    +0.000 C 
ATOM     10  C   UNL     1      54.710  -0.285  15.102  0.00  0.00    +0.000 C 
ATOM     11  C   UNL     1      55.891  -0.556  17.353  0.00  0.00    +0.000 C 
ATOM     12  C   UNL     1      55.471   5.929  15.705  0.00  0.00    +0.000 C 
ATOM     13  C   UNL     1      55.114  -1.161  16.136  0.00  0.00    +0.000 C 
ATOM     14  C   UNL     1      56.962  -1.577  17.824  0.00  0.00    +0.000 C 
ATOM     15  C   UNL     1      54.873  -0.260  18.498  0.00  0.00    +0.000 C 
ENDROOT
BRANCH   4  16
ATOM     16  O   UNL     1      53.509   5.195  16.727  0.00  0.00    +0.000 OA
ATOM     17  H   UNL     1      53.697   6.145  16.844  0.00  0.00    +0.000 HD
ENDBRANCH   4  16
BRANCH  13  18
ATOM     18  O   UNL     1      54.624  -2.461  16.149  0.00  0.00    +0.000 OA
ATOM     19  H   UNL     1      55.334  -3.126  16.170  0.00  0.00    +0.000 HD
ENDBRANCH  13  18
BRANCH   3  20
ATOM     20  C   UNL     1      53.571   3.698  14.327  0.00  0.00    +0.000 C 
ATOM     21  C   UNL     1      52.502   3.788  13.234  0.00  0.00    +0.000 C 
BRANCH  21  25
ATOM     22  C   UNL     1      51.385   2.653  11.201  0.00  0.00    +0.000 A 
ATOM     23  C   UNL     1      50.275   2.710  10.082  0.00  0.00    +0.000 A 
ATOM     24  C   UNL     1      52.386   1.430  11.321  0.00  0.00    +0.000 C 
ATOM     25  C   UNL     1      51.521   3.828  12.195  0.00  0.00    +0.000 A 
ATOM     26  C   UNL     1      49.946   1.647   9.009  0.00  0.00    +0.000 C 
ATOM     27  C   UNL     1      52.012   0.527  10.228  0.00  0.00    +0.000 C 
ATOM     28  C   UNL     1      50.934   0.600   9.180  0.00  0.00    +0.000 C 
ATOM     29  C   UNL     1      49.572   3.950  10.137  0.00  0.00    +0.000 A 
ATOM     30  C   UNL     1      50.670   5.048  12.124  0.00  0.00    +0.000 A 
ATOM     31  C   UNL     1      52.171   0.711  12.674  0.00  0.00    +0.000 C 
ATOM     32  C   UNL     1      53.837   1.912  11.106  0.00  0.00    +0.000 C 
ATOM     33  C   UNL     1      49.815   5.028  11.152  0.00  0.00    +0.000 A 
ATOM     34  C   UNL     1      48.512   1.154   9.137  0.00  0.00    +0.000 C 
ATOM     35  C   UNL     1      50.643   6.168  13.122  0.00  0.00    +0.000 C 
BRANCH  26  36
ATOM     36  O   UNL     1      50.075   2.214   7.730  0.00  0.00    +0.000 OA
ATOM     37  H   UNL     1      50.412   1.453   7.223  0.00  0.00    +0.000 HD
ENDBRANCH  26  36
ENDBRANCH  21  25
ENDBRANCH   3  20
TORSDOF 5
ENDMDL
MODEL 6
REMARK VINA RESULT:      -6.3     11.824     15.821
REMARK  Name = 44234954_SipholenolL.pdbqt.pdb
REMARK  5 active torsions:
REMARK  status: ('A' for Active; 'I' for Inactive)
REMARK    1  A    between atoms: C_3  and  C_20
REMARK    2  A    between atoms: C_4  and  O_16
REMARK    3  A    between atoms: C_13  and  O_18
REMARK    4  A    between atoms: C_21  and  C_25
REMARK    5  A    between atoms: C_26  and  O_36
REMARK                            x       y       z     vdW  Elec       q    Type
REMARK                         _______ _______ _______ _____ _____    ______ ____
ROOT
ATOM      1  O   UNL     1      31.077   6.689  24.331  0.00  0.00    +0.000 OA
ATOM      2  C   UNL     1      32.305   8.483  22.895  0.00  0.00    +0.000 C 
ATOM      3  C   UNL     1      33.477   9.466  22.906  0.00  0.00    +0.000 C 
ATOM      4  C   UNL     1      34.839   9.002  23.391  0.00  0.00    +0.000 C 
ATOM      5  C   UNL     1      32.210   7.484  24.130  0.00  0.00    +0.000 C 
ATOM      6  C   UNL     1      31.020   9.191  23.009  0.00  0.00    +0.000 C 
ATOM      7  C   UNL     1      34.649   7.881  24.293  0.00  0.00    +0.000 C 
ATOM      8  C   UNL     1      33.440   7.110  24.708  0.00  0.00    +0.000 C 
ATOM      9  C   UNL     1      32.335   7.646  21.590  0.00  0.00    +0.000 C 
ATOM     10  C   UNL     1      29.694   9.108  23.723  0.00  0.00    +0.000 C 
ATOM     11  C   UNL     1      30.045   7.119  25.290  0.00  0.00    +0.000 C 
ATOM     12  C   UNL     1      35.793   8.721  22.234  0.00  0.00    +0.000 C 
ATOM     13  C   UNL     1      29.140   8.255  24.705  0.00  0.00    +0.000 C 
ATOM     14  C   UNL     1      29.170   5.864  25.554  0.00  0.00    +0.000 C 
ATOM     15  C   UNL     1      30.690   7.627  26.618  0.00  0.00    +0.000 C 
ENDROOT
BRANCH   4  16
ATOM     16  O   UNL     1      35.445  10.052  24.116  0.00  0.00    +0.000 OA
ATOM     17  H   UNL     1      36.103  10.364  23.468  0.00  0.00    +0.000 HD
ENDBRANCH   4  16
BRANCH  13  18
ATOM     18  O   UNL     1      27.915   8.584  25.271  0.00  0.00    +0.000 OA
ATOM     19  H   UNL     1      27.834   9.537  25.453  0.00  0.00    +0.000 HD
ENDBRANCH  13  18
BRANCH   3  20
ATOM     20  C   UNL     1      33.321  10.805  22.406  0.00  0.00    +0.000 C 
ATOM     21  C   UNL     1      33.149  12.243  21.906  0.00  0.00    +0.000 C 
BRANCH  21  25
ATOM     22  C   UNL     1      34.235  14.469  21.177  0.00  0.00    +0.000 A 
ATOM     23  C   UNL     1      34.035  15.956  20.689  0.00  0.00    +0.000 A 
ATOM     24  C   UNL     1      35.677  13.845  21.382  0.00  0.00    +0.000 C 
ATOM     25  C   UNL     1      32.995  13.601  21.487  0.00  0.00    +0.000 A 
ATOM     26  C   UNL     1      35.121  16.986  20.301  0.00  0.00    +0.000 C 
ATOM     27  C   UNL     1      36.608  14.924  21.038  0.00  0.00    +0.000 C 
ATOM     28  C   UNL     1      36.390  16.334  20.559  0.00  0.00    +0.000 C 
ATOM     29  C   UNL     1      32.651  16.296  20.673  0.00  0.00    +0.000 A 
ATOM     30  C   UNL     1      31.602  14.117  21.387  0.00  0.00    +0.000 A 
ATOM     31  C   UNL     1      35.878  12.664  20.401  0.00  0.00    +0.000 C 
ATOM     32  C   UNL     1      35.878  13.454  22.861  0.00  0.00    +0.000 C 
ATOM     33  C   UNL     1      31.533  15.356  21.019  0.00  0.00    +0.000 A 
ATOM     34  C   UNL     1      34.959  17.447  18.859  0.00  0.00    +0.000 C 
ATOM     35  C   UNL     1      30.345  13.310  21.537  0.00  0.00    +0.000 C 
BRANCH  26  36
ATOM     36  O   UNL     1      35.001  18.125  21.114  0.00  0.00    +0.000 OA
ATOM     37  H   UNL     1      35.321  17.777  21.967  0.00  0.00    +0.000 HD
ENDBRANCH  26  36
ENDBRANCH  21  25
ENDBRANCH   3  20
TORSDOF 5
ENDMDL
MODEL 7
REMARK VINA RESULT:      -6.3     13.728     17.332
REMARK  Name = 44234954_SipholenolL.pdbqt.pdb
REMARK  5 active torsions:
REMARK  status: ('A' for Active; 'I' for Inactive)
REMARK    1  A    between atoms: C_3  and  C_20
REMARK    2  A    between atoms: C_4  and  O_16
REMARK    3  A    between atoms: C_13  and  O_18
REMARK    4  A    between atoms: C_21  and  C_25
REMARK    5  A    between atoms: C_26  and  O_36
REMARK                            x       y       z     vdW  Elec       q    Type
REMARK                         _______ _______ _______ _____ _____    ______ ____
ROOT
ATOM      1  O   UNL     1      51.468  -5.215   5.084  0.00  0.00    +0.000 OA
ATOM      2  C   UNL     1      50.953  -2.662   5.175  0.00  0.00    +0.000 C 
ATOM      3  C   UNL     1      51.606  -1.279   5.120  0.00  0.00    +0.000 C 
ATOM      4  C   UNL     1      52.631  -0.978   4.042  0.00  0.00    +0.000 C 
ATOM      5  C   UNL     1      51.899  -3.903   4.863  0.00  0.00    +0.000 C 
ATOM      6  C   UNL     1      50.511  -2.984   6.540  0.00  0.00    +0.000 C 
ATOM      7  C   UNL     1      53.230  -2.228   3.613  0.00  0.00    +0.000 C 
ATOM      8  C   UNL     1      52.952  -3.654   3.959  0.00  0.00    +0.000 C 
ATOM      9  C   UNL     1      49.746  -2.711   4.202  0.00  0.00    +0.000 C 
ATOM     10  C   UNL     1      50.503  -4.119   7.533  0.00  0.00    +0.000 C 
ATOM     11  C   UNL     1      51.861  -5.913   6.320  0.00  0.00    +0.000 C 
ATOM     12  C   UNL     1      52.042  -0.144   2.908  0.00  0.00    +0.000 C 
ATOM     13  C   UNL     1      51.025  -5.433   7.553  0.00  0.00    +0.000 C 
ATOM     14  C   UNL     1      51.564  -7.415   6.063  0.00  0.00    +0.000 C 
ATOM     15  C   UNL     1      53.376  -5.697   6.628  0.00  0.00    +0.000 C 
ENDROOT
BRANCH   4  16
ATOM     16  O   UNL     1      53.650  -0.171   4.596  0.00  0.00    +0.000 OA
ATOM     17  H   UNL     1      54.249  -0.853   4.952  0.00  0.00    +0.000 HD
ENDBRANCH   4  16
BRANCH  13  18
ATOM     18  O   UNL     1      50.972  -6.162   8.735  0.00  0.00    +0.000 OA
ATOM     19  H   UNL     1      51.857  -6.361   9.089  0.00  0.00    +0.000 HD
ENDBRANCH  13  18
BRANCH   3  20
ATOM     20  C   UNL     1      51.216  -0.243   6.037  0.00  0.00    +0.000 C 
ATOM     21  C   UNL     1      50.832   0.857   7.031  0.00  0.00    +0.000 C 
BRANCH  21  25
ATOM     22  C   UNL     1      51.260   3.246   7.912  0.00  0.00    +0.000 A 
ATOM     23  C   UNL     1      50.878   4.379   8.942  0.00  0.00    +0.000 A 
ATOM     24  C   UNL     1      52.399   3.453   6.830  0.00  0.00    +0.000 C 
ATOM     25  C   UNL     1      50.523   1.890   7.970  0.00  0.00    +0.000 A 
ATOM     26  C   UNL     1      51.462   5.807   9.049  0.00  0.00    +0.000 C 
ATOM     27  C   UNL     1      52.905   4.809   7.067  0.00  0.00    +0.000 C 
ATOM     28  C   UNL     1      52.511   5.877   8.051  0.00  0.00    +0.000 C 
ATOM     29  C   UNL     1      49.892   3.910   9.859  0.00  0.00    +0.000 A 
ATOM     30  C   UNL     1      49.484   1.578   8.990  0.00  0.00    +0.000 A 
ATOM     31  C   UNL     1      51.789   3.376   5.409  0.00  0.00    +0.000 C 
ATOM     32  C   UNL     1      53.539   2.438   7.063  0.00  0.00    +0.000 C 
ATOM     33  C   UNL     1      49.263   2.548   9.818  0.00  0.00    +0.000 A 
ATOM     34  C   UNL     1      50.381   6.863   8.867  0.00  0.00    +0.000 C 
ATOM     35  C   UNL     1      48.628   0.346   9.035  0.00  0.00    +0.000 C 
BRANCH  26  36
ATOM     36  O   UNL     1      52.012   5.995  10.328  0.00  0.00    +0.000 OA
ATOM     37  H   UNL     1      51.537   5.312  10.836  0.00  0.00    +0.000 HD
ENDBRANCH  26  36
ENDBRANCH  21  25
ENDBRANCH   3  20
TORSDOF 5
ENDMDL
MODEL 8
REMARK VINA RESULT:      -6.2      4.396      7.029
REMARK  Name = 44234954_SipholenolL.pdbqt.pdb
REMARK  5 active torsions:
REMARK  status: ('A' for Active; 'I' for Inactive)
REMARK    1  A    between atoms: C_3  and  C_20
REMARK    2  A    between atoms: C_4  and  O_16
REMARK    3  A    between atoms: C_13  and  O_18
REMARK    4  A    between atoms: C_21  and  C_25
REMARK    5  A    between atoms: C_26  and  O_36
REMARK                            x       y       z     vdW  Elec       q    Type
REMARK                         _______ _______ _______ _____ _____    ______ ____
ROOT
ATOM      1  O   UNL     1      45.887  -5.462  21.351  0.00  0.00    +0.000 OA
ATOM      2  C   UNL     1      44.307  -5.804  19.306  0.00  0.00    +0.000 C 
ATOM      3  C   UNL     1      44.198  -6.499  17.947  0.00  0.00    +0.000 C 
ATOM      4  C   UNL     1      44.587  -7.961  17.821  0.00  0.00    +0.000 C 
ATOM      5  C   UNL     1      45.574  -6.181  20.192  0.00  0.00    +0.000 C 
ATOM      6  C   UNL     1      44.501  -4.354  19.145  0.00  0.00    +0.000 C 
ATOM      7  C   UNL     1      45.533  -8.279  18.875  0.00  0.00    +0.000 C 
ATOM      8  C   UNL     1      46.064  -7.493  20.028  0.00  0.00    +0.000 C 
ATOM      9  C   UNL     1      43.028  -6.078  20.140  0.00  0.00    +0.000 C 
ATOM     10  C   UNL     1      45.319  -3.212  19.693  0.00  0.00    +0.000 C 
ATOM     11  C   UNL     1      46.911  -4.405  21.298  0.00  0.00    +0.000 C 
ATOM     12  C   UNL     1      43.368  -8.877  17.777  0.00  0.00    +0.000 C 
ATOM     13  C   UNL     1      46.366  -3.096  20.636  0.00  0.00    +0.000 C 
ATOM     14  C   UNL     1      47.278  -4.106  22.777  0.00  0.00    +0.000 C 
ATOM     15  C   UNL     1      48.168  -4.881  20.506  0.00  0.00    +0.000 C 
ENDROOT
BRANCH   4  16
ATOM     16  O   UNL     1      45.232  -8.153  16.579  0.00  0.00    +0.000 OA
ATOM     17  H   UNL     1      45.966  -8.739  16.844  0.00  0.00    +0.000 HD
ENDBRANCH   4  16
BRANCH  13  18
ATOM     18  O   UNL     1      47.016  -1.875  20.774  0.00  0.00    +0.000 OA
ATOM     19  H   UNL     1      46.705  -1.374  21.549  0.00  0.00    +0.000 HD
ENDBRANCH  13  18
BRANCH   3  20
ATOM     20  C   UNL     1      43.673  -5.804  16.804  0.00  0.00    +0.000 C 
ATOM     21  C   UNL     1      43.083  -5.080  15.589  0.00  0.00    +0.000 C 
BRANCH  21  25
ATOM     22  C   UNL     1      41.599  -3.172  14.683  0.00  0.00    +0.000 A 
ATOM     23  C   UNL     1      40.977  -2.444  13.429  0.00  0.00    +0.000 A 
ATOM     24  C   UNL     1      41.320  -2.672  16.161  0.00  0.00    +0.000 C 
ATOM     25  C   UNL     1      42.486  -4.418  14.472  0.00  0.00    +0.000 A 
ATOM     26  C   UNL     1      40.089  -1.178  13.404  0.00  0.00    +0.000 C 
ATOM     27  C   UNL     1      40.434  -1.514  16.008  0.00  0.00    +0.000 C 
ATOM     28  C   UNL     1      39.865  -0.829  14.794  0.00  0.00    +0.000 C 
ATOM     29  C   UNL     1      41.307  -3.141  12.230  0.00  0.00    +0.000 A 
ATOM     30  C   UNL     1      42.754  -5.001  13.128  0.00  0.00    +0.000 A 
ATOM     31  C   UNL     1      42.646  -2.218  16.817  0.00  0.00    +0.000 C 
ATOM     32  C   UNL     1      40.586  -3.770  16.959  0.00  0.00    +0.000 C 
ATOM     33  C   UNL     1      42.172  -4.365  12.162  0.00  0.00    +0.000 A 
ATOM     34  C   UNL     1      40.737  -0.061  12.597  0.00  0.00    +0.000 C 
ATOM     35  C   UNL     1      43.706  -6.120  12.821  0.00  0.00    +0.000 C 
BRANCH  26  36
ATOM     36  O   UNL     1      38.863  -1.475  12.788  0.00  0.00    +0.000 OA
ATOM     37  H   UNL     1      38.965  -1.010  11.938  0.00  0.00    +0.000 HD
ENDBRANCH  26  36
ENDBRANCH  21  25
ENDBRANCH   3  20
TORSDOF 5
ENDMDL
MODEL 9
REMARK VINA RESULT:      -6.2     11.631     13.744
REMARK  Name = 44234954_SipholenolL.pdbqt.pdb
REMARK  5 active torsions:
REMARK  status: ('A' for Active; 'I' for Inactive)
REMARK    1  A    between atoms: C_3  and  C_20
REMARK    2  A    between atoms: C_4  and  O_16
REMARK    3  A    between atoms: C_13  and  O_18
REMARK    4  A    between atoms: C_21  and  C_25
REMARK    5  A    between atoms: C_26  and  O_36
REMARK                            x       y       z     vdW  Elec       q    Type
REMARK                         _______ _______ _______ _____ _____    ______ ____
ROOT
ATOM      1  O   UNL     1      56.953  -3.038  14.666  0.00  0.00    +0.000 OA
ATOM      2  C   UNL     1      55.950  -0.645  14.897  0.00  0.00    +0.000 C 
ATOM      3  C   UNL     1      54.824   0.151  15.563  0.00  0.00    +0.000 C 
ATOM      4  C   UNL     1      54.535  -0.055  17.039  0.00  0.00    +0.000 C 
ATOM      5  C   UNL     1      56.103  -2.163  15.349  0.00  0.00    +0.000 C 
ATOM      6  C   UNL     1      55.703  -0.805  13.456  0.00  0.00    +0.000 C 
ATOM      7  C   UNL     1      54.991  -1.379  17.419  0.00  0.00    +0.000 C 
ATOM      8  C   UNL     1      55.729  -2.444  16.679  0.00  0.00    +0.000 C 
ATOM      9  C   UNL     1      57.306   0.072  15.126  0.00  0.00    +0.000 C 
ATOM     10  C   UNL     1      55.770  -1.842  12.363  0.00  0.00    +0.000 C 
ATOM     11  C   UNL     1      56.397  -3.956  13.656  0.00  0.00    +0.000 C 
ATOM     12  C   UNL     1      55.102   1.073  17.897  0.00  0.00    +0.000 C 
ATOM     13  C   UNL     1      56.078  -3.221  12.312  0.00  0.00    +0.000 C 
ATOM     14  C   UNL     1      57.503  -5.015  13.401  0.00  0.00    +0.000 C 
ATOM     15  C   UNL     1      55.093  -4.638  14.176  0.00  0.00    +0.000 C 
ENDROOT
BRANCH   4  16
ATOM     16  O   UNL     1      53.137   0.003  17.240  0.00  0.00    +0.000 OA
ATOM     17  H   UNL     1      52.816  -0.332  16.382  0.00  0.00    +0.000 HD
ENDBRANCH   4  16
BRANCH  13  18
ATOM     18  O   UNL     1      55.869  -3.914  11.126  0.00  0.00    +0.000 OA
ATOM     19  H   UNL     1      55.057  -4.451  11.146  0.00  0.00    +0.000 HD
ENDBRANCH  13  18
BRANCH   3  20
ATOM     20  C   UNL     1      54.080   1.134  14.824  0.00  0.00    +0.000 C 
ATOM     21  C   UNL     1      53.318   2.193  14.022  0.00  0.00    +0.000 C 
BRANCH  21  25
ATOM     22  C   UNL     1      51.676   2.764  12.112  0.00  0.00    +0.000 A 
ATOM     23  C   UNL     1      50.925   3.878  11.285  0.00  0.00    +0.000 A 
ATOM     24  C   UNL     1      51.482   1.222  11.803  0.00  0.00    +0.000 C 
ATOM     25  C   UNL     1      52.645   3.183  13.240  0.00  0.00    +0.000 A 
ATOM     26  C   UNL     1      49.902   3.689  10.141  0.00  0.00    +0.000 C 
ATOM     27  C   UNL     1      50.543   1.177  10.677  0.00  0.00    +0.000 C 
ATOM     28  C   UNL     1      49.828   2.259   9.913  0.00  0.00    +0.000 C 
ATOM     29  C   UNL     1      51.341   5.177  11.701  0.00  0.00    +0.000 A 
ATOM     30  C   UNL     1      52.942   4.606  13.564  0.00  0.00    +0.000 A 
ATOM     31  C   UNL     1      50.846   0.521  13.027  0.00  0.00    +0.000 C 
ATOM     32  C   UNL     1      52.825   0.598  11.368  0.00  0.00    +0.000 C 
ATOM     33  C   UNL     1      52.314   5.450  12.810  0.00  0.00    +0.000 A 
ATOM     34  C   UNL     1      48.560   4.318  10.487  0.00  0.00    +0.000 C 
ATOM     35  C   UNL     1      53.759   5.099  14.722  0.00  0.00    +0.000 C 
BRANCH  26  36
ATOM     36  O   UNL     1      50.371   4.328   8.981  0.00  0.00    +0.000 OA
ATOM     37  H   UNL     1      50.198   5.262   9.201  0.00  0.00    +0.000 HD
ENDBRANCH  26  36
ENDBRANCH  21  25
ENDBRANCH   3  20
TORSDOF 5
ENDMDL
