MODEL 1
REMARK VINA RESULT:      -5.6      0.000      0.000
REMARK  Name = 442793_6gingerol.pdbqt.pdb
REMARK  7 active torsions:
REMARK  status: ('A' for Active; 'I' for Inactive)
REMARK    1  A    between atoms: C_1  and  C_3
REMARK    2  A    between atoms: C_5  and  O_6
REMARK    3  A    between atoms: C_5  and  C_8
REMARK    4  A    between atoms: C_9  and  C_10
REMARK    5  A    between atoms: C_13  and  C_14
REMARK    6  A    between atoms: C_17  and  O_20
REMARK    7  A    between atoms: C_19  and  O_22
REMARK                            x       y       z     vdW  Elec       q    Type
REMARK                         _______ _______ _______ _____ _____    ______ ____
ROOT
ATOM      1  C   UNL     1      41.145  -1.876  14.991  0.00  0.00    +0.000 C 
ATOM      2  C   UNL     1      40.655  -0.585  15.659  0.00  0.00    +0.000 C 
ENDROOT
BRANCH   2   3
ATOM      3  C   UNL     1      40.197   0.611  16.280  0.00  0.00    +0.000 A 
ATOM      4  C   UNL     1      40.155   0.699  17.671  0.00  0.00    +0.000 A 
ATOM      5  C   UNL     1      39.793   1.689  15.498  0.00  0.00    +0.000 A 
ATOM      6  C   UNL     1      39.708   1.867  18.295  0.00  0.00    +0.000 A 
ATOM      7  C   UNL     1      39.345   2.858  16.106  0.00  0.00    +0.000 A 
ATOM      8  C   UNL     1      39.304   2.942  17.498  0.00  0.00    +0.000 A 
BRANCH   6   9
ATOM      9  O   UNL     1      39.633   2.038  19.656  0.00  0.00    +0.000 OA
ATOM     10  C   UNL     1      40.826   1.813  20.361  0.00  0.00    +0.000 C 
ENDBRANCH   6   9
BRANCH   8  11
ATOM     11  O   UNL     1      38.863   4.093  18.089  0.00  0.00    +0.000 OA
ATOM     12  H   UNL     1      37.952   4.269  17.789  0.00  0.00    +0.000 HD
ENDBRANCH   8  11
ENDBRANCH   2   3
BRANCH   1  14
ATOM     13  O   UNL     1      40.805  -3.864  13.860  0.00  0.00    +0.000 OA
ATOM     14  C   UNL     1      41.604  -3.090  14.365  0.00  0.00    +0.000 C 
ATOM     15  C   UNL     1      43.010  -3.385  14.340  0.00  0.00    +0.000 C 
ATOM     16  C   UNL     1      44.390  -3.681  14.316  0.00  0.00    +0.000 C 
BRANCH  16  17
ATOM     17  O   UNL     1      45.259  -2.672  14.655  0.00  0.00    +0.000 OA
ATOM     18  H   UNL     1      46.177  -2.990  14.713  0.00  0.00    +0.000 HD
ENDBRANCH  16  17
BRANCH  16  19
ATOM     19  C   UNL     1      44.915  -4.949  13.965  0.00  0.00    +0.000 C 
ATOM     20  C   UNL     1      45.490  -6.319  13.591  0.00  0.00    +0.000 C 
BRANCH  20  21
ATOM     21  C   UNL     1      46.072  -7.687  13.219  0.00  0.00    +0.000 C 
ATOM     22  C   UNL     1      46.653  -9.054  12.845  0.00  0.00    +0.000 C 
ATOM     23  C   UNL     1      47.236 -10.418  12.464  0.00  0.00    +0.000 C 
ENDBRANCH  20  21
ENDBRANCH  16  19
ENDBRANCH   1  14
TORSDOF 7
ENDMDL
MODEL 2
REMARK VINA RESULT:      -5.5      3.076      5.028
REMARK  Name = 442793_6gingerol.pdbqt.pdb
REMARK  7 active torsions:
REMARK  status: ('A' for Active; 'I' for Inactive)
REMARK    1  A    between atoms: C_1  and  C_3
REMARK    2  A    between atoms: C_5  and  O_6
REMARK    3  A    between atoms: C_5  and  C_8
REMARK    4  A    between atoms: C_9  and  C_10
REMARK    5  A    between atoms: C_13  and  C_14
REMARK    6  A    between atoms: C_17  and  O_20
REMARK    7  A    between atoms: C_19  and  O_22
REMARK                            x       y       z     vdW  Elec       q    Type
REMARK                         _______ _______ _______ _____ _____    ______ ____
ROOT
ATOM      1  C   UNL     1      42.878  -5.716  13.050  0.00  0.00    +0.000 C 
ATOM      2  C   UNL     1      42.389  -4.263  12.997  0.00  0.00    +0.000 C 
ENDROOT
BRANCH   2   3
ATOM      3  C   UNL     1      41.934  -2.914  12.950  0.00  0.00    +0.000 A 
ATOM      4  C   UNL     1      41.552  -2.270  14.126  0.00  0.00    +0.000 A 
ATOM      5  C   UNL     1      41.872  -2.245  11.732  0.00  0.00    +0.000 A 
ATOM      6  C   UNL     1      41.103  -0.947  14.095  0.00  0.00    +0.000 A 
ATOM      7  C   UNL     1      41.427  -0.926  11.687  0.00  0.00    +0.000 A 
ATOM      8  C   UNL     1      41.045  -0.285  12.865  0.00  0.00    +0.000 A 
BRANCH   6   9
ATOM      9  O   UNL     1      40.707  -0.238  15.203  0.00  0.00    +0.000 OA
ATOM     10  C   UNL     1      39.533  -0.690  15.825  0.00  0.00    +0.000 C 
ENDBRANCH   6   9
BRANCH   8  11
ATOM     11  O   UNL     1      40.608   1.009  12.814  0.00  0.00    +0.000 OA
ATOM     12  H   UNL     1      41.382   1.597  12.726  0.00  0.00    +0.000 HD
ENDBRANCH   8  11
ENDBRANCH   2   3
BRANCH   1  14
ATOM     13  O   UNL     1      42.530  -8.001  13.121  0.00  0.00    +0.000 OA
ATOM     14  C   UNL     1      43.335  -7.082  13.103  0.00  0.00    +0.000 C 
ATOM     15  C   UNL     1      44.744  -7.355  13.135  0.00  0.00    +0.000 C 
ATOM     16  C   UNL     1      46.129  -7.628  13.169  0.00  0.00    +0.000 C 
BRANCH  16  17
ATOM     17  O   UNL     1      46.985  -6.592  12.884  0.00  0.00    +0.000 OA
ATOM     18  H   UNL     1      46.528  -5.856  12.441  0.00  0.00    +0.000 HD
ENDBRANCH  16  17
BRANCH  16  19
ATOM     19  C   UNL     1      46.671  -8.899  13.481  0.00  0.00    +0.000 C 
ATOM     20  C   UNL     1      47.260 -10.275  13.810  0.00  0.00    +0.000 C 
BRANCH  20  21
ATOM     21  C   UNL     1      47.850 -11.651  14.131  0.00  0.00    +0.000 C 
ATOM     22  C   UNL     1      48.440 -13.029  14.451  0.00  0.00    +0.000 C 
ATOM     23  C   UNL     1      49.031 -14.407  14.764  0.00  0.00    +0.000 C 
ENDBRANCH  20  21
ENDBRANCH  16  19
ENDBRANCH   1  14
TORSDOF 7
ENDMDL
MODEL 3
REMARK VINA RESULT:      -5.4      1.558      2.652
REMARK  Name = 442793_6gingerol.pdbqt.pdb
REMARK  7 active torsions:
REMARK  status: ('A' for Active; 'I' for Inactive)
REMARK    1  A    between atoms: C_1  and  C_3
REMARK    2  A    between atoms: C_5  and  O_6
REMARK    3  A    between atoms: C_5  and  C_8
REMARK    4  A    between atoms: C_9  and  C_10
REMARK    5  A    between atoms: C_13  and  C_14
REMARK    6  A    between atoms: C_17  and  O_20
REMARK    7  A    between atoms: C_19  and  O_22
REMARK                            x       y       z     vdW  Elec       q    Type
REMARK                         _______ _______ _______ _____ _____    ______ ____
ROOT
ATOM      1  C   UNL     1      43.418  -2.489  15.010  0.00  0.00    +0.000 C 
ATOM      2  C   UNL     1      42.412  -1.332  15.007  0.00  0.00    +0.000 C 
ENDROOT
BRANCH   2   3
ATOM      3  C   UNL     1      41.476  -0.259  15.002  0.00  0.00    +0.000 A 
ATOM      4  C   UNL     1      41.296   0.509  16.151  0.00  0.00    +0.000 A 
ATOM      5  C   UNL     1      40.743   0.019  13.852  0.00  0.00    +0.000 A 
ATOM      6  C   UNL     1      40.380   1.565  16.163  0.00  0.00    +0.000 A 
ATOM      7  C   UNL     1      39.828   1.069  13.849  0.00  0.00    +0.000 A 
ATOM      8  C   UNL     1      39.651   1.834  15.001  0.00  0.00    +0.000 A 
BRANCH   6   9
ATOM      9  O   UNL     1      40.140   2.370  17.250  0.00  0.00    +0.000 OA
ATOM     10  C   UNL     1      39.888   1.700  18.457  0.00  0.00    +0.000 C 
ENDBRANCH   6   9
BRANCH   8  11
ATOM     11  O   UNL     1      38.750   2.863  14.992  0.00  0.00    +0.000 OA
ATOM     12  H   UNL     1      38.527   3.091  15.914  0.00  0.00    +0.000 HD
ENDBRANCH   8  11
ENDBRANCH   2   3
BRANCH   1  14
ATOM     13  O   UNL     1      45.360  -3.529  15.715  0.00  0.00    +0.000 OA
ATOM     14  C   UNL     1      44.361  -3.579  15.013  0.00  0.00    +0.000 C 
ATOM     15  C   UNL     1      44.119  -4.725  14.182  0.00  0.00    +0.000 C 
ATOM     16  C   UNL     1      43.887  -5.854  13.366  0.00  0.00    +0.000 C 
BRANCH  16  17
ATOM     17  O   UNL     1      42.639  -5.981  12.804  0.00  0.00    +0.000 OA
ATOM     18  H   UNL     1      42.484  -6.882  12.470  0.00  0.00    +0.000 HD
ENDBRANCH  16  17
BRANCH  16  19
ATOM     19  C   UNL     1      44.864  -6.844  13.099  0.00  0.00    +0.000 C 
ATOM     20  C   UNL     1      45.928  -7.909  12.813  0.00  0.00    +0.000 C 
BRANCH  20  21
ATOM     21  C   UNL     1      46.996  -8.968  12.526  0.00  0.00    +0.000 C 
ATOM     22  C   UNL     1      48.066 -10.027  12.240  0.00  0.00    +0.000 C 
ATOM     23  C   UNL     1      49.140 -11.082  11.959  0.00  0.00    +0.000 C 
ENDBRANCH  20  21
ENDBRANCH  16  19
ENDBRANCH   1  14
TORSDOF 7
ENDMDL
MODEL 4
REMARK VINA RESULT:      -5.0      1.859      3.341
REMARK  Name = 442793_6gingerol.pdbqt.pdb
REMARK  7 active torsions:
REMARK  status: ('A' for Active; 'I' for Inactive)
REMARK    1  A    between atoms: C_1  and  C_3
REMARK    2  A    between atoms: C_5  and  O_6
REMARK    3  A    between atoms: C_5  and  C_8
REMARK    4  A    between atoms: C_9  and  C_10
REMARK    5  A    between atoms: C_13  and  C_14
REMARK    6  A    between atoms: C_17  and  O_20
REMARK    7  A    between atoms: C_19  and  O_22
REMARK                            x       y       z     vdW  Elec       q    Type
REMARK                         _______ _______ _______ _____ _____    ______ ____
ROOT
ATOM      1  C   UNL     1      43.931  -2.745  15.869  0.00  0.00    +0.000 C 
ATOM      2  C   UNL     1      42.953  -1.595  16.139  0.00  0.00    +0.000 C 
ENDROOT
BRANCH   2   3
ATOM      3  C   UNL     1      42.044  -0.528  16.391  0.00  0.00    +0.000 A 
ATOM      4  C   UNL     1      41.304   0.015  15.342  0.00  0.00    +0.000 A 
ATOM      5  C   UNL     1      41.899  -0.031  17.683  0.00  0.00    +0.000 A 
ATOM      6  C   UNL     1      40.409   1.063  15.574  0.00  0.00    +0.000 A 
ATOM      7  C   UNL     1      41.010   1.012  17.928  0.00  0.00    +0.000 A 
ATOM      8  C   UNL     1      40.272   1.553  16.876  0.00  0.00    +0.000 A 
BRANCH   6   9
ATOM      9  O   UNL     1      39.642   1.656  14.601  0.00  0.00    +0.000 OA
ATOM     10  C   UNL     1      39.565   0.962  13.384  0.00  0.00    +0.000 C 
ENDBRANCH   6   9
BRANCH   8  11
ATOM     11  O   UNL     1      39.401   2.578  17.124  0.00  0.00    +0.000 OA
ATOM     12  H   UNL     1      39.286   2.664  18.089  0.00  0.00    +0.000 HD
ENDBRANCH   8  11
ENDBRANCH   2   3
BRANCH   1  14
ATOM     13  O   UNL     1      45.899  -3.902  16.239  0.00  0.00    +0.000 OA
ATOM     14  C   UNL     1      44.849  -3.828  15.618  0.00  0.00    +0.000 C 
ATOM     15  C   UNL     1      44.521  -4.818  14.631  0.00  0.00    +0.000 C 
ATOM     16  C   UNL     1      44.205  -5.794  13.661  0.00  0.00    +0.000 C 
BRANCH  16  17
ATOM     17  O   UNL     1      42.916  -5.817  13.185  0.00  0.00    +0.000 OA
ATOM     18  H   UNL     1      42.877  -6.119  12.261  0.00  0.00    +0.000 HD
ENDBRANCH  16  17
BRANCH  16  19
ATOM     19  C   UNL     1      45.138  -6.733  13.159  0.00  0.00    +0.000 C 
ATOM     20  C   UNL     1      46.148  -7.746  12.607  0.00  0.00    +0.000 C 
BRANCH  20  21
ATOM     21  C   UNL     1      47.155  -8.756  12.050  0.00  0.00    +0.000 C 
ATOM     22  C   UNL     1      48.164  -9.764  11.491  0.00  0.00    +0.000 C 
ATOM     23  C   UNL     1      49.175 -10.768  10.928  0.00  0.00    +0.000 C 
ENDBRANCH  20  21
ENDBRANCH  16  19
ENDBRANCH   1  14
TORSDOF 7
ENDMDL
MODEL 5
REMARK VINA RESULT:      -4.6     13.274     17.187
REMARK  Name = 442793_6gingerol.pdbqt.pdb
REMARK  7 active torsions:
REMARK  status: ('A' for Active; 'I' for Inactive)
REMARK    1  A    between atoms: C_1  and  C_3
REMARK    2  A    between atoms: C_5  and  O_6
REMARK    3  A    between atoms: C_5  and  C_8
REMARK    4  A    between atoms: C_9  and  C_10
REMARK    5  A    between atoms: C_13  and  C_14
REMARK    6  A    between atoms: C_17  and  O_20
REMARK    7  A    between atoms: C_19  and  O_22
REMARK                            x       y       z     vdW  Elec       q    Type
REMARK                         _______ _______ _______ _____ _____    ______ ____
ROOT
ATOM      1  C   UNL     1      27.652  -0.169  14.435  0.00  0.00    +0.000 C 
ATOM      2  C   UNL     1      28.298  -0.942  13.278  0.00  0.00    +0.000 C 
ENDROOT
BRANCH   2   3
ATOM      3  C   UNL     1      28.897  -1.658  12.202  0.00  0.00    +0.000 A 
ATOM      4  C   UNL     1      28.954  -1.084  10.934  0.00  0.00    +0.000 A 
ATOM      5  C   UNL     1      29.422  -2.928  12.421  0.00  0.00    +0.000 A 
ATOM      6  C   UNL     1      29.538  -1.774   9.868  0.00  0.00    +0.000 A 
ATOM      7  C   UNL     1      30.006  -3.627  11.368  0.00  0.00    +0.000 A 
ATOM      8  C   UNL     1      30.061  -3.049  10.100  0.00  0.00    +0.000 A 
BRANCH   6   9
ATOM      9  O   UNL     1      29.635  -1.284   8.588  0.00  0.00    +0.000 OA
ATOM     10  C   UNL     1      29.110   0.002   8.390  0.00  0.00    +0.000 C 
ENDBRANCH   6   9
BRANCH   8  11
ATOM     11  O   UNL     1      30.637  -3.741   9.071  0.00  0.00    +0.000 OA
ATOM     12  H   UNL     1      31.456  -4.160   9.395  0.00  0.00    +0.000 HD
ENDBRANCH   8  11
ENDBRANCH   2   3
BRANCH   1  14
ATOM     13  O   UNL     1      25.840   0.768  15.523  0.00  0.00    +0.000 OA
ATOM     14  C   UNL     1      27.043   0.559  15.520  0.00  0.00    +0.000 C 
ATOM     15  C   UNL     1      27.864   1.039  16.596  0.00  0.00    +0.000 C 
ATOM     16  C   UNL     1      28.666   1.515  17.656  0.00  0.00    +0.000 C 
BRANCH  16  17
ATOM     17  O   UNL     1      29.951   1.035  17.741  0.00  0.00    +0.000 OA
ATOM     18  H   UNL     1      30.126   0.349  17.073  0.00  0.00    +0.000 HD
ENDBRANCH  16  17
BRANCH  16  19
ATOM     19  C   UNL     1      28.219   2.450  18.620  0.00  0.00    +0.000 C 
ATOM     20  C   UNL     1      27.725   3.459  19.663  0.00  0.00    +0.000 C 
BRANCH  20  21
ATOM     21  C   UNL     1      27.225   4.466  20.704  0.00  0.00    +0.000 C 
ATOM     22  C   UNL     1      26.727   5.472  21.747  0.00  0.00    +0.000 C 
ATOM     23  C   UNL     1      26.235   6.476  22.793  0.00  0.00    +0.000 C 
ENDBRANCH  20  21
ENDBRANCH  16  19
ENDBRANCH   1  14
TORSDOF 7
ENDMDL
MODEL 6
REMARK VINA RESULT:      -4.6     23.292     24.396
REMARK  Name = 442793_6gingerol.pdbqt.pdb
REMARK  7 active torsions:
REMARK  status: ('A' for Active; 'I' for Inactive)
REMARK    1  A    between atoms: C_1  and  C_3
REMARK    2  A    between atoms: C_5  and  O_6
REMARK    3  A    between atoms: C_5  and  C_8
REMARK    4  A    between atoms: C_9  and  C_10
REMARK    5  A    between atoms: C_13  and  C_14
REMARK    6  A    between atoms: C_17  and  O_20
REMARK    7  A    between atoms: C_19  and  O_22
REMARK                            x       y       z     vdW  Elec       q    Type
REMARK                         _______ _______ _______ _____ _____    ______ ____
ROOT
ATOM      1  C   UNL     1      38.232   2.442  -7.535  0.00  0.00    +0.000 C 
ATOM      2  C   UNL     1      36.698   2.444  -7.497  0.00  0.00    +0.000 C 
ENDROOT
BRANCH   2   3
ATOM      3  C   UNL     1      35.275   2.449  -7.461  0.00  0.00    +0.000 A 
ATOM      4  C   UNL     1      34.605   1.797  -6.426  0.00  0.00    +0.000 A 
ATOM      5  C   UNL     1      34.558   3.103  -8.458  0.00  0.00    +0.000 A 
ATOM      6  C   UNL     1      33.208   1.792  -6.378  0.00  0.00    +0.000 A 
ATOM      7  C   UNL     1      33.166   3.106  -8.422  0.00  0.00    +0.000 A 
ATOM      8  C   UNL     1      32.499   2.453  -7.386  0.00  0.00    +0.000 A 
BRANCH   6   9
ATOM      9  O   UNL     1      32.469   1.176  -5.397  0.00  0.00    +0.000 OA
ATOM     10  C   UNL     1      33.209   0.602  -4.352  0.00  0.00    +0.000 C 
ENDBRANCH   6   9
BRANCH   8  11
ATOM     11  O   UNL     1      31.132   2.460  -7.356  0.00  0.00    +0.000 OA
ATOM     12  H   UNL     1      30.840   2.504  -6.427  0.00  0.00    +0.000 HD
ENDBRANCH   8  11
ENDBRANCH   2   3
BRANCH   1  14
ATOM     13  O   UNL     1      40.299   3.423  -7.197  0.00  0.00    +0.000 OA
ATOM     14  C   UNL     1      39.673   2.443  -7.572  0.00  0.00    +0.000 C 
ATOM     15  C   UNL     1      40.368   1.282  -8.055  0.00  0.00    +0.000 C 
ATOM     16  C   UNL     1      41.056   0.145  -8.531  0.00  0.00    +0.000 C 
BRANCH  16  17
ATOM     17  O   UNL     1      40.332  -1.012  -8.689  0.00  0.00    +0.000 OA
ATOM     18  H   UNL     1      39.562  -0.880  -9.270  0.00  0.00    +0.000 HD
ENDBRANCH  16  17
BRANCH  16  19
ATOM     19  C   UNL     1      42.436   0.139  -8.850  0.00  0.00    +0.000 C 
ATOM     20  C   UNL     1      43.931   0.132  -9.185  0.00  0.00    +0.000 C 
BRANCH  20  21
ATOM     21  C   UNL     1      45.427   0.126  -9.515  0.00  0.00    +0.000 C 
ATOM     22  C   UNL     1      46.924   0.121  -9.843  0.00  0.00    +0.000 C 
ATOM     23  C   UNL     1      48.421   0.121 -10.166  0.00  0.00    +0.000 C 
ENDBRANCH  20  21
ENDBRANCH  16  19
ENDBRANCH   1  14
TORSDOF 7
ENDMDL
MODEL 7
REMARK VINA RESULT:      -4.5     12.885     16.233
REMARK  Name = 442793_6gingerol.pdbqt.pdb
REMARK  7 active torsions:
REMARK  status: ('A' for Active; 'I' for Inactive)
REMARK    1  A    between atoms: C_1  and  C_3
REMARK    2  A    between atoms: C_5  and  O_6
REMARK    3  A    between atoms: C_5  and  C_8
REMARK    4  A    between atoms: C_9  and  C_10
REMARK    5  A    between atoms: C_13  and  C_14
REMARK    6  A    between atoms: C_17  and  O_20
REMARK    7  A    between atoms: C_19  and  O_22
REMARK                            x       y       z     vdW  Elec       q    Type
REMARK                         _______ _______ _______ _____ _____    ______ ____
ROOT
ATOM      1  C   UNL     1      28.438  -0.426  13.636  0.00  0.00    +0.000 C 
ATOM      2  C   UNL     1      28.737  -1.260  12.384  0.00  0.00    +0.000 C 
ENDROOT
BRANCH   2   3
ATOM      3  C   UNL     1      29.017  -2.032  11.220  0.00  0.00    +0.000 A 
ATOM      4  C   UNL     1      28.744  -3.399  11.213  0.00  0.00    +0.000 A 
ATOM      5  C   UNL     1      29.561  -1.419  10.095  0.00  0.00    +0.000 A 
ATOM      6  C   UNL     1      29.014  -4.170  10.079  0.00  0.00    +0.000 A 
ATOM      7  C   UNL     1      29.834  -2.175   8.958  0.00  0.00    +0.000 A 
ATOM      8  C   UNL     1      29.561  -3.543   8.955  0.00  0.00    +0.000 A 
BRANCH   6   9
ATOM      9  O   UNL     1      28.778  -5.520   9.986  0.00  0.00    +0.000 OA
ATOM     10  C   UNL     1      29.611  -6.335  10.768  0.00  0.00    +0.000 C 
ENDBRANCH   6   9
BRANCH   8  11
ATOM     11  O   UNL     1      29.832  -4.279   7.835  0.00  0.00    +0.000 OA
ATOM     12  H   UNL     1      30.275  -5.106   8.105  0.00  0.00    +0.000 HD
ENDBRANCH   8  11
ENDBRANCH   2   3
BRANCH   1  14
ATOM     13  O   UNL     1      27.174   1.082  14.852  0.00  0.00    +0.000 OA
ATOM     14  C   UNL     1      28.159   0.359  14.812  0.00  0.00    +0.000 C 
ATOM     15  C   UNL     1      29.049   0.287  15.937  0.00  0.00    +0.000 C 
ATOM     16  C   UNL     1      29.922   0.222  17.045  0.00  0.00    +0.000 C 
BRANCH  16  17
ATOM     17  O   UNL     1      30.854  -0.787  17.057  0.00  0.00    +0.000 OA
ATOM     18  H   UNL     1      31.684  -0.518  16.625  0.00  0.00    +0.000 HD
ENDBRANCH  16  17
BRANCH  16  19
ATOM     19  C   UNL     1      29.885   1.135  18.128  0.00  0.00    +0.000 C 
ATOM     20  C   UNL     1      29.836   2.125  19.296  0.00  0.00    +0.000 C 
BRANCH  20  21
ATOM     21  C   UNL     1      29.782   3.117  20.462  0.00  0.00    +0.000 C 
ATOM     22  C   UNL     1      29.725   4.109  21.628  0.00  0.00    +0.000 C 
ATOM     23  C   UNL     1      29.662   5.099  22.795  0.00  0.00    +0.000 C 
ENDBRANCH  20  21
ENDBRANCH  16  19
ENDBRANCH   1  14
TORSDOF 7
ENDMDL
MODEL 8
REMARK VINA RESULT:      -4.4      5.432      9.586
REMARK  Name = 442793_6gingerol.pdbqt.pdb
REMARK  7 active torsions:
REMARK  status: ('A' for Active; 'I' for Inactive)
REMARK    1  A    between atoms: C_1  and  C_3
REMARK    2  A    between atoms: C_5  and  O_6
REMARK    3  A    between atoms: C_5  and  C_8
REMARK    4  A    between atoms: C_9  and  C_10
REMARK    5  A    between atoms: C_13  and  C_14
REMARK    6  A    between atoms: C_17  and  O_20
REMARK    7  A    between atoms: C_19  and  O_22
REMARK                            x       y       z     vdW  Elec       q    Type
REMARK                         _______ _______ _______ _____ _____    ______ ____
ROOT
ATOM      1  C   UNL     1      46.005  -4.050  17.375  0.00  0.00    +0.000 C 
ATOM      2  C   UNL     1      45.140  -4.325  16.138  0.00  0.00    +0.000 C 
ENDROOT
BRANCH   2   3
ATOM      3  C   UNL     1      44.340  -4.581  14.988  0.00  0.00    +0.000 A 
ATOM      4  C   UNL     1      43.532  -3.572  14.467  0.00  0.00    +0.000 A 
ATOM      5  C   UNL     1      44.366  -5.837  14.390  0.00  0.00    +0.000 A 
ATOM      6  C   UNL     1      42.740  -3.808  13.340  0.00  0.00    +0.000 A 
ATOM      7  C   UNL     1      43.583  -6.086  13.266  0.00  0.00    +0.000 A 
ATOM      8  C   UNL     1      42.775  -5.074  12.748  0.00  0.00    +0.000 A 
BRANCH   6   9
ATOM      9  O   UNL     1      41.916  -2.873  12.762  0.00  0.00    +0.000 OA
ATOM     10  C   UNL     1      42.511  -1.634  12.479  0.00  0.00    +0.000 C 
ENDBRANCH   6   9
BRANCH   8  11
ATOM     11  O   UNL     1      42.008  -5.325  11.644  0.00  0.00    +0.000 OA
ATOM     12  H   UNL     1      42.052  -4.552  11.051  0.00  0.00    +0.000 HD
ENDBRANCH   8  11
ENDBRANCH   2   3
BRANCH   1  14
ATOM     13  O   UNL     1      47.925  -4.302  18.639  0.00  0.00    +0.000 OA
ATOM     14  C   UNL     1      46.820  -3.791  18.535  0.00  0.00    +0.000 C 
ATOM     15  C   UNL     1      46.321  -2.930  19.571  0.00  0.00    +0.000 C 
ATOM     16  C   UNL     1      45.835  -2.086  20.593  0.00  0.00    +0.000 C 
BRANCH  16  17
ATOM     17  O   UNL     1      44.718  -1.336  20.316  0.00  0.00    +0.000 OA
ATOM     18  H   UNL     1      44.808  -0.850  19.478  0.00  0.00    +0.000 HD
ENDBRANCH  16  17
BRANCH  16  19
ATOM     19  C   UNL     1      46.434  -1.978  21.872  0.00  0.00    +0.000 C 
ATOM     20  C   UNL     1      47.085  -1.852  23.254  0.00  0.00    +0.000 C 
BRANCH  20  21
ATOM     21  C   UNL     1      47.739  -1.721  24.632  0.00  0.00    +0.000 C 
ATOM     22  C   UNL     1      48.394  -1.589  26.011  0.00  0.00    +0.000 C 
ATOM     23  C   UNL     1      49.050  -1.449  27.389  0.00  0.00    +0.000 C 
ENDBRANCH  20  21
ENDBRANCH  16  19
ENDBRANCH   1  14
TORSDOF 7
ENDMDL
MODEL 9
REMARK VINA RESULT:      -4.4     24.904     27.441
REMARK  Name = 442793_6gingerol.pdbqt.pdb
REMARK  7 active torsions:
REMARK  status: ('A' for Active; 'I' for Inactive)
REMARK    1  A    between atoms: C_1  and  C_3
REMARK    2  A    between atoms: C_5  and  O_6
REMARK    3  A    between atoms: C_5  and  C_8
REMARK    4  A    between atoms: C_9  and  C_10
REMARK    5  A    between atoms: C_13  and  C_14
REMARK    6  A    between atoms: C_17  and  O_20
REMARK    7  A    between atoms: C_19  and  O_22
REMARK                            x       y       z     vdW  Elec       q    Type
REMARK                         _______ _______ _______ _____ _____    ______ ____
ROOT
ATOM      1  C   UNL     1      35.316  17.577  -0.845  0.00  0.00    +0.000 C 
ATOM      2  C   UNL     1      36.670  17.656  -1.561  0.00  0.00    +0.000 C 
ENDROOT
BRANCH   2   3
ATOM      3  C   UNL     1      37.928  17.731  -2.224  0.00  0.00    +0.000 A 
ATOM      4  C   UNL     1      38.514  16.573  -2.733  0.00  0.00    +0.000 A 
ATOM      5  C   UNL     1      38.569  18.959  -2.362  0.00  0.00    +0.000 A 
ATOM      6  C   UNL     1      39.749  16.630  -3.386  0.00  0.00    +0.000 A 
ATOM      7  C   UNL     1      39.799  19.031  -3.010  0.00  0.00    +0.000 A 
ATOM      8  C   UNL     1      40.382  17.870  -3.517  0.00  0.00    +0.000 A 
BRANCH   6   9
ATOM      9  O   UNL     1      40.396  15.540  -3.915  0.00  0.00    +0.000 OA
ATOM     10  C   UNL     1      39.928  15.105  -5.164  0.00  0.00    +0.000 C 
ENDBRANCH   6   9
BRANCH   8  11
ATOM     11  O   UNL     1      41.590  17.947  -4.153  0.00  0.00    +0.000 OA
ATOM     12  H   UNL     1      42.150  17.208  -3.849  0.00  0.00    +0.000 HD
ENDBRANCH   8  11
ENDBRANCH   2   3
BRANCH   1  14
ATOM     13  O   UNL     1      33.005  17.527  -0.808  0.00  0.00    +0.000 OA
ATOM     14  C   UNL     1      34.045  17.504  -0.169  0.00  0.00    +0.000 C 
ATOM     15  C   UNL     1      34.012  17.406   1.264  0.00  0.00    +0.000 C 
ATOM     16  C   UNL     1      33.973  17.312   2.672  0.00  0.00    +0.000 C 
BRANCH  16  17
ATOM     17  O   UNL     1      35.150  17.026   3.319  0.00  0.00    +0.000 OA
ATOM     18  H   UNL     1      35.773  16.548   2.744  0.00  0.00    +0.000 HD
ENDBRANCH  16  17
BRANCH  16  19
ATOM     19  C   UNL     1      32.796  17.497   3.438  0.00  0.00    +0.000 C 
ATOM     20  C   UNL     1      31.526  17.690   4.274  0.00  0.00    +0.000 C 
BRANCH  20  21
ATOM     21  C   UNL     1      30.259  17.878   5.114  0.00  0.00    +0.000 C 
ATOM     22  C   UNL     1      28.990  18.065   5.952  0.00  0.00    +0.000 C 
ATOM     23  C   UNL     1      27.721  18.244   6.791  0.00  0.00    +0.000 C 
ENDBRANCH  20  21
ENDBRANCH  16  19
ENDBRANCH   1  14
TORSDOF 7
ENDMDL
