REMARK  Name = 442793_6gingerol.pdbqt.pdb
REMARK  7 active torsions:
REMARK  status: ('A' for Active; 'I' for Inactive)
REMARK    1  A    between atoms: C_1  and  C_3
REMARK    2  A    between atoms: C_5  and  O_6
REMARK    3  A    between atoms: C_5  and  C_8
REMARK    4  A    between atoms: C_9  and  C_10
REMARK    5  A    between atoms: C_13  and  C_14
REMARK    6  A    between atoms: C_17  and  O_20
REMARK    7  A    between atoms: C_19  and  O_22
REMARK                            x       y       z     vdW  Elec       q    Type
REMARK                         _______ _______ _______ _____ _____    ______ ____
ROOT
ATOM      1  C   UNL     1      -0.274   0.870  -0.989  0.00  0.00    +0.000 C 
ATOM      2  C   UNL     1      -1.773   0.711  -0.705  0.00  0.00    +0.000 C 
ENDROOT
BRANCH   2   3
ATOM      3  C   UNL     1      -3.164   0.561  -0.440  0.00  0.00    +0.000 A 
ATOM      4  C   UNL     1      -3.586  -0.250   0.612  0.00  0.00    +0.000 A 
ATOM      5  C   UNL     1      -4.097   1.224  -1.232  0.00  0.00    +0.000 A 
ATOM      6  C   UNL     1      -4.948  -0.408   0.884  0.00  0.00    +0.000 A 
ATOM      7  C   UNL     1      -5.457   1.076  -0.972  0.00  0.00    +0.000 A 
ATOM      8  C   UNL     1      -5.875   0.263   0.081  0.00  0.00    +0.000 A 
BRANCH   6   9
ATOM      9  O   UNL     1      -5.450  -1.187   1.898  0.00  0.00    +0.000 OA
ATOM     10  C   UNL     1      -4.494  -1.847   2.685  0.00  0.00    +0.000 C 
ENDBRANCH   6   9
BRANCH   8  11
ATOM     11  O   UNL     1      -7.212   0.122   0.331  0.00  0.00    +0.000 OA
ATOM     12  H   UNL     1      -7.709   0.653  -0.319  0.00  0.00    +0.000 HD
ENDBRANCH   8  11
ENDBRANCH   2   3
BRANCH   1  14
ATOM     13  O   UNL     1       1.517   1.509  -2.305  0.00  0.00    +0.000 OA
ATOM     14  C   UNL     1       1.135   1.017  -1.254  0.00  0.00    +0.000 C 
ATOM     15  C   UNL     1       2.088   0.578  -0.273  0.00  0.00    +0.000 C 
ATOM     16  C   UNL     1       3.029   0.146   0.687  0.00  0.00    +0.000 C 
BRANCH  16  17
ATOM     17  O   UNL     1       2.559  -0.152   1.943  0.00  0.00    +0.000 OA
ATOM     18  H   UNL     1       3.273  -0.442   2.537  0.00  0.00    +0.000 HD
ENDBRANCH  16  17
BRANCH  16  19
ATOM     19  C   UNL     1       4.413   0.005   0.421  0.00  0.00    +0.000 C 
ATOM     20  C   UNL     1       5.909  -0.144   0.124  0.00  0.00    +0.000 C 
BRANCH  20  21
ATOM     21  C   UNL     1       7.403  -0.292  -0.179  0.00  0.00    +0.000 C 
ATOM     22  C   UNL     1       8.898  -0.440  -0.480  0.00  0.00    +0.000 C 
ATOM     23  C   UNL     1      10.394  -0.590  -0.774  0.00  0.00    +0.000 C 
ENDBRANCH  20  21
ENDBRANCH  16  19
ENDBRANCH   1  14
TORSDOF 7
