REMARK  Name = 44423609_SipholenoneA.pdbqt.pdb
REMARK  4 active torsions:
REMARK  status: ('A' for Active; 'I' for Inactive)
REMARK    1  A    between atoms: C_3  and  C_19
REMARK    2  A    between atoms: C_5  and  O_17
REMARK    3  A    between atoms: C_20  and  C_24
REMARK    4  A    between atoms: C_25  and  O_35
REMARK                            x       y       z     vdW  Elec       q    Type
REMARK                         _______ _______ _______ _____ _____    ______ ____
ROOT
ATOM      1  O   UNL     1       5.032   1.377   0.133  0.00  0.00    +0.000 OA
ATOM      2  O   UNL     1       3.909   3.680   2.803  0.00  0.00    +0.000 OA
ATOM      3  C   UNL     1       2.137  -1.282  -0.269  0.00  0.00    +0.000 C 
ATOM      4  C   UNL     1       2.824   0.081  -0.332  0.00  0.00    +0.000 C 
ATOM      5  C   UNL     1       2.910  -2.543  -0.617  0.00  0.00    +0.000 C 
ATOM      6  C   UNL     1       4.375   0.150  -0.012  0.00  0.00    +0.000 C 
ATOM      7  C   UNL     1       4.329  -2.243  -0.604  0.00  0.00    +0.000 C 
ATOM      8  C   UNL     1       5.116  -1.008  -0.319  0.00  0.00    +0.000 C 
ATOM      9  C   UNL     1       2.286   0.982   0.701  0.00  0.00    +0.000 C 
ATOM     10  C   UNL     1       2.600   0.710  -1.736  0.00  0.00    +0.000 C 
ATOM     11  C   UNL     1       2.566  -3.681   0.350  0.00  0.00    +0.000 C 
ATOM     12  C   UNL     1       2.738   2.067   1.655  0.00  0.00    +0.000 C 
ATOM     13  C   UNL     1       5.250   1.938   1.471  0.00  0.00    +0.000 C 
ATOM     14  C   UNL     1       3.967   2.707   2.062  0.00  0.00    +0.000 C 
ATOM     15  C   UNL     1       6.439   2.938   1.295  0.00  0.00    +0.000 C 
ATOM     16  C   UNL     1       5.680   0.807   2.478  0.00  0.00    +0.000 C 
ENDROOT
BRANCH   5  17
ATOM     17  O   UNL     1       2.531  -2.994  -1.893  0.00  0.00    +0.000 OA
ATOM     18  H   UNL     1       2.245  -3.904  -1.694  0.00  0.00    +0.000 HD
ENDBRANCH   5  17
BRANCH   3  19
ATOM     19  C   UNL     1       0.704  -1.342  -0.134  0.00  0.00    +0.000 C 
ATOM     20  C   UNL     1      -0.819  -1.393   0.010  0.00  0.00    +0.000 C 
BRANCH  20  24
ATOM     21  C   UNL     1      -3.771   0.679   0.419  0.00  0.00    +0.000 C 
ATOM     22  C   UNL     1      -3.009  -0.482   1.105  0.00  0.00    +0.000 C 
ATOM     23  C   UNL     1      -4.942   0.530  -0.518  0.00  0.00    +0.000 C 
ATOM     24  C   UNL     1      -2.246  -1.436   0.154  0.00  0.00    +0.000 C 
ATOM     25  C   UNL     1      -5.481   1.886  -0.977  0.00  0.00    +0.000 C 
ATOM     26  C   UNL     1      -3.562   2.078   0.588  0.00  0.00    +0.000 C 
ATOM     27  C   UNL     1      -4.597   2.783  -0.243  0.00  0.00    +0.000 C 
ATOM     28  C   UNL     1      -4.997  -0.697  -1.211  0.00  0.00    +0.000 C 
ATOM     29  C   UNL     1      -2.994  -2.357  -0.704  0.00  0.00    +0.000 C 
ATOM     30  C   UNL     1      -1.983   0.148   2.124  0.00  0.00    +0.000 C 
ATOM     31  C   UNL     1      -4.027  -1.299   1.971  0.00  0.00    +0.000 C 
ATOM     32  C   UNL     1      -4.096  -1.903  -1.213  0.00  0.00    +0.000 C 
ATOM     33  C   UNL     1      -6.967   2.034  -0.699  0.00  0.00    +0.000 C 
ATOM     34  C   UNL     1      -2.390  -3.571  -1.361  0.00  0.00    +0.000 C 
BRANCH  25  35
ATOM     35  O   UNL     1      -5.300   2.044  -2.363  0.00  0.00    +0.000 OA
ATOM     36  H   UNL     1      -6.183   2.357  -2.626  0.00  0.00    +0.000 HD
ENDBRANCH  25  35
ENDBRANCH  20  24
ENDBRANCH   3  19
TORSDOF 4
