MODEL 1
REMARK VINA RESULT:      -6.8      0.000      0.000
REMARK  Name = 44423609_SipholenoneA.pdbqt.pdb
REMARK  4 active torsions:
REMARK  status: ('A' for Active; 'I' for Inactive)
REMARK    1  A    between atoms: C_3  and  C_19
REMARK    2  A    between atoms: C_5  and  O_17
REMARK    3  A    between atoms: C_20  and  C_24
REMARK    4  A    between atoms: C_25  and  O_35
REMARK                            x       y       z     vdW  Elec       q    Type
REMARK                         _______ _______ _______ _____ _____    ______ ____
ROOT
ATOM      1  O   UNL     1      52.125   2.282  13.944  0.00  0.00    +0.000 OA
ATOM      2  O   UNL     1      55.234   0.355  14.504  0.00  0.00    +0.000 OA
ATOM      3  C   UNL     1      51.329   1.925  10.090  0.00  0.00    +0.000 C 
ATOM      4  C   UNL     1      51.505   1.490  11.544  0.00  0.00    +0.000 C 
ATOM      5  C   UNL     1      50.712   3.275   9.767  0.00  0.00    +0.000 C 
ATOM      6  C   UNL     1      51.771   2.612  12.632  0.00  0.00    +0.000 C 
ATOM      7  C   UNL     1      50.727   4.097  10.962  0.00  0.00    +0.000 C 
ATOM      8  C   UNL     1      51.215   3.877  12.355  0.00  0.00    +0.000 C 
ATOM      9  C   UNL     1      52.714   0.663  11.696  0.00  0.00    +0.000 C 
ATOM     10  C   UNL     1      50.260   0.676  11.996  0.00  0.00    +0.000 C 
ATOM     11  C   UNL     1      51.452   3.952   8.609  0.00  0.00    +0.000 C 
ATOM     12  C   UNL     1      53.842   0.412  12.674  0.00  0.00    +0.000 C 
ATOM     13  C   UNL     1      53.537   2.278  14.343  0.00  0.00    +0.000 C 
ATOM     14  C   UNL     1      54.317   0.932  13.935  0.00  0.00    +0.000 C 
ATOM     15  C   UNL     1      53.512   2.432  15.899  0.00  0.00    +0.000 C 
ATOM     16  C   UNL     1      54.287   3.515  13.722  0.00  0.00    +0.000 C 
ENDROOT
BRANCH   5  17
ATOM     17  O   UNL     1      49.389   3.098   9.328  0.00  0.00    +0.000 OA
ATOM     18  H   UNL     1      49.285   3.861   8.731  0.00  0.00    +0.000 HD
ENDBRANCH   5  17
BRANCH   3  19
ATOM     19  C   UNL     1      51.507   0.955   9.040  0.00  0.00    +0.000 C 
ATOM     20  C   UNL     1      51.699  -0.066   7.915  0.00  0.00    +0.000 C 
BRANCH  20  24
ATOM     21  C   UNL     1      52.317  -3.574   7.222  0.00  0.00    +0.000 C 
ATOM     22  C   UNL     1      52.904  -2.168   6.940  0.00  0.00    +0.000 C 
ATOM     23  C   UNL     1      51.399  -4.343   6.307  0.00  0.00    +0.000 C 
ATOM     24  C   UNL     1      51.872  -1.018   6.856  0.00  0.00    +0.000 C 
ATOM     25  C   UNL     1      51.047  -5.719   6.877  0.00  0.00    +0.000 C 
ATOM     26  C   UNL     1      52.578  -4.419   8.339  0.00  0.00    +0.000 C 
ATOM     27  C   UNL     1      51.822  -5.698   8.112  0.00  0.00    +0.000 C 
ATOM     28  C   UNL     1      50.624  -3.549   5.437  0.00  0.00    +0.000 C 
ATOM     29  C   UNL     1      50.969  -0.935   5.706  0.00  0.00    +0.000 C 
ATOM     30  C   UNL     1      53.940  -1.839   8.082  0.00  0.00    +0.000 C 
ATOM     31  C   UNL     1      53.734  -2.235   5.613  0.00  0.00    +0.000 C 
ATOM     32  C   UNL     1      50.518  -2.059   5.246  0.00  0.00    +0.000 C 
ATOM     33  C   UNL     1      51.369  -6.840   5.904  0.00  0.00    +0.000 C 
ATOM     34  C   UNL     1      50.216   0.311   5.317  0.00  0.00    +0.000 C 
BRANCH  25  35
ATOM     35  O   UNL     1      49.672  -5.797   7.161  0.00  0.00    +0.000 OA
ATOM     36  H   UNL     1      49.502  -4.894   7.481  0.00  0.00    +0.000 HD
ENDBRANCH  25  35
ENDBRANCH  20  24
ENDBRANCH   3  19
TORSDOF 4
ENDMDL
MODEL 2
REMARK VINA RESULT:      -6.2      2.121      3.303
REMARK  Name = 44423609_SipholenoneA.pdbqt.pdb
REMARK  4 active torsions:
REMARK  status: ('A' for Active; 'I' for Inactive)
REMARK    1  A    between atoms: C_3  and  C_19
REMARK    2  A    between atoms: C_5  and  O_17
REMARK    3  A    between atoms: C_20  and  C_24
REMARK    4  A    between atoms: C_25  and  O_35
REMARK                            x       y       z     vdW  Elec       q    Type
REMARK                         _______ _______ _______ _____ _____    ______ ____
ROOT
ATOM      1  O   UNL     1      52.127   2.010  13.701  0.00  0.00    +0.000 OA
ATOM      2  O   UNL     1      55.180  -0.076  13.578  0.00  0.00    +0.000 OA
ATOM      3  C   UNL     1      50.839   2.237   9.973  0.00  0.00    +0.000 C 
ATOM      4  C   UNL     1      51.173   1.592  11.317  0.00  0.00    +0.000 C 
ATOM      5  C   UNL     1      50.255   3.639   9.923  0.00  0.00    +0.000 C 
ATOM      6  C   UNL     1      51.628   2.538  12.505  0.00  0.00    +0.000 C 
ATOM      7  C   UNL     1      50.460   4.280  11.208  0.00  0.00    +0.000 C 
ATOM      8  C   UNL     1      51.107   3.846  12.481  0.00  0.00    +0.000 C 
ATOM      9  C   UNL     1      52.348   0.714  11.193  0.00  0.00    +0.000 C 
ATOM     10  C   UNL     1      49.955   0.762  11.810  0.00  0.00    +0.000 C 
ATOM     11  C   UNL     1      50.878   4.452   8.783  0.00  0.00    +0.000 C 
ATOM     12  C   UNL     1      53.575   0.289  11.971  0.00  0.00    +0.000 C 
ATOM     13  C   UNL     1      53.575   1.904  13.908  0.00  0.00    +0.000 C 
ATOM     14  C   UNL     1      54.229   0.606  13.219  0.00  0.00    +0.000 C 
ATOM     15  C   UNL     1      53.752   1.832  15.460  0.00  0.00    +0.000 C 
ATOM     16  C   UNL     1      54.303   3.193  13.371  0.00  0.00    +0.000 C 
ENDROOT
BRANCH   5  17
ATOM     17  O   UNL     1      48.880   3.570   9.640  0.00  0.00    +0.000 OA
ATOM     18  H   UNL     1      48.562   4.395  10.051  0.00  0.00    +0.000 HD
ENDBRANCH   5  17
BRANCH   3  19
ATOM     19  C   UNL     1      50.835   1.424   8.784  0.00  0.00    +0.000 C 
ATOM     20  C   UNL     1      50.843   0.559   7.521  0.00  0.00    +0.000 C 
BRANCH  20  24
ATOM     21  C   UNL     1      52.695  -0.100   4.469  0.00  0.00    +0.000 C 
ATOM     22  C   UNL     1      51.287   0.323   4.957  0.00  0.00    +0.000 C 
ATOM     23  C   UNL     1      53.122  -1.504   4.126  0.00  0.00    +0.000 C 
ATOM     24  C   UNL     1      50.857  -0.244   6.332  0.00  0.00    +0.000 C 
ATOM     25  C   UNL     1      54.570  -1.555   3.635  0.00  0.00    +0.000 C 
ATOM     26  C   UNL     1      53.810   0.742   4.194  0.00  0.00    +0.000 C 
ATOM     27  C   UNL     1      54.916  -0.140   3.687  0.00  0.00    +0.000 C 
ATOM     28  C   UNL     1      52.398  -2.523   4.779  0.00  0.00    +0.000 C 
ATOM     29  C   UNL     1      50.539  -1.668   6.463  0.00  0.00    +0.000 C 
ATOM     30  C   UNL     1      51.250   1.898   5.023  0.00  0.00    +0.000 C 
ATOM     31  C   UNL     1      50.241  -0.086   3.865  0.00  0.00    +0.000 C 
ATOM     32  C   UNL     1      51.275  -2.487   5.781  0.00  0.00    +0.000 C 
ATOM     33  C   UNL     1      54.689  -2.225   2.276  0.00  0.00    +0.000 C 
ATOM     34  C   UNL     1      49.753  -2.251   7.609  0.00  0.00    +0.000 C 
BRANCH  25  35
ATOM     35  O   UNL     1      55.368  -2.289   4.531  0.00  0.00    +0.000 OA
ATOM     36  H   UNL     1      56.209  -2.316   4.043  0.00  0.00    +0.000 HD
ENDBRANCH  25  35
ENDBRANCH  20  24
ENDBRANCH   3  19
TORSDOF 4
ENDMDL
MODEL 3
REMARK VINA RESULT:      -6.1      7.505     11.785
REMARK  Name = 44423609_SipholenoneA.pdbqt.pdb
REMARK  4 active torsions:
REMARK  status: ('A' for Active; 'I' for Inactive)
REMARK    1  A    between atoms: C_3  and  C_19
REMARK    2  A    between atoms: C_5  and  O_17
REMARK    3  A    between atoms: C_20  and  C_24
REMARK    4  A    between atoms: C_25  and  O_35
REMARK                            x       y       z     vdW  Elec       q    Type
REMARK                         _______ _______ _______ _____ _____    ______ ____
ROOT
ATOM      1  O   UNL     1      57.830  11.137   4.122  0.00  0.00    +0.000 OA
ATOM      2  O   UNL     1      58.525  13.022   7.230  0.00  0.00    +0.000 OA
ATOM      3  C   UNL     1      55.562   8.089   5.209  0.00  0.00    +0.000 C 
ATOM      4  C   UNL     1      55.944   9.545   4.948  0.00  0.00    +0.000 C 
ATOM      5  C   UNL     1      56.019   6.998   4.255  0.00  0.00    +0.000 C 
ATOM      6  C   UNL     1      57.326   9.836   4.228  0.00  0.00    +0.000 C 
ATOM      7  C   UNL     1      57.086   7.518   3.422  0.00  0.00    +0.000 C 
ATOM      8  C   UNL     1      57.778   8.838   3.342  0.00  0.00    +0.000 C 
ATOM      9  C   UNL     1      56.134  10.268   6.217  0.00  0.00    +0.000 C 
ATOM     10  C   UNL     1      54.823  10.235   4.121  0.00  0.00    +0.000 C 
ATOM     11  C   UNL     1      56.464   5.749   5.025  0.00  0.00    +0.000 C 
ATOM     12  C   UNL     1      57.013  11.335   6.833  0.00  0.00    +0.000 C 
ATOM     13  C   UNL     1      58.816  11.623   5.094  0.00  0.00    +0.000 C 
ATOM     14  C   UNL     1      58.164  12.130   6.473  0.00  0.00    +0.000 C 
ATOM     15  C   UNL     1      59.535  12.810   4.373  0.00  0.00    +0.000 C 
ATOM     16  C   UNL     1      59.875  10.501   5.408  0.00  0.00    +0.000 C 
ENDROOT
BRANCH   5  17
ATOM     17  O   UNL     1      54.942   6.591   3.450  0.00  0.00    +0.000 OA
ATOM     18  H   UNL     1      54.422   6.063   4.083  0.00  0.00    +0.000 HD
ENDBRANCH   5  17
BRANCH   3  19
ATOM     19  C   UNL     1      54.562   7.792   6.202  0.00  0.00    +0.000 C 
ATOM     20  C   UNL     1      53.508   7.480   7.267  0.00  0.00    +0.000 C 
BRANCH  20  24
ATOM     21  C   UNL     1      53.091   6.501  10.737  0.00  0.00    +0.000 C 
ATOM     22  C   UNL     1      52.720   6.046   9.304  0.00  0.00    +0.000 C 
ATOM     23  C   UNL     1      52.213   7.311  11.657  0.00  0.00    +0.000 C 
ATOM     24  C   UNL     1      52.526   7.182   8.270  0.00  0.00    +0.000 C 
ATOM     25  C   UNL     1      52.875   7.544  13.016  0.00  0.00    +0.000 C 
ATOM     26  C   UNL     1      54.273   6.194  11.470  0.00  0.00    +0.000 C 
ATOM     27  C   UNL     1      54.123   6.815  12.831  0.00  0.00    +0.000 C 
ATOM     28  C   UNL     1      51.269   8.132  11.007  0.00  0.00    +0.000 C 
ATOM     29  C   UNL     1      51.352   8.052   8.360  0.00  0.00    +0.000 C 
ATOM     30  C   UNL     1      53.859   5.083   8.792  0.00  0.00    +0.000 C 
ATOM     31  C   UNL     1      51.422   5.173   9.381  0.00  0.00    +0.000 C 
ATOM     32  C   UNL     1      50.966   8.377   9.553  0.00  0.00    +0.000 C 
ATOM     33  C   UNL     1      51.995   7.085  14.166  0.00  0.00    +0.000 C 
ATOM     34  C   UNL     1      50.854   8.911   7.226  0.00  0.00    +0.000 C 
BRANCH  25  35
ATOM     35  O   UNL     1      53.131   8.914  13.211  0.00  0.00    +0.000 OA
ATOM     36  H   UNL     1      53.790   8.875  13.925  0.00  0.00    +0.000 HD
ENDBRANCH  25  35
ENDBRANCH  20  24
ENDBRANCH   3  19
TORSDOF 4
ENDMDL
MODEL 4
REMARK VINA RESULT:      -6.0     21.190     24.103
REMARK  Name = 44423609_SipholenoneA.pdbqt.pdb
REMARK  4 active torsions:
REMARK  status: ('A' for Active; 'I' for Inactive)
REMARK    1  A    between atoms: C_3  and  C_19
REMARK    2  A    between atoms: C_5  and  O_17
REMARK    3  A    between atoms: C_20  and  C_24
REMARK    4  A    between atoms: C_25  and  O_35
REMARK                            x       y       z     vdW  Elec       q    Type
REMARK                         _______ _______ _______ _____ _____    ______ ____
ROOT
ATOM      1  O   UNL     1      39.243  -0.943  -9.510  0.00  0.00    +0.000 OA
ATOM      2  O   UNL     1      36.319  -0.084 -11.609  0.00  0.00    +0.000 OA
ATOM      3  C   UNL     1      41.365   2.379  -9.228  0.00  0.00    +0.000 C 
ATOM      4  C   UNL     1      40.184   1.433  -9.017  0.00  0.00    +0.000 C 
ATOM      5  C   UNL     1      42.787   1.845  -9.187  0.00  0.00    +0.000 C 
ATOM      6  C   UNL     1      40.337  -0.070  -9.498  0.00  0.00    +0.000 C 
ATOM      7  C   UNL     1      42.750   0.400  -9.314  0.00  0.00    +0.000 C 
ATOM      8  C   UNL     1      41.646  -0.590  -9.477  0.00  0.00    +0.000 C 
ATOM      9  C   UNL     1      39.024   1.864  -9.816  0.00  0.00    +0.000 C 
ATOM     10  C   UNL     1      39.798   1.413  -7.511  0.00  0.00    +0.000 C 
ATOM     11  C   UNL     1      43.644   2.484 -10.285  0.00  0.00    +0.000 C 
ATOM     12  C   UNL     1      37.880   1.286 -10.620  0.00  0.00    +0.000 C 
ATOM     13  C   UNL     1      38.491  -1.158 -10.751  0.00  0.00    +0.000 C 
ATOM     14  C   UNL     1      37.407  -0.009 -11.053  0.00  0.00    +0.000 C 
ATOM     15  C   UNL     1      37.772  -2.531 -10.549  0.00  0.00    +0.000 C 
ATOM     16  C   UNL     1      39.473  -1.272 -11.976  0.00  0.00    +0.000 C 
ENDROOT
BRANCH   5  17
ATOM     17  O   UNL     1      43.392   2.200  -7.970  0.00  0.00    +0.000 OA
ATOM     18  H   UNL     1      44.333   2.215  -8.224  0.00  0.00    +0.000 HD
ENDBRANCH   5  17
BRANCH   3  19
ATOM     19  C   UNL     1      41.140   3.801  -9.205  0.00  0.00    +0.000 C 
ATOM     20  C   UNL     1      40.890   5.311  -9.173  0.00  0.00    +0.000 C 
BRANCH  20  24
ATOM     21  C   UNL     1      38.638   7.859  -7.903  0.00  0.00    +0.000 C 
ATOM     22  C   UNL     1      39.220   7.319  -9.233  0.00  0.00    +0.000 C 
ATOM     23  C   UNL     1      39.176   9.029  -7.119  0.00  0.00    +0.000 C 
ATOM     24  C   UNL     1      40.647   6.725  -9.148  0.00  0.00    +0.000 C 
ATOM     25  C   UNL     1      38.333   9.318  -5.876  0.00  0.00    +0.000 C 
ATOM     26  C   UNL     1      37.474   7.410  -7.216  0.00  0.00    +0.000 C 
ATOM     27  C   UNL     1      37.301   8.298  -6.015  0.00  0.00    +0.000 C 
ATOM     28  C   UNL     1      40.549   9.291  -7.308  0.00  0.00    +0.000 C 
ATOM     29  C   UNL     1      41.792   7.614  -8.942  0.00  0.00    +0.000 C 
ATOM     30  C   UNL     1      38.238   6.209  -9.775  0.00  0.00    +0.000 C 
ATOM     31  C   UNL     1      39.188   8.473 -10.292  0.00  0.00    +0.000 C 
ATOM     32  C   UNL     1      41.607   8.614  -8.139  0.00  0.00    +0.000 C 
ATOM     33  C   UNL     1      37.851  10.758  -5.835  0.00  0.00    +0.000 C 
ATOM     34  C   UNL     1      43.219   7.225  -9.227  0.00  0.00    +0.000 C 
BRANCH  25  35
ATOM     35  O   UNL     1      39.086   9.098  -4.709  0.00  0.00    +0.000 OA
ATOM     36  H   UNL     1      38.505   8.479  -4.233  0.00  0.00    +0.000 HD
ENDBRANCH  25  35
ENDBRANCH  20  24
ENDBRANCH   3  19
TORSDOF 4
ENDMDL
MODEL 5
REMARK VINA RESULT:      -5.5     12.892     15.169
REMARK  Name = 44423609_SipholenoneA.pdbqt.pdb
REMARK  4 active torsions:
REMARK  status: ('A' for Active; 'I' for Inactive)
REMARK    1  A    between atoms: C_3  and  C_19
REMARK    2  A    between atoms: C_5  and  O_17
REMARK    3  A    between atoms: C_20  and  C_24
REMARK    4  A    between atoms: C_25  and  O_35
REMARK                            x       y       z     vdW  Elec       q    Type
REMARK                         _______ _______ _______ _____ _____    ______ ____
ROOT
ATOM      1  O   UNL     1      44.332   1.453  25.468  0.00  0.00    +0.000 OA
ATOM      2  O   UNL     1      47.223  -0.409  24.101  0.00  0.00    +0.000 OA
ATOM      3  C   UNL     1      42.115   2.423  22.345  0.00  0.00    +0.000 C 
ATOM      4  C   UNL     1      42.782   1.518  23.379  0.00  0.00    +0.000 C 
ATOM      5  C   UNL     1      41.554   3.773  22.760  0.00  0.00    +0.000 C 
ATOM      6  C   UNL     1      43.543   2.203  24.589  0.00  0.00    +0.000 C 
ATOM      7  C   UNL     1      42.096   4.128  24.058  0.00  0.00    +0.000 C 
ATOM      8  C   UNL     1      43.049   3.459  24.992  0.00  0.00    +0.000 C 
ATOM      9  C   UNL     1      43.874   0.745  22.765  0.00  0.00    +0.000 C 
ATOM     10  C   UNL     1      41.726   0.543  23.973  0.00  0.00    +0.000 C 
ATOM     11  C   UNL     1      41.866   4.843  21.708  0.00  0.00    +0.000 C 
ATOM     12  C   UNL     1      45.257   0.220  23.085  0.00  0.00    +0.000 C 
ATOM     13  C   UNL     1      45.783   1.374  25.265  0.00  0.00    +0.000 C 
ATOM     14  C   UNL     1      46.219   0.289  24.161  0.00  0.00    +0.000 C 
ATOM     15  C   UNL     1      46.359   0.975  26.663  0.00  0.00    +0.000 C 
ATOM     16  C   UNL     1      46.359   2.781  24.859  0.00  0.00    +0.000 C 
ENDROOT
BRANCH   5  17
ATOM     17  O   UNL     1      40.153   3.702  22.834  0.00  0.00    +0.000 OA
ATOM     18  H   UNL     1      39.917   3.637  21.890  0.00  0.00    +0.000 HD
ENDBRANCH   5  17
BRANCH   3  19
ATOM     19  C   UNL     1      41.790   1.888  21.047  0.00  0.00    +0.000 C 
ATOM     20  C   UNL     1      41.457   1.324  19.664  0.00  0.00    +0.000 C 
BRANCH  20  24
ATOM     21  C   UNL     1      41.113  -1.746  17.758  0.00  0.00    +0.000 C 
ATOM     22  C   UNL     1      41.894  -0.409  17.758  0.00  0.00    +0.000 C 
ATOM     23  C   UNL     1      39.848  -2.026  16.987  0.00  0.00    +0.000 C 
ATOM     24  C   UNL     1      41.145   0.804  18.364  0.00  0.00    +0.000 C 
ATOM     25  C   UNL     1      39.369  -3.466  17.181  0.00  0.00    +0.000 C 
ATOM     26  C   UNL     1      41.464  -2.960  18.416  0.00  0.00    +0.000 C 
ATOM     27  C   UNL     1      40.419  -3.978  18.053  0.00  0.00    +0.000 C 
ATOM     28  C   UNL     1      39.065  -0.890  16.696  0.00  0.00    +0.000 C 
ATOM     29  C   UNL     1      40.018   1.396  17.641  0.00  0.00    +0.000 C 
ATOM     30  C   UNL     1      43.234  -0.631  18.560  0.00  0.00    +0.000 C 
ATOM     31  C   UNL     1      42.323  -0.086  16.287  0.00  0.00    +0.000 C 
ATOM     32  C   UNL     1      39.235   0.570  17.021  0.00  0.00    +0.000 C 
ATOM     33  C   UNL     1      39.183  -4.190  15.859  0.00  0.00    +0.000 C 
ATOM     34  C   UNL     1      39.475   2.774  17.915  0.00  0.00    +0.000 C 
BRANCH  25  35
ATOM     35  O   UNL     1      38.128  -3.486  17.844  0.00  0.00    +0.000 OA
ATOM     36  H   UNL     1      37.518  -3.460  17.086  0.00  0.00    +0.000 HD
ENDBRANCH  25  35
ENDBRANCH  20  24
ENDBRANCH   3  19
TORSDOF 4
ENDMDL
MODEL 6
REMARK VINA RESULT:      -5.4     25.613     28.030
REMARK  Name = 44423609_SipholenoneA.pdbqt.pdb
REMARK  4 active torsions:
REMARK  status: ('A' for Active; 'I' for Inactive)
REMARK    1  A    between atoms: C_3  and  C_19
REMARK    2  A    between atoms: C_5  and  O_17
REMARK    3  A    between atoms: C_20  and  C_24
REMARK    4  A    between atoms: C_25  and  O_35
REMARK                            x       y       z     vdW  Elec       q    Type
REMARK                         _______ _______ _______ _____ _____    ______ ____
ROOT
ATOM      1  O   UNL     1      26.849  11.886   6.479  0.00  0.00    +0.000 OA
ATOM      2  O   UNL     1      26.408  15.194   4.880  0.00  0.00    +0.000 OA
ATOM      3  C   UNL     1      27.352   9.326   3.511  0.00  0.00    +0.000 C 
ATOM      4  C   UNL     1      27.680  10.487   4.448  0.00  0.00    +0.000 C 
ATOM      5  C   UNL     1      26.678   8.076   4.053  0.00  0.00    +0.000 C 
ATOM      6  C   UNL     1      26.725  10.739   5.688  0.00  0.00    +0.000 C 
ATOM      7  C   UNL     1      26.121   8.371   5.359  0.00  0.00    +0.000 C 
ATOM      8  C   UNL     1      26.081   9.598   6.206  0.00  0.00    +0.000 C 
ATOM      9  C   UNL     1      27.564  11.774   3.741  0.00  0.00    +0.000 C 
ATOM     10  C   UNL     1      29.128  10.323   4.990  0.00  0.00    +0.000 C 
ATOM     11  C   UNL     1      25.604   7.570   3.084  0.00  0.00    +0.000 C 
ATOM     12  C   UNL     1      27.113  13.200   3.977  0.00  0.00    +0.000 C 
ATOM     13  C   UNL     1      25.987  13.047   6.228  0.00  0.00    +0.000 C 
ATOM     14  C   UNL     1      26.503  13.982   5.026  0.00  0.00    +0.000 C 
ATOM     15  C   UNL     1      25.997  13.848   7.571  0.00  0.00    +0.000 C 
ATOM     16  C   UNL     1      24.515  12.582   5.922  0.00  0.00    +0.000 C 
ENDROOT
BRANCH   5  17
ATOM     17  O   UNL     1      27.620   7.039   4.161  0.00  0.00    +0.000 OA
ATOM     18  H   UNL     1      28.388   7.518   4.521  0.00  0.00    +0.000 HD
ENDBRANCH   5  17
BRANCH   3  19
ATOM     19  C   UNL     1      27.912   9.313   2.184  0.00  0.00    +0.000 C 
ATOM     20  C   UNL     1      28.507   9.286   0.774  0.00  0.00    +0.000 C 
BRANCH  20  24
ATOM     21  C   UNL     1      28.120   7.839  -2.532  0.00  0.00    +0.000 C 
ATOM     22  C   UNL     1      29.149   7.955  -1.380  0.00  0.00    +0.000 C 
ATOM     23  C   UNL     1      28.058   8.725  -3.749  0.00  0.00    +0.000 C 
ATOM     24  C   UNL     1      29.073   9.256  -0.544  0.00  0.00    +0.000 C 
ATOM     25  C   UNL     1      26.943   8.301  -4.707  0.00  0.00    +0.000 C 
ATOM     26  C   UNL     1      27.101   6.856  -2.694  0.00  0.00    +0.000 C 
ATOM     27  C   UNL     1      26.417   7.140  -4.001  0.00  0.00    +0.000 C 
ATOM     28  C   UNL     1      28.595  10.017  -3.572  0.00  0.00    +0.000 C 
ATOM     29  C   UNL     1      29.503  10.525  -1.134  0.00  0.00    +0.000 C 
ATOM     30  C   UNL     1      28.943   6.721  -0.421  0.00  0.00    +0.000 C 
ATOM     31  C   UNL     1      30.586   7.796  -1.983  0.00  0.00    +0.000 C 
ATOM     32  C   UNL     1      29.215  10.705  -2.385  0.00  0.00    +0.000 C 
ATOM     33  C   UNL     1      27.463   8.052  -6.113  0.00  0.00    +0.000 C 
ATOM     34  C   UNL     1      29.843  11.753  -0.330  0.00  0.00    +0.000 C 
BRANCH  25  35
ATOM     35  O   UNL     1      25.964   9.306  -4.799  0.00  0.00    +0.000 OA
ATOM     36  H   UNL     1      26.095   9.604  -5.715  0.00  0.00    +0.000 HD
ENDBRANCH  25  35
ENDBRANCH  20  24
ENDBRANCH   3  19
TORSDOF 4
ENDMDL
MODEL 7
REMARK VINA RESULT:      -5.3     11.488     13.982
REMARK  Name = 44423609_SipholenoneA.pdbqt.pdb
REMARK  4 active torsions:
REMARK  status: ('A' for Active; 'I' for Inactive)
REMARK    1  A    between atoms: C_3  and  C_19
REMARK    2  A    between atoms: C_5  and  O_17
REMARK    3  A    between atoms: C_20  and  C_24
REMARK    4  A    between atoms: C_25  and  O_35
REMARK                            x       y       z     vdW  Elec       q    Type
REMARK                         _______ _______ _______ _____ _____    ______ ____
ROOT
ATOM      1  O   UNL     1      45.495  -2.200  23.072  0.00  0.00    +0.000 OA
ATOM      2  O   UNL     1      42.140  -2.399  24.621  0.00  0.00    +0.000 OA
ATOM      3  C   UNL     1      45.067  -3.631  19.414  0.00  0.00    +0.000 C 
ATOM      4  C   UNL     1      44.894  -2.663  20.583  0.00  0.00    +0.000 C 
ATOM      5  C   UNL     1      46.403  -4.317  19.183  0.00  0.00    +0.000 C 
ATOM      6  C   UNL     1      45.735  -2.926  21.901  0.00  0.00    +0.000 C 
ATOM      7  C   UNL     1      47.208  -4.194  20.383  0.00  0.00    +0.000 C 
ATOM      8  C   UNL     1      46.976  -3.568  21.717  0.00  0.00    +0.000 C 
ATOM      9  C   UNL     1      43.521  -2.727  21.111  0.00  0.00    +0.000 C 
ATOM     10  C   UNL     1      45.198  -1.215  20.107  0.00  0.00    +0.000 C 
ATOM     11  C   UNL     1      46.203  -5.784  18.787  0.00  0.00    +0.000 C 
ATOM     12  C   UNL     1      42.770  -2.661  22.425  0.00  0.00    +0.000 C 
ATOM     13  C   UNL     1      44.635  -2.762  24.120  0.00  0.00    +0.000 C 
ATOM     14  C   UNL     1      43.064  -2.565  23.835  0.00  0.00    +0.000 C 
ATOM     15  C   UNL     1      45.042  -1.998  25.422  0.00  0.00    +0.000 C 
ATOM     16  C   UNL     1      44.934  -4.295  24.313  0.00  0.00    +0.000 C 
ENDROOT
BRANCH   5  17
ATOM     17  O   UNL     1      47.065  -3.713  18.101  0.00  0.00    +0.000 OA
ATOM     18  H   UNL     1      46.797  -2.783  18.212  0.00  0.00    +0.000 HD
ENDBRANCH   5  17
BRANCH   3  19
ATOM     19  C   UNL     1      44.053  -3.689  18.392  0.00  0.00    +0.000 C 
ATOM     20  C   UNL     1      42.980  -3.740  17.302  0.00  0.00    +0.000 C 
BRANCH  20  24
ATOM     21  C   UNL     1      40.304  -1.822  15.775  0.00  0.00    +0.000 C 
ATOM     22  C   UNL     1      40.563  -3.171  16.491  0.00  0.00    +0.000 C 
ATOM     23  C   UNL     1      40.274  -1.609  14.283  0.00  0.00    +0.000 C 
ATOM     24  C   UNL     1      41.971  -3.779  16.282  0.00  0.00    +0.000 C 
ATOM     25  C   UNL     1      39.946  -0.160  13.920  0.00  0.00    +0.000 C 
ATOM     26  C   UNL     1      39.985  -0.567  16.370  0.00  0.00    +0.000 C 
ATOM     27  C   UNL     1      39.765   0.410  15.250  0.00  0.00    +0.000 C 
ATOM     28  C   UNL     1      41.034  -2.532  13.535  0.00  0.00    +0.000 C 
ATOM     29  C   UNL     1      42.336  -4.335  14.978  0.00  0.00    +0.000 C 
ATOM     30  C   UNL     1      40.327  -2.952  18.035  0.00  0.00    +0.000 C 
ATOM     31  C   UNL     1      39.470  -4.194  16.030  0.00  0.00    +0.000 C 
ATOM     32  C   UNL     1      41.896  -3.699  13.938  0.00  0.00    +0.000 C 
ATOM     33  C   UNL     1      38.757  -0.061  12.981  0.00  0.00    +0.000 C 
ATOM     34  C   UNL     1      43.488  -5.281  14.760  0.00  0.00    +0.000 C 
BRANCH  25  35
ATOM     35  O   UNL     1      41.039   0.445  13.272  0.00  0.00    +0.000 OA
ATOM     36  H   UNL     1      41.368   1.028  13.978  0.00  0.00    +0.000 HD
ENDBRANCH  25  35
ENDBRANCH  20  24
ENDBRANCH   3  19
TORSDOF 4
ENDMDL
MODEL 8
REMARK VINA RESULT:      -5.3      5.231      8.460
REMARK  Name = 44423609_SipholenoneA.pdbqt.pdb
REMARK  4 active torsions:
REMARK  status: ('A' for Active; 'I' for Inactive)
REMARK    1  A    between atoms: C_3  and  C_19
REMARK    2  A    between atoms: C_5  and  O_17
REMARK    3  A    between atoms: C_20  and  C_24
REMARK    4  A    between atoms: C_25  and  O_35
REMARK                            x       y       z     vdW  Elec       q    Type
REMARK                         _______ _______ _______ _____ _____    ______ ____
ROOT
ATOM      1  O   UNL     1      58.262   2.277  15.580  0.00  0.00    +0.000 OA
ATOM      2  O   UNL     1      59.963   2.755  12.329  0.00  0.00    +0.000 OA
ATOM      3  C   UNL     1      54.585   3.631  15.069  0.00  0.00    +0.000 C 
ATOM      4  C   UNL     1      55.791   2.711  14.888  0.00  0.00    +0.000 C 
ATOM      5  C   UNL     1      54.269   4.216  16.435  0.00  0.00    +0.000 C 
ATOM      6  C   UNL     1      57.058   2.952  15.810  0.00  0.00    +0.000 C 
ATOM      7  C   UNL     1      55.432   4.070  17.289  0.00  0.00    +0.000 C 
ATOM      8  C   UNL     1      56.795   3.499  17.082  0.00  0.00    +0.000 C 
ATOM      9  C   UNL     1      56.383   2.886  13.551  0.00  0.00    +0.000 C 
ATOM     10  C   UNL     1      55.347   1.232  15.068  0.00  0.00    +0.000 C 
ATOM     11  C   UNL     1      53.837   5.681  16.317  0.00  0.00    +0.000 C 
ATOM     12  C   UNL     1      57.732   2.910  12.865  0.00  0.00    +0.000 C 
ATOM     13  C   UNL     1      59.331   2.927  14.814  0.00  0.00    +0.000 C 
ATOM     14  C   UNL     1      59.129   2.833  13.222  0.00  0.00    +0.000 C 
ATOM     15  C   UNL     1      60.636   2.174  15.233  0.00  0.00    +0.000 C 
ATOM     16  C   UNL     1      59.462   4.440  15.228  0.00  0.00    +0.000 C 
ENDROOT
BRANCH   5  17
ATOM     17  O   UNL     1      53.176   3.536  17.000  0.00  0.00    +0.000 OA
ATOM     18  H   UNL     1      52.567   4.275  17.179  0.00  0.00    +0.000 HD
ENDBRANCH   5  17
BRANCH   3  19
ATOM     19  C   UNL     1      53.612   3.731  14.011  0.00  0.00    +0.000 C 
ATOM     20  C   UNL     1      52.572   3.846  12.894  0.00  0.00    +0.000 C 
BRANCH  20  24
ATOM     21  C   UNL     1      51.004   6.167  10.587  0.00  0.00    +0.000 C 
ATOM     22  C   UNL     1      50.652   5.175  11.722  0.00  0.00    +0.000 C 
ATOM     23  C   UNL     1      50.965   5.865   9.111  0.00  0.00    +0.000 C 
ATOM     24  C   UNL     1      51.589   3.949  11.854  0.00  0.00    +0.000 C 
ATOM     25  C   UNL     1      51.330   7.088   8.268  0.00  0.00    +0.000 C 
ATOM     26  C   UNL     1      51.358   7.542  10.710  0.00  0.00    +0.000 C 
ATOM     27  C   UNL     1      51.538   8.078   9.318  0.00  0.00    +0.000 C 
ATOM     28  C   UNL     1      51.143   4.506   8.777  0.00  0.00    +0.000 C 
ATOM     29  C   UNL     1      51.550   2.893  10.840  0.00  0.00    +0.000 C 
ATOM     30  C   UNL     1      50.664   5.972  13.083  0.00  0.00    +0.000 C 
ATOM     31  C   UNL     1      49.175   4.694  11.520  0.00  0.00    +0.000 C 
ATOM     32  C   UNL     1      51.383   3.278   9.614  0.00  0.00    +0.000 C 
ATOM     33  C   UNL     1      50.259   7.415   7.242  0.00  0.00    +0.000 C 
ATOM     34  C   UNL     1      52.103   1.507  11.049  0.00  0.00    +0.000 C 
BRANCH  25  35
ATOM     35  O   UNL     1      52.525   6.861   7.563  0.00  0.00    +0.000 OA
ATOM     36  H   UNL     1      53.086   6.496   8.270  0.00  0.00    +0.000 HD
ENDBRANCH  25  35
ENDBRANCH  20  24
ENDBRANCH   3  19
TORSDOF 4
ENDMDL
MODEL 9
REMARK VINA RESULT:      -4.8      7.446     13.678
REMARK  Name = 44423609_SipholenoneA.pdbqt.pdb
REMARK  4 active torsions:
REMARK  status: ('A' for Active; 'I' for Inactive)
REMARK    1  A    between atoms: C_3  and  C_19
REMARK    2  A    between atoms: C_5  and  O_17
REMARK    3  A    between atoms: C_20  and  C_24
REMARK    4  A    between atoms: C_25  and  O_35
REMARK                            x       y       z     vdW  Elec       q    Type
REMARK                         _______ _______ _______ _____ _____    ______ ____
ROOT
ATOM      1  O   UNL     1      50.630  -9.779  -2.435  0.00  0.00    +0.000 OA
ATOM      2  O   UNL     1      51.777  -7.030  -4.631  0.00  0.00    +0.000 OA
ATOM      3  C   UNL     1      51.482  -8.628   1.247  0.00  0.00    +0.000 C 
ATOM      4  C   UNL     1      50.782  -8.620  -0.110  0.00  0.00    +0.000 C 
ATOM      5  C   UNL     1      51.828  -9.945   1.920  0.00  0.00    +0.000 C 
ATOM      6  C   UNL     1      51.083  -9.811  -1.112  0.00  0.00    +0.000 C 
ATOM      7  C   UNL     1      51.744 -11.010   0.939  0.00  0.00    +0.000 C 
ATOM      8  C   UNL     1      51.414 -11.044  -0.516  0.00  0.00    +0.000 C 
ATOM      9  C   UNL     1      51.217  -7.464  -0.913  0.00  0.00    +0.000 C 
ATOM     10  C   UNL     1      49.243  -8.554   0.101  0.00  0.00    +0.000 C 
ATOM     11  C   UNL     1      53.217  -9.882   2.566  0.00  0.00    +0.000 C 
ATOM     12  C   UNL     1      51.529  -7.088  -2.345  0.00  0.00    +0.000 C 
ATOM     13  C   UNL     1      51.525  -9.327  -3.506  0.00  0.00    +0.000 C 
ATOM     14  C   UNL     1      51.613  -7.727  -3.638  0.00  0.00    +0.000 C 
ATOM     15  C   UNL     1      50.924  -9.940  -4.813  0.00  0.00    +0.000 C 
ATOM     16  C   UNL     1      52.974  -9.906  -3.292  0.00  0.00    +0.000 C 
ENDROOT
BRANCH   5  17
ATOM     17  O   UNL     1      50.927 -10.193   2.969  0.00  0.00    +0.000 OA
ATOM     18  H   UNL     1      50.389  -9.381   2.951  0.00  0.00    +0.000 HD
ENDBRANCH   5  17
BRANCH   3  19
ATOM     19  C   UNL     1      51.576  -7.401   1.997  0.00  0.00    +0.000 C 
ATOM     20  C   UNL     1      51.669  -6.092   2.786  0.00  0.00    +0.000 C 
BRANCH  20  24
ATOM     21  C   UNL     1      52.109  -2.509   2.414  0.00  0.00    +0.000 C 
ATOM     22  C   UNL     1      52.744  -3.734   3.117  0.00  0.00    +0.000 C 
ATOM     23  C   UNL     1      51.124  -1.552   3.035  0.00  0.00    +0.000 C 
ATOM     24  C   UNL     1      51.760  -4.861   3.516  0.00  0.00    +0.000 C 
ATOM     25  C   UNL     1      50.736  -0.428   2.073  0.00  0.00    +0.000 C 
ATOM     26  C   UNL     1      52.376  -2.021   1.102  0.00  0.00    +0.000 C 
ATOM     27  C   UNL     1      51.557  -0.774   0.919  0.00  0.00    +0.000 C 
ATOM     28  C   UNL     1      50.351  -2.091   4.084  0.00  0.00    +0.000 C 
ATOM     29  C   UNL     1      50.818  -4.645   4.617  0.00  0.00    +0.000 C 
ATOM     30  C   UNL     1      53.837  -4.333   2.150  0.00  0.00    +0.000 C 
ATOM     31  C   UNL     1      53.519  -3.233   4.382  0.00  0.00    +0.000 C 
ATOM     32  C   UNL     1      50.302  -3.460   4.709  0.00  0.00    +0.000 C 
ATOM     33  C   UNL     1      50.971   0.947   2.674  0.00  0.00    +0.000 C 
ATOM     34  C   UNL     1      50.105  -5.757   5.342  0.00  0.00    +0.000 C 
BRANCH  25  35
ATOM     35  O   UNL     1      49.370  -0.510   1.745  0.00  0.00    +0.000 OA
ATOM     36  H   UNL     1      49.008  -0.873   2.572  0.00  0.00    +0.000 HD
ENDBRANCH  25  35
ENDBRANCH  20  24
ENDBRANCH   3  19
TORSDOF 4
ENDMDL
