MODEL 1
REMARK VINA RESULT:      -7.1      0.000      0.000
REMARK  Name = 445154_Resveratrol.pdbqt.pdb
REMARK  5 active torsions:
REMARK  status: ('A' for Active; 'I' for Inactive)
REMARK    1  A    between atoms: C_1  and  C_11
REMARK    2  A    between atoms: C_4  and  O_7
REMARK    3  A    between atoms: C_5  and  O_9
REMARK    4  A    between atoms: C_12  and  C_13
REMARK    5  A    between atoms: C_18  and  O_19
REMARK                            x       y       z     vdW  Elec       q    Type
REMARK                         _______ _______ _______ _____ _____    ______ ____
ROOT
ATOM      1  C   UNL     1      36.787  16.234  20.114  0.00  0.00    +0.000 A 
ATOM      2  C   UNL     1      35.885  17.200  19.671  0.00  0.00    +0.000 A 
ATOM      3  C   UNL     1      38.160  16.469  20.041  0.00  0.00    +0.000 A 
ATOM      4  C   UNL     1      38.621  17.677  19.523  0.00  0.00    +0.000 A 
ATOM      5  C   UNL     1      36.366  18.400  19.157  0.00  0.00    +0.000 A 
ATOM      6  C   UNL     1      37.732  18.650  19.078  0.00  0.00    +0.000 A 
ENDROOT
BRANCH   4   7
ATOM      7  O   UNL     1      39.958  17.935  19.440  0.00  0.00    +0.000 OA
ATOM      8  H   UNL     1      40.153  18.710  19.997  0.00  0.00    +0.000 HD
ENDBRANCH   4   7
BRANCH   5   9
ATOM      9  O   UNL     1      35.464  19.331  18.730  0.00  0.00    +0.000 OA
ATOM     10  H   UNL     1      34.925  18.927  18.026  0.00  0.00    +0.000 HD
ENDBRANCH   5   9
BRANCH   1  11
ATOM     11  C   UNL     1      36.307  15.000  20.643  0.00  0.00    +0.000 C 
ATOM     12  C   UNL     1      35.902  13.960  21.088  0.00  0.00    +0.000 C 
BRANCH  12  13
ATOM     13  C   UNL     1      35.421  12.725  21.615  0.00  0.00    +0.000 A 
ATOM     14  C   UNL     1      34.356  12.072  20.996  0.00  0.00    +0.000 A 
ATOM     15  C   UNL     1      36.017  12.174  22.750  0.00  0.00    +0.000 A 
ATOM     16  C   UNL     1      33.885  10.867  21.508  0.00  0.00    +0.000 A 
ATOM     17  C   UNL     1      35.549  10.969  23.266  0.00  0.00    +0.000 A 
ATOM     18  C   UNL     1      34.486  10.325  22.641  0.00  0.00    +0.000 A 
BRANCH  18  19
ATOM     19  O   UNL     1      34.045   9.145  23.165  0.00  0.00    +0.000 OA
ATOM     20  H   UNL     1      34.809   8.551  23.267  0.00  0.00    +0.000 HD
ENDBRANCH  18  19
ENDBRANCH  12  13
ENDBRANCH   1  11
TORSDOF 5
ENDMDL
MODEL 2
REMARK VINA RESULT:      -5.6     18.907     20.234
REMARK  Name = 445154_Resveratrol.pdbqt.pdb
REMARK  5 active torsions:
REMARK  status: ('A' for Active; 'I' for Inactive)
REMARK    1  A    between atoms: C_1  and  C_11
REMARK    2  A    between atoms: C_4  and  O_7
REMARK    3  A    between atoms: C_5  and  O_9
REMARK    4  A    between atoms: C_12  and  C_13
REMARK    5  A    between atoms: C_18  and  O_19
REMARK                            x       y       z     vdW  Elec       q    Type
REMARK                         _______ _______ _______ _____ _____    ______ ____
ROOT
ATOM      1  C   UNL     1      51.291   7.394   9.515  0.00  0.00    +0.000 A 
ATOM      2  C   UNL     1      51.276   6.296   8.656  0.00  0.00    +0.000 A 
ATOM      3  C   UNL     1      50.972   8.664   9.037  0.00  0.00    +0.000 A 
ATOM      4  C   UNL     1      50.638   8.827   7.695  0.00  0.00    +0.000 A 
ATOM      5  C   UNL     1      50.940   6.480   7.318  0.00  0.00    +0.000 A 
ATOM      6  C   UNL     1      50.619   7.741   6.826  0.00  0.00    +0.000 A 
ENDROOT
BRANCH   4   7
ATOM      7  O   UNL     1      50.321  10.058   7.200  0.00  0.00    +0.000 OA
ATOM      8  H   UNL     1      51.055  10.665   7.401  0.00  0.00    +0.000 HD
ENDBRANCH   4   7
BRANCH   5   9
ATOM      9  O   UNL     1      50.932   5.391   6.495  0.00  0.00    +0.000 OA
ATOM     10  H   UNL     1      51.856   5.125   6.339  0.00  0.00    +0.000 HD
ENDBRANCH   5   9
BRANCH   1  11
ATOM     11  C   UNL     1      51.635   7.219  10.888  0.00  0.00    +0.000 C 
ATOM     12  C   UNL     1      51.924   7.072  12.045  0.00  0.00    +0.000 C 
BRANCH  12  13
ATOM     13  C   UNL     1      52.267   6.896  13.418  0.00  0.00    +0.000 A 
ATOM     14  C   UNL     1      53.276   6.001  13.773  0.00  0.00    +0.000 A 
ATOM     15  C   UNL     1      51.592   7.619  14.402  0.00  0.00    +0.000 A 
ATOM     16  C   UNL     1      53.613   5.828  15.113  0.00  0.00    +0.000 A 
ATOM     17  C   UNL     1      51.926   7.448  15.743  0.00  0.00    +0.000 A 
ATOM     18  C   UNL     1      52.934   6.553  16.088  0.00  0.00    +0.000 A 
BRANCH  18  19
ATOM     19  O   UNL     1      53.243   6.403  17.408  0.00  0.00    +0.000 OA
ATOM     20  H   UNL     1      53.857   5.653  17.494  0.00  0.00    +0.000 HD
ENDBRANCH  18  19
ENDBRANCH  12  13
ENDBRANCH   1  11
TORSDOF 5
ENDMDL
MODEL 3
REMARK VINA RESULT:      -5.5     20.705     21.304
REMARK  Name = 445154_Resveratrol.pdbqt.pdb
REMARK  5 active torsions:
REMARK  status: ('A' for Active; 'I' for Inactive)
REMARK    1  A    between atoms: C_1  and  C_11
REMARK    2  A    between atoms: C_4  and  O_7
REMARK    3  A    between atoms: C_5  and  O_9
REMARK    4  A    between atoms: C_12  and  C_13
REMARK    5  A    between atoms: C_18  and  O_19
REMARK                            x       y       z     vdW  Elec       q    Type
REMARK                         _______ _______ _______ _____ _____    ______ ____
ROOT
ATOM      1  C   UNL     1      50.834   5.772   9.770  0.00  0.00    +0.000 A 
ATOM      2  C   UNL     1      50.627   6.741   8.790  0.00  0.00    +0.000 A 
ATOM      3  C   UNL     1      51.313   6.137  11.028  0.00  0.00    +0.000 A 
ATOM      4  C   UNL     1      51.581   7.477  11.296  0.00  0.00    +0.000 A 
ATOM      5  C   UNL     1      50.901   8.074   9.077  0.00  0.00    +0.000 A 
ATOM      6  C   UNL     1      51.378   8.455  10.327  0.00  0.00    +0.000 A 
ENDROOT
BRANCH   4   7
ATOM      7  O   UNL     1      52.050   7.864  12.518  0.00  0.00    +0.000 OA
ATOM      8  H   UNL     1      51.453   7.507  13.199  0.00  0.00    +0.000 HD
ENDBRANCH   4   7
BRANCH   5   9
ATOM      9  O   UNL     1      50.690   9.006   8.102  0.00  0.00    +0.000 OA
ATOM     10  H   UNL     1      51.504   9.532   8.008  0.00  0.00    +0.000 HD
ENDBRANCH   5   9
BRANCH   1  11
ATOM     11  C   UNL     1      50.558   4.402   9.488  0.00  0.00    +0.000 C 
ATOM     12  C   UNL     1      50.324   3.247   9.249  0.00  0.00    +0.000 C 
BRANCH  12  13
ATOM     13  C   UNL     1      50.049   1.877   8.966  0.00  0.00    +0.000 A 
ATOM     14  C   UNL     1      48.821   1.326   9.331  0.00  0.00    +0.000 A 
ATOM     15  C   UNL     1      51.007   1.092   8.325  0.00  0.00    +0.000 A 
ATOM     16  C   UNL     1      48.549  -0.011   9.056  0.00  0.00    +0.000 A 
ATOM     17  C   UNL     1      50.739  -0.245   8.048  0.00  0.00    +0.000 A 
ATOM     18  C   UNL     1      49.512  -0.787   8.416  0.00  0.00    +0.000 A 
BRANCH  18  19
ATOM     19  O   UNL     1      49.272  -2.100   8.134  0.00  0.00    +0.000 OA
ATOM     20  H   UNL     1      49.616  -2.638   8.868  0.00  0.00    +0.000 HD
ENDBRANCH  18  19
ENDBRANCH  12  13
ENDBRANCH   1  11
TORSDOF 5
ENDMDL
MODEL 4
REMARK VINA RESULT:      -5.4     24.480     25.308
REMARK  Name = 445154_Resveratrol.pdbqt.pdb
REMARK  5 active torsions:
REMARK  status: ('A' for Active; 'I' for Inactive)
REMARK    1  A    between atoms: C_1  and  C_11
REMARK    2  A    between atoms: C_4  and  O_7
REMARK    3  A    between atoms: C_5  and  O_9
REMARK    4  A    between atoms: C_12  and  C_13
REMARK    5  A    between atoms: C_18  and  O_19
REMARK                            x       y       z     vdW  Elec       q    Type
REMARK                         _______ _______ _______ _____ _____    ______ ____
ROOT
ATOM      1  C   UNL     1      50.589   0.377   8.938  0.00  0.00    +0.000 A 
ATOM      2  C   UNL     1      49.380   0.475   9.626  0.00  0.00    +0.000 A 
ATOM      3  C   UNL     1      51.798   0.451   9.629  0.00  0.00    +0.000 A 
ATOM      4  C   UNL     1      51.787   0.622  11.011  0.00  0.00    +0.000 A 
ATOM      5  C   UNL     1      49.391   0.647  11.007  0.00  0.00    +0.000 A 
ATOM      6  C   UNL     1      50.589   0.722  11.710  0.00  0.00    +0.000 A 
ENDROOT
BRANCH   4   7
ATOM      7  O   UNL     1      52.955   0.698  11.713  0.00  0.00    +0.000 OA
ATOM      8  H   UNL     1      53.142  -0.182  12.087  0.00  0.00    +0.000 HD
ENDBRANCH   4   7
BRANCH   5   9
ATOM      9  O   UNL     1      48.196   0.741  11.659  0.00  0.00    +0.000 OA
ATOM     10  H   UNL     1      48.378   0.790  12.615  0.00  0.00    +0.000 HD
ENDBRANCH   5   9
BRANCH   1  11
ATOM     11  C   UNL     1      50.591   0.201   7.523  0.00  0.00    +0.000 C 
ATOM     12  C   UNL     1      50.592   0.054   6.330  0.00  0.00    +0.000 C 
BRANCH  12  13
ATOM     13  C   UNL     1      50.594  -0.121   4.915  0.00  0.00    +0.000 A 
ATOM     14  C   UNL     1      50.256  -1.358   4.367  0.00  0.00    +0.000 A 
ATOM     15  C   UNL     1      50.935   0.946   4.083  0.00  0.00    +0.000 A 
ATOM     16  C   UNL     1      50.257  -1.530   2.986  0.00  0.00    +0.000 A 
ATOM     17  C   UNL     1      50.938   0.777   2.701  0.00  0.00    +0.000 A 
ATOM     18  C   UNL     1      50.599  -0.461   2.163  0.00  0.00    +0.000 A 
BRANCH  18  19
ATOM     19  O   UNL     1      50.609  -0.602   0.806  0.00  0.00    +0.000 OA
ATOM     20  H   UNL     1      50.811   0.264   0.411  0.00  0.00    +0.000 HD
ENDBRANCH  18  19
ENDBRANCH  12  13
ENDBRANCH   1  11
TORSDOF 5
ENDMDL
MODEL 5
REMARK VINA RESULT:      -5.4     24.502     25.369
REMARK  Name = 445154_Resveratrol.pdbqt.pdb
REMARK  5 active torsions:
REMARK  status: ('A' for Active; 'I' for Inactive)
REMARK    1  A    between atoms: C_1  and  C_11
REMARK    2  A    between atoms: C_4  and  O_7
REMARK    3  A    between atoms: C_5  and  O_9
REMARK    4  A    between atoms: C_12  and  C_13
REMARK    5  A    between atoms: C_18  and  O_19
REMARK                            x       y       z     vdW  Elec       q    Type
REMARK                         _______ _______ _______ _____ _____    ______ ____
ROOT
ATOM      1  C   UNL     1      50.617   0.292   9.154  0.00  0.00    +0.000 A 
ATOM      2  C   UNL     1      51.817   0.425   9.851  0.00  0.00    +0.000 A 
ATOM      3  C   UNL     1      49.400   0.405   9.825  0.00  0.00    +0.000 A 
ATOM      4  C   UNL     1      49.394   0.652  11.195  0.00  0.00    +0.000 A 
ATOM      5  C   UNL     1      51.789   0.671  11.220  0.00  0.00    +0.000 A 
ATOM      6  C   UNL     1      50.583   0.787  11.903  0.00  0.00    +0.000 A 
ENDROOT
BRANCH   4   7
ATOM      7  O   UNL     1      48.217   0.768  11.877  0.00  0.00    +0.000 OA
ATOM      8  H   UNL     1      48.296   1.519  12.492  0.00  0.00    +0.000 HD
ENDBRANCH   4   7
BRANCH   5   9
ATOM      9  O   UNL     1      52.977   0.797  11.882  0.00  0.00    +0.000 OA
ATOM     10  H   UNL     1      53.385  -0.085  11.938  0.00  0.00    +0.000 HD
ENDBRANCH   5   9
BRANCH   1  11
ATOM     11  C   UNL     1      50.633   0.039   7.751  0.00  0.00    +0.000 C 
ATOM     12  C   UNL     1      50.646  -0.176   6.569  0.00  0.00    +0.000 C 
BRANCH  12  13
ATOM     13  C   UNL     1      50.660  -0.429   5.165  0.00  0.00    +0.000 A 
ATOM     14  C   UNL     1      50.769   0.633   4.268  0.00  0.00    +0.000 A 
ATOM     15  C   UNL     1      50.565  -1.738   4.694  0.00  0.00    +0.000 A 
ATOM     16  C   UNL     1      50.784   0.389   2.898  0.00  0.00    +0.000 A 
ATOM     17  C   UNL     1      50.579  -1.987   3.324  0.00  0.00    +0.000 A 
ATOM     18  C   UNL     1      50.688  -0.921   2.437  0.00  0.00    +0.000 A 
BRANCH  18  19
ATOM     19  O   UNL     1      50.700  -1.190   1.099  0.00  0.00    +0.000 OA
ATOM     20  H   UNL     1      49.930  -1.750   0.894  0.00  0.00    +0.000 HD
ENDBRANCH  18  19
ENDBRANCH  12  13
ENDBRANCH   1  11
TORSDOF 5
ENDMDL
MODEL 6
REMARK VINA RESULT:      -5.4     20.344     22.438
REMARK  Name = 445154_Resveratrol.pdbqt.pdb
REMARK  5 active torsions:
REMARK  status: ('A' for Active; 'I' for Inactive)
REMARK    1  A    between atoms: C_1  and  C_11
REMARK    2  A    between atoms: C_4  and  O_7
REMARK    3  A    between atoms: C_5  and  O_9
REMARK    4  A    between atoms: C_12  and  C_13
REMARK    5  A    between atoms: C_18  and  O_19
REMARK                            x       y       z     vdW  Elec       q    Type
REMARK                         _______ _______ _______ _____ _____    ______ ____
ROOT
ATOM      1  C   UNL     1      51.445   6.671  10.363  0.00  0.00    +0.000 A 
ATOM      2  C   UNL     1      51.406   7.554  11.441  0.00  0.00    +0.000 A 
ATOM      3  C   UNL     1      51.010   5.355  10.519  0.00  0.00    +0.000 A 
ATOM      4  C   UNL     1      50.537   4.932  11.758  0.00  0.00    +0.000 A 
ATOM      5  C   UNL     1      50.931   7.111  12.672  0.00  0.00    +0.000 A 
ATOM      6  C   UNL     1      50.493   5.802  12.842  0.00  0.00    +0.000 A 
ENDROOT
BRANCH   4   7
ATOM      7  O   UNL     1      50.105   3.650  11.939  0.00  0.00    +0.000 OA
ATOM      8  H   UNL     1      49.157   3.615  11.719  0.00  0.00    +0.000 HD
ENDBRANCH   4   7
BRANCH   5   9
ATOM      9  O   UNL     1      50.903   7.994  13.713  0.00  0.00    +0.000 OA
ATOM     10  H   UNL     1      50.719   7.493  14.527  0.00  0.00    +0.000 HD
ENDBRANCH   5   9
BRANCH   1  11
ATOM     11  C   UNL     1      51.931   7.112   9.097  0.00  0.00    +0.000 C 
ATOM     12  C   UNL     1      52.341   7.484   8.031  0.00  0.00    +0.000 C 
BRANCH  12  13
ATOM     13  C   UNL     1      52.827   7.924   6.765  0.00  0.00    +0.000 A 
ATOM     14  C   UNL     1      54.194   8.123   6.577  0.00  0.00    +0.000 A 
ATOM     15  C   UNL     1      51.934   8.155   5.718  0.00  0.00    +0.000 A 
ATOM     16  C   UNL     1      54.672   8.552   5.342  0.00  0.00    +0.000 A 
ATOM     17  C   UNL     1      52.407   8.584   4.482  0.00  0.00    +0.000 A 
ATOM     18  C   UNL     1      53.773   8.781   4.303  0.00  0.00    +0.000 A 
BRANCH  18  19
ATOM     19  O   UNL     1      54.213   9.202   3.082  0.00  0.00    +0.000 OA
ATOM     20  H   UNL     1      53.534   8.982   2.421  0.00  0.00    +0.000 HD
ENDBRANCH  18  19
ENDBRANCH  12  13
ENDBRANCH   1  11
TORSDOF 5
ENDMDL
MODEL 7
REMARK VINA RESULT:      -5.4     24.420     25.000
REMARK  Name = 445154_Resveratrol.pdbqt.pdb
REMARK  5 active torsions:
REMARK  status: ('A' for Active; 'I' for Inactive)
REMARK    1  A    between atoms: C_1  and  C_11
REMARK    2  A    between atoms: C_4  and  O_7
REMARK    3  A    between atoms: C_5  and  O_9
REMARK    4  A    between atoms: C_12  and  C_13
REMARK    5  A    between atoms: C_18  and  O_19
REMARK                            x       y       z     vdW  Elec       q    Type
REMARK                         _______ _______ _______ _____ _____    ______ ____
ROOT
ATOM      1  C   UNL     1      50.831   0.695   4.706  0.00  0.00    +0.000 A 
ATOM      2  C   UNL     1      51.687   1.664   4.184  0.00  0.00    +0.000 A 
ATOM      3  C   UNL     1      50.225  -0.234   3.861  0.00  0.00    +0.000 A 
ATOM      4  C   UNL     1      50.482  -0.186   2.494  0.00  0.00    +0.000 A 
ATOM      5  C   UNL     1      51.930   1.695   2.815  0.00  0.00    +0.000 A 
ATOM      6  C   UNL     1      51.334   0.775   1.959  0.00  0.00    +0.000 A 
ENDROOT
BRANCH   4   7
ATOM      7  O   UNL     1      49.903  -1.083   1.643  0.00  0.00    +0.000 OA
ATOM      8  H   UNL     1      48.950  -0.888   1.599  0.00  0.00    +0.000 HD
ENDBRANCH   4   7
BRANCH   5   9
ATOM      9  O   UNL     1      52.772   2.653   2.326  0.00  0.00    +0.000 OA
ATOM     10  H   UNL     1      53.547   2.205   1.944  0.00  0.00    +0.000 HD
ENDBRANCH   5   9
BRANCH   1  11
ATOM     11  C   UNL     1      50.573   0.653   6.108  0.00  0.00    +0.000 C 
ATOM     12  C   UNL     1      50.356   0.618   7.289  0.00  0.00    +0.000 C 
BRANCH  12  13
ATOM     13  C   UNL     1      50.097   0.577   8.691  0.00  0.00    +0.000 A 
ATOM     14  C   UNL     1      51.154   0.674   9.596  0.00  0.00    +0.000 A 
ATOM     15  C   UNL     1      48.789   0.439   9.153  0.00  0.00    +0.000 A 
ATOM     16  C   UNL     1      50.904   0.634  10.964  0.00  0.00    +0.000 A 
ATOM     17  C   UNL     1      48.534   0.398  10.521  0.00  0.00    +0.000 A 
ATOM     18  C   UNL     1      49.595   0.496  11.416  0.00  0.00    +0.000 A 
BRANCH  18  19
ATOM     19  O   UNL     1      49.321   0.454  12.752  0.00  0.00    +0.000 OA
ATOM     20  H   UNL     1      48.789   1.237  12.980  0.00  0.00    +0.000 HD
ENDBRANCH  18  19
ENDBRANCH  12  13
ENDBRANCH   1  11
TORSDOF 5
ENDMDL
MODEL 8
REMARK VINA RESULT:      -5.3     24.680     25.258
REMARK  Name = 445154_Resveratrol.pdbqt.pdb
REMARK  5 active torsions:
REMARK  status: ('A' for Active; 'I' for Inactive)
REMARK    1  A    between atoms: C_1  and  C_11
REMARK    2  A    between atoms: C_4  and  O_7
REMARK    3  A    between atoms: C_5  and  O_9
REMARK    4  A    between atoms: C_12  and  C_13
REMARK    5  A    between atoms: C_18  and  O_19
REMARK                            x       y       z     vdW  Elec       q    Type
REMARK                         _______ _______ _______ _____ _____    ______ ____
ROOT
ATOM      1  C   UNL     1      50.585  -0.490   5.299  0.00  0.00    +0.000 A 
ATOM      2  C   UNL     1      50.591  -1.804   4.831  0.00  0.00    +0.000 A 
ATOM      3  C   UNL     1      50.620   0.575   4.399  0.00  0.00    +0.000 A 
ATOM      4  C   UNL     1      50.660   0.316   3.032  0.00  0.00    +0.000 A 
ATOM      5  C   UNL     1      50.631  -2.041   3.461  0.00  0.00    +0.000 A 
ATOM      6  C   UNL     1      50.665  -0.989   2.551  0.00  0.00    +0.000 A 
ENDROOT
BRANCH   4   7
ATOM      7  O   UNL     1      50.694   1.339   2.129  0.00  0.00    +0.000 OA
ATOM      8  H   UNL     1      51.626   1.518   1.909  0.00  0.00    +0.000 HD
ENDBRANCH   4   7
BRANCH   5   9
ATOM      9  O   UNL     1      50.635  -3.336   3.026  0.00  0.00    +0.000 OA
ATOM     10  H   UNL     1      50.686  -3.915   3.807  0.00  0.00    +0.000 HD
ENDBRANCH   5   9
BRANCH   1  11
ATOM     11  C   UNL     1      50.545  -0.233   6.701  0.00  0.00    +0.000 C 
ATOM     12  C   UNL     1      50.511  -0.016   7.882  0.00  0.00    +0.000 C 
BRANCH  12  13
ATOM     13  C   UNL     1      50.471   0.242   9.284  0.00  0.00    +0.000 A 
ATOM     14  C   UNL     1      49.255   0.187   9.965  0.00  0.00    +0.000 A 
ATOM     15  C   UNL     1      51.646   0.548   9.970  0.00  0.00    +0.000 A 
ATOM     16  C   UNL     1      49.213   0.438  11.334  0.00  0.00    +0.000 A 
ATOM     17  C   UNL     1      51.607   0.800  11.338  0.00  0.00    +0.000 A 
ATOM     18  C   UNL     1      50.390   0.743  12.010  0.00  0.00    +0.000 A 
BRANCH  18  19
ATOM     19  O   UNL     1      50.378   0.994  13.351  0.00  0.00    +0.000 OA
ATOM     20  H   UNL     1      50.816   0.252  13.804  0.00  0.00    +0.000 HD
ENDBRANCH  18  19
ENDBRANCH  12  13
ENDBRANCH   1  11
TORSDOF 5
ENDMDL
MODEL 9
REMARK VINA RESULT:      -5.2     24.756     25.377
REMARK  Name = 445154_Resveratrol.pdbqt.pdb
REMARK  5 active torsions:
REMARK  status: ('A' for Active; 'I' for Inactive)
REMARK    1  A    between atoms: C_1  and  C_11
REMARK    2  A    between atoms: C_4  and  O_7
REMARK    3  A    between atoms: C_5  and  O_9
REMARK    4  A    between atoms: C_12  and  C_13
REMARK    5  A    between atoms: C_18  and  O_19
REMARK                            x       y       z     vdW  Elec       q    Type
REMARK                         _______ _______ _______ _____ _____    ______ ____
ROOT
ATOM      1  C   UNL     1      49.706  -0.030   8.552  0.00  0.00    +0.000 A 
ATOM      2  C   UNL     1      49.090  -0.136   9.798  0.00  0.00    +0.000 A 
ATOM      3  C   UNL     1      50.185   1.203   8.108  0.00  0.00    +0.000 A 
ATOM      4  C   UNL     1      50.042   2.325   8.920  0.00  0.00    +0.000 A 
ATOM      5  C   UNL     1      48.956   0.997  10.593  0.00  0.00    +0.000 A 
ATOM      6  C   UNL     1      49.429   2.234  10.166  0.00  0.00    +0.000 A 
ENDROOT
BRANCH   4   7
ATOM      7  O   UNL     1      50.501   3.544   8.513  0.00  0.00    +0.000 OA
ATOM      8  H   UNL     1      49.985   4.231   8.970  0.00  0.00    +0.000 HD
ENDBRANCH   4   7
BRANCH   5   9
ATOM      9  O   UNL     1      48.349   0.869  11.810  0.00  0.00    +0.000 OA
ATOM     10  H   UNL     1      47.579   0.284  11.700  0.00  0.00    +0.000 HD
ENDBRANCH   5   9
BRANCH   1  11
ATOM     11  C   UNL     1      49.848  -1.184   7.726  0.00  0.00    +0.000 C 
ATOM     12  C   UNL     1      49.968  -2.156   7.030  0.00  0.00    +0.000 C 
BRANCH  12  13
ATOM     13  C   UNL     1      50.110  -3.309   6.204  0.00  0.00    +0.000 A 
ATOM     14  C   UNL     1      50.183  -4.575   6.785  0.00  0.00    +0.000 A 
ATOM     15  C   UNL     1      50.177  -3.169   4.818  0.00  0.00    +0.000 A 
ATOM     16  C   UNL     1      50.322  -5.702   5.980  0.00  0.00    +0.000 A 
ATOM     17  C   UNL     1      50.316  -4.294   4.010  0.00  0.00    +0.000 A 
ATOM     18  C   UNL     1      50.388  -5.552   4.598  0.00  0.00    +0.000 A 
BRANCH  18  19
ATOM     19  O   UNL     1      50.524  -6.640   3.786  0.00  0.00    +0.000 OA
ATOM     20  H   UNL     1      50.146  -7.412   4.242  0.00  0.00    +0.000 HD
ENDBRANCH  18  19
ENDBRANCH  12  13
ENDBRANCH   1  11
TORSDOF 5
ENDMDL
