REMARK  Name = 445154_Resveratrol.pdbqt.pdb
REMARK  5 active torsions:
REMARK  status: ('A' for Active; 'I' for Inactive)
REMARK    1  A    between atoms: C_1  and  C_11
REMARK    2  A    between atoms: C_4  and  O_7
REMARK    3  A    between atoms: C_5  and  O_9
REMARK    4  A    between atoms: C_12  and  C_13
REMARK    5  A    between atoms: C_18  and  O_19
REMARK                            x       y       z     vdW  Elec       q    Type
REMARK                         _______ _______ _______ _____ _____    ______ ____
ROOT
ATOM      1  C   UNL     1      -1.828   0.028   0.013  0.00  0.00    +0.000 A 
ATOM      2  C   UNL     1      -2.457   1.098   0.648  0.00  0.00    +0.000 A 
ATOM      3  C   UNL     1      -2.586  -0.954  -0.624  0.00  0.00    +0.000 A 
ATOM      4  C   UNL     1      -3.975  -0.856  -0.621  0.00  0.00    +0.000 A 
ATOM      5  C   UNL     1      -3.846   1.177   0.640  0.00  0.00    +0.000 A 
ATOM      6  C   UNL     1      -4.616   0.206   0.008  0.00  0.00    +0.000 A 
ENDROOT
BRANCH   4   7
ATOM      7  O   UNL     1      -4.742  -1.802  -1.237  0.00  0.00    +0.000 OA
ATOM      8  H   UNL     1      -4.148  -2.469  -1.625  0.00  0.00    +0.000 HD
ENDBRANCH   4   7
BRANCH   5   9
ATOM      9  O   UNL     1      -4.440   2.234   1.268  0.00  0.00    +0.000 OA
ATOM     10  H   UNL     1      -5.404   2.139   1.169  0.00  0.00    +0.000 HD
ENDBRANCH   5   9
BRANCH   1  11
ATOM     11  C   UNL     1      -0.405  -0.065   0.015  0.00  0.00    +0.000 C 
ATOM     12  C   UNL     1       0.794  -0.143   0.016  0.00  0.00    +0.000 C 
BRANCH  12  13
ATOM     13  C   UNL     1       2.217  -0.235   0.018  0.00  0.00    +0.000 A 
ATOM     14  C   UNL     1       2.970   0.658   0.780  0.00  0.00    +0.000 A 
ATOM     15  C   UNL     1       2.852  -1.217  -0.742  0.00  0.00    +0.000 A 
ATOM     16  C   UNL     1       4.359   0.570   0.784  0.00  0.00    +0.000 A 
ATOM     17  C   UNL     1       4.241  -1.308  -0.741  0.00  0.00    +0.000 A 
ATOM     18  C   UNL     1       4.984  -0.413   0.022  0.00  0.00    +0.000 A 
BRANCH  18  19
ATOM     19  O   UNL     1       6.344  -0.522   0.007  0.00  0.00    +0.000 OA
ATOM     20  H   UNL     1       6.712   0.169   0.585  0.00  0.00    +0.000 HD
ENDBRANCH  18  19
ENDBRANCH  12  13
ENDBRANCH   1  11
TORSDOF 5
