MODEL 1
REMARK VINA RESULT:      -6.9      0.000      0.000
REMARK  Name = 448438_Violaxanthin.pdbqt.pdb
REMARK  16 active torsions:
REMARK  status: ('A' for Active; 'I' for Inactive)
REMARK    1  A    between atoms: C_1  and  C_5
REMARK    2  A    between atoms: C_2  and  C_27
REMARK    3  A    between atoms: C_3  and  C_5
REMARK    4  A    between atoms: C_3  and  C_7
REMARK    5  A    between atoms: C_6  and  C_10
REMARK    6  A    between atoms: C_8  and  C_10
REMARK    7  A    between atoms: C_8  and  C_12
REMARK    8  A    between atoms: C_11  and  C_14
REMARK    9  A    between atoms: C_19  and  O_23
REMARK   10  A    between atoms: C_25  and  C_27
REMARK   11  A    between atoms: C_25  and  C_29
REMARK   12  A    between atoms: C_28  and  C_32
REMARK   13  A    between atoms: C_30  and  C_32
REMARK   14  A    between atoms: C_30  and  C_34
REMARK   15  A    between atoms: C_33  and  C_36
REMARK   16  A    between atoms: C_41  and  O_45
REMARK                            x       y       z     vdW  Elec       q    Type
REMARK                         _______ _______ _______ _____ _____    ______ ____
ROOT
ATOM      1  C   UNL     1      48.421  -8.766  10.259  0.00  0.00    +0.000 C 
ATOM      2  C   UNL     1      49.150  -8.428   9.368  0.00  0.00    +0.000 C 
ENDROOT
BRANCH   2   3
ATOM      3  C   UNL     1      50.080  -7.993   8.230  0.00  0.00    +0.000 C 
BRANCH   3   4
ATOM      4  C   UNL     1      50.865  -7.625   7.267  0.00  0.00    +0.000 C 
ATOM      5  C   UNL     1      51.736  -8.637   6.586  0.00  0.00    +0.000 C 
BRANCH   4   7
ATOM      6  C   UNL     1      51.020  -5.100   6.599  0.00  0.00    +0.000 C 
ATOM      7  C   UNL     1      50.949  -6.260   6.906  0.00  0.00    +0.000 C 
BRANCH   6   8
ATOM      8  C   UNL     1      51.110  -3.621   6.205  0.00  0.00    +0.000 C 
BRANCH   8   9
ATOM      9  C   UNL     1      51.186  -2.368   5.876  0.00  0.00    +0.000 C 
ATOM     10  C   UNL     1      51.395  -1.985   4.443  0.00  0.00    +0.000 C 
BRANCH   9  12
ATOM     11  C   UNL     1      50.754  -0.514   7.674  0.00  0.00    +0.000 C 
ATOM     12  C   UNL     1      50.949  -1.367   6.850  0.00  0.00    +0.000 C 
BRANCH  11  14
ATOM     13  O   UNL     1      51.280   0.210   9.876  0.00  0.00    +0.000 OA
ATOM     14  C   UNL     1      50.540   0.530   8.665  0.00  0.00    +0.000 C 
ATOM     15  C   UNL     1      51.741   1.359   9.168  0.00  0.00    +0.000 C 
ATOM     16  C   UNL     1      49.105   1.124   8.862  0.00  0.00    +0.000 C 
ATOM     17  C   UNL     1      51.445   2.571   9.860  0.00  0.00    +0.000 C 
ATOM     18  C   UNL     1      49.235   2.321   9.704  0.00  0.00    +0.000 C 
ATOM     19  C   UNL     1      50.229   3.169  10.231  0.00  0.00    +0.000 C 
ATOM     20  C   UNL     1      53.157   1.201   8.608  0.00  0.00    +0.000 C 
ATOM     21  C   UNL     1      48.607   1.514   7.449  0.00  0.00    +0.000 C 
ATOM     22  C   UNL     1      48.254   0.014   9.515  0.00  0.00    +0.000 C 
BRANCH  19  23
ATOM     23  O   UNL     1      50.087   3.818  11.420  0.00  0.00    +0.000 OA
ATOM     24  H   UNL     1      50.088   3.213  12.182  0.00  0.00    +0.000 HD
ENDBRANCH  19  23
ENDBRANCH  11  14
ENDBRANCH   9  12
ENDBRANCH   8   9
ENDBRANCH   6   8
ENDBRANCH   4   7
ENDBRANCH   3   4
ENDBRANCH   2   3
BRANCH   1  25
ATOM     25  C   UNL     1      47.490  -9.199  11.398  0.00  0.00    +0.000 C 
BRANCH  25  26
ATOM     26  C   UNL     1      46.703  -9.566  12.360  0.00  0.00    +0.000 C 
ATOM     27  C   UNL     1      46.424 -11.023  12.581  0.00  0.00    +0.000 C 
BRANCH  26  29
ATOM     28  C   UNL     1      45.646  -7.773  13.944  0.00  0.00    +0.000 C 
ATOM     29  C   UNL     1      46.130  -8.596  13.215  0.00  0.00    +0.000 C 
BRANCH  28  30
ATOM     30  C   UNL     1      45.032  -6.725  14.880  0.00  0.00    +0.000 C 
BRANCH  30  31
ATOM     31  C   UNL     1      44.511  -5.836  15.667  0.00  0.00    +0.000 C 
ATOM     32  C   UNL     1      44.788  -5.888  17.138  0.00  0.00    +0.000 C 
BRANCH  31  34
ATOM     33  C   UNL     1      43.054  -3.899  14.671  0.00  0.00    +0.000 C 
ATOM     34  C   UNL     1      43.721  -4.791  15.128  0.00  0.00    +0.000 C 
BRANCH  33  36
ATOM     35  O   UNL     1      42.919  -2.267  12.943  0.00  0.00    +0.000 OA
ATOM     36  C   UNL     1      42.254  -2.819  14.115  0.00  0.00    +0.000 C 
ATOM     37  C   UNL     1      41.691  -2.945  12.683  0.00  0.00    +0.000 C 
ATOM     38  C   UNL     1      41.579  -1.783  15.084  0.00  0.00    +0.000 C 
ATOM     39  C   UNL     1      40.646  -2.048  12.313  0.00  0.00    +0.000 C 
ATOM     40  C   UNL     1      40.615  -1.018  14.290  0.00  0.00    +0.000 C 
ATOM     41  C   UNL     1      40.021  -1.003  13.014  0.00  0.00    +0.000 C 
ATOM     42  C   UNL     1      41.862  -4.193  11.813  0.00  0.00    +0.000 C 
ATOM     43  C   UNL     1      42.729  -0.927  15.663  0.00  0.00    +0.000 C 
ATOM     44  C   UNL     1      40.862  -2.630  16.166  0.00  0.00    +0.000 C 
BRANCH  41  45
ATOM     45  O   UNL     1      38.707  -0.686  12.847  0.00  0.00    +0.000 OA
ATOM     46  H   UNL     1      38.120  -1.220  13.414  0.00  0.00    +0.000 HD
ENDBRANCH  41  45
ENDBRANCH  33  36
ENDBRANCH  31  34
ENDBRANCH  30  31
ENDBRANCH  28  30
ENDBRANCH  26  29
ENDBRANCH  25  26
ENDBRANCH   1  25
TORSDOF 16
ENDMDL
MODEL 2
REMARK VINA RESULT:      -6.6      1.421      2.452
REMARK  Name = 448438_Violaxanthin.pdbqt.pdb
REMARK  16 active torsions:
REMARK  status: ('A' for Active; 'I' for Inactive)
REMARK    1  A    between atoms: C_1  and  C_5
REMARK    2  A    between atoms: C_2  and  C_27
REMARK    3  A    between atoms: C_3  and  C_5
REMARK    4  A    between atoms: C_3  and  C_7
REMARK    5  A    between atoms: C_6  and  C_10
REMARK    6  A    between atoms: C_8  and  C_10
REMARK    7  A    between atoms: C_8  and  C_12
REMARK    8  A    between atoms: C_11  and  C_14
REMARK    9  A    between atoms: C_19  and  O_23
REMARK   10  A    between atoms: C_25  and  C_27
REMARK   11  A    between atoms: C_25  and  C_29
REMARK   12  A    between atoms: C_28  and  C_32
REMARK   13  A    between atoms: C_30  and  C_32
REMARK   14  A    between atoms: C_30  and  C_34
REMARK   15  A    between atoms: C_33  and  C_36
REMARK   16  A    between atoms: C_41  and  O_45
REMARK                            x       y       z     vdW  Elec       q    Type
REMARK                         _______ _______ _______ _____ _____    ______ ____
ROOT
ATOM      1  C   UNL     1      48.504  -8.396   9.980  0.00  0.00    +0.000 C 
ATOM      2  C   UNL     1      49.376  -8.141   9.196  0.00  0.00    +0.000 C 
ENDROOT
BRANCH   2   3
ATOM      3  C   UNL     1      50.489  -7.812   8.194  0.00  0.00    +0.000 C 
BRANCH   3   4
ATOM      4  C   UNL     1      51.429  -7.532   7.347  0.00  0.00    +0.000 C 
ATOM      5  C   UNL     1      52.036  -8.624   6.519  0.00  0.00    +0.000 C 
BRANCH   4   7
ATOM      6  C   UNL     1      52.349  -5.089   7.173  0.00  0.00    +0.000 C 
ATOM      7  C   UNL     1      51.927  -6.211   7.253  0.00  0.00    +0.000 C 
BRANCH   6   8
ATOM      8  C   UNL     1      52.887  -3.657   7.070  0.00  0.00    +0.000 C 
BRANCH   8   9
ATOM      9  C   UNL     1      53.344  -2.446   6.985  0.00  0.00    +0.000 C 
ATOM     10  C   UNL     1      54.671  -2.191   6.340  0.00  0.00    +0.000 C 
BRANCH   9  12
ATOM     11  C   UNL     1      51.840  -0.439   7.741  0.00  0.00    +0.000 C 
ATOM     12  C   UNL     1      52.533  -1.357   7.391  0.00  0.00    +0.000 C 
BRANCH  11  14
ATOM     13  O   UNL     1      49.858   0.785   7.269  0.00  0.00    +0.000 OA
ATOM     14  C   UNL     1      50.987   0.656   8.178  0.00  0.00    +0.000 C 
ATOM     15  C   UNL     1      49.529   0.366   8.593  0.00  0.00    +0.000 C 
ATOM     16  C   UNL     1      51.639   1.992   8.672  0.00  0.00    +0.000 C 
ATOM     17  C   UNL     1      48.851   1.385   9.326  0.00  0.00    +0.000 C 
ATOM     18  C   UNL     1      50.579   2.794   9.297  0.00  0.00    +0.000 C 
ATOM     19  C   UNL     1      49.243   2.673   9.728  0.00  0.00    +0.000 C 
ATOM     20  C   UNL     1      48.945  -1.048   8.658  0.00  0.00    +0.000 C 
ATOM     21  C   UNL     1      52.696   1.584   9.727  0.00  0.00    +0.000 C 
ATOM     22  C   UNL     1      52.257   2.667   7.429  0.00  0.00    +0.000 C 
BRANCH  19  23
ATOM     23  O   UNL     1      48.371   3.719   9.720  0.00  0.00    +0.000 OA
ATOM     24  H   UNL     1      48.137   4.008   8.820  0.00  0.00    +0.000 HD
ENDBRANCH  19  23
ENDBRANCH  11  14
ENDBRANCH   9  12
ENDBRANCH   8   9
ENDBRANCH   6   8
ENDBRANCH   4   7
ENDBRANCH   3   4
ENDBRANCH   2   3
BRANCH   1  25
ATOM     25  C   UNL     1      47.390  -8.725  10.981  0.00  0.00    +0.000 C 
BRANCH  25  26
ATOM     26  C   UNL     1      46.449  -9.002  11.828  0.00  0.00    +0.000 C 
ATOM     27  C   UNL     1      45.894 -10.393  11.896  0.00  0.00    +0.000 C 
BRANCH  26  29
ATOM     28  C   UNL     1      45.557  -7.152  13.447  0.00  0.00    +0.000 C 
ATOM     29  C   UNL     1      45.965  -8.002  12.702  0.00  0.00    +0.000 C 
BRANCH  28  30
ATOM     30  C   UNL     1      45.040  -6.071  14.403  0.00  0.00    +0.000 C 
BRANCH  30  31
ATOM     31  C   UNL     1      44.600  -5.155  15.208  0.00  0.00    +0.000 C 
ATOM     32  C   UNL     1      45.311  -4.892  16.500  0.00  0.00    +0.000 C 
BRANCH  31  34
ATOM     33  C   UNL     1      42.526  -3.705  14.529  0.00  0.00    +0.000 C 
ATOM     34  C   UNL     1      43.476  -4.372  14.843  0.00  0.00    +0.000 C 
BRANCH  33  36
ATOM     35  O   UNL     1      40.152  -3.536  14.596  0.00  0.00    +0.000 OA
ATOM     36  C   UNL     1      41.379  -2.895  14.144  0.00  0.00    +0.000 C 
ATOM     37  C   UNL     1      40.465  -2.300  15.235  0.00  0.00    +0.000 C 
ATOM     38  C   UNL     1      41.340  -2.248  12.714  0.00  0.00    +0.000 C 
ATOM     39  C   UNL     1      39.582  -1.250  14.843  0.00  0.00    +0.000 C 
ATOM     40  C   UNL     1      40.251  -1.268  12.716  0.00  0.00    +0.000 C 
ATOM     41  C   UNL     1      39.346  -0.645  13.597  0.00  0.00    +0.000 C 
ATOM     42  C   UNL     1      40.730  -2.445  16.736  0.00  0.00    +0.000 C 
ATOM     43  C   UNL     1      41.127  -3.414  11.721  0.00  0.00    +0.000 C 
ATOM     44  C   UNL     1      42.713  -1.553  12.532  0.00  0.00    +0.000 C 
BRANCH  41  45
ATOM     45  O   UNL     1      39.022   0.671  13.466  0.00  0.00    +0.000 OA
ATOM     46  H   UNL     1      38.272   0.928  14.033  0.00  0.00    +0.000 HD
ENDBRANCH  41  45
ENDBRANCH  33  36
ENDBRANCH  31  34
ENDBRANCH  30  31
ENDBRANCH  28  30
ENDBRANCH  26  29
ENDBRANCH  25  26
ENDBRANCH   1  25
TORSDOF 16
ENDMDL
MODEL 3
REMARK VINA RESULT:      -6.0      3.050     11.889
REMARK  Name = 448438_Violaxanthin.pdbqt.pdb
REMARK  16 active torsions:
REMARK  status: ('A' for Active; 'I' for Inactive)
REMARK    1  A    between atoms: C_1  and  C_5
REMARK    2  A    between atoms: C_2  and  C_27
REMARK    3  A    between atoms: C_3  and  C_5
REMARK    4  A    between atoms: C_3  and  C_7
REMARK    5  A    between atoms: C_6  and  C_10
REMARK    6  A    between atoms: C_8  and  C_10
REMARK    7  A    between atoms: C_8  and  C_12
REMARK    8  A    between atoms: C_11  and  C_14
REMARK    9  A    between atoms: C_19  and  O_23
REMARK   10  A    between atoms: C_25  and  C_27
REMARK   11  A    between atoms: C_25  and  C_29
REMARK   12  A    between atoms: C_28  and  C_32
REMARK   13  A    between atoms: C_30  and  C_32
REMARK   14  A    between atoms: C_30  and  C_34
REMARK   15  A    between atoms: C_33  and  C_36
REMARK   16  A    between atoms: C_41  and  O_45
REMARK                            x       y       z     vdW  Elec       q    Type
REMARK                         _______ _______ _______ _____ _____    ______ ____
ROOT
ATOM      1  C   UNL     1      50.219  -5.542   7.319  0.00  0.00    +0.000 C 
ATOM      2  C   UNL     1      50.091  -6.634   7.799  0.00  0.00    +0.000 C 
ENDROOT
BRANCH   2   3
ATOM      3  C   UNL     1      49.931  -8.029   8.415  0.00  0.00    +0.000 C 
BRANCH   3   4
ATOM      4  C   UNL     1      49.794  -9.208   8.934  0.00  0.00    +0.000 C 
ATOM      5  C   UNL     1      50.847 -10.250   8.707  0.00  0.00    +0.000 C 
BRANCH   4   7
ATOM      6  C   UNL     1      47.624  -9.806  10.268  0.00  0.00    +0.000 C 
ATOM      7  C   UNL     1      48.621  -9.531   9.655  0.00  0.00    +0.000 C 
BRANCH   6   8
ATOM      8  C   UNL     1      46.354 -10.156  11.052  0.00  0.00    +0.000 C 
BRANCH   8   9
ATOM      9  C   UNL     1      45.280 -10.456  11.716  0.00  0.00    +0.000 C 
ATOM     10  C   UNL     1      44.764 -11.862  11.706  0.00  0.00    +0.000 C 
BRANCH   9  12
ATOM     11  C   UNL     1      44.149  -8.655  13.244  0.00  0.00    +0.000 C 
ATOM     12  C   UNL     1      44.671  -9.483  12.546  0.00  0.00    +0.000 C 
BRANCH  11  14
ATOM     13  O   UNL     1      42.126  -8.033  14.326  0.00  0.00    +0.000 OA
ATOM     14  C   UNL     1      43.504  -7.644  14.069  0.00  0.00    +0.000 C 
ATOM     15  C   UNL     1      42.979  -8.026  15.469  0.00  0.00    +0.000 C 
ATOM     16  C   UNL     1      43.755  -6.128  13.768  0.00  0.00    +0.000 C 
ATOM     17  C   UNL     1      42.676  -6.954  16.360  0.00  0.00    +0.000 C 
ATOM     18  C   UNL     1      43.218  -5.359  14.900  0.00  0.00    +0.000 C 
ATOM     19  C   UNL     1      42.717  -5.559  16.202  0.00  0.00    +0.000 C 
ATOM     20  C   UNL     1      43.182  -9.413  16.086  0.00  0.00    +0.000 C 
ATOM     21  C   UNL     1      45.292  -5.959  13.687  0.00  0.00    +0.000 C 
ATOM     22  C   UNL     1      43.043  -5.819  12.434  0.00  0.00    +0.000 C 
BRANCH  19  23
ATOM     23  O   UNL     1      41.776  -4.749  16.759  0.00  0.00    +0.000 OA
ATOM     24  H   UNL     1      41.309  -4.205  16.100  0.00  0.00    +0.000 HD
ENDBRANCH  19  23
ENDBRANCH  11  14
ENDBRANCH   9  12
ENDBRANCH   8   9
ENDBRANCH   6   8
ENDBRANCH   4   7
ENDBRANCH   3   4
ENDBRANCH   2   3
BRANCH   1  25
ATOM     25  C   UNL     1      50.380  -4.147   6.703  0.00  0.00    +0.000 C 
BRANCH  25  26
ATOM     26  C   UNL     1      50.517  -2.968   6.183  0.00  0.00    +0.000 C 
ATOM     27  C   UNL     1      50.642  -2.818   4.696  0.00  0.00    +0.000 C 
BRANCH  26  29
ATOM     28  C   UNL     1      50.522  -0.851   7.718  0.00  0.00    +0.000 C 
ATOM     29  C   UNL     1      50.521  -1.824   7.014  0.00  0.00    +0.000 C 
BRANCH  28  30
ATOM     30  C   UNL     1      50.517   0.395   8.614  0.00  0.00    +0.000 C 
BRANCH  30  31
ATOM     31  C   UNL     1      50.512   1.444   9.375  0.00  0.00    +0.000 C 
ATOM     32  C   UNL     1      50.049   1.334  10.795  0.00  0.00    +0.000 C 
BRANCH  31  34
ATOM     33  C   UNL     1      51.394   3.730   8.447  0.00  0.00    +0.000 C 
ATOM     34  C   UNL     1      50.989   2.682   8.876  0.00  0.00    +0.000 C 
BRANCH  33  36
ATOM     35  O   UNL     1      53.133   4.788   7.211  0.00  0.00    +0.000 OA
ATOM     36  C   UNL     1      51.880   4.998   7.923  0.00  0.00    +0.000 C 
ATOM     37  C   UNL     1      52.030   5.186   6.399  0.00  0.00    +0.000 C 
ATOM     38  C   UNL     1      51.798   6.284   8.821  0.00  0.00    +0.000 C 
ATOM     39  C   UNL     1      52.169   6.523   5.918  0.00  0.00    +0.000 C 
ATOM     40  C   UNL     1      52.063   7.432   7.951  0.00  0.00    +0.000 C 
ATOM     41  C   UNL     1      52.229   7.755   6.591  0.00  0.00    +0.000 C 
ATOM     42  C   UNL     1      51.623   4.128   5.370  0.00  0.00    +0.000 C 
ATOM     43  C   UNL     1      52.848   6.093   9.940  0.00  0.00    +0.000 C 
ATOM     44  C   UNL     1      50.347   6.321   9.365  0.00  0.00    +0.000 C 
BRANCH  41  45
ATOM     45  O   UNL     1      51.724   8.906   6.068  0.00  0.00    +0.000 OA
ATOM     46  H   UNL     1      51.564   9.585   6.749  0.00  0.00    +0.000 HD
ENDBRANCH  41  45
ENDBRANCH  33  36
ENDBRANCH  31  34
ENDBRANCH  30  31
ENDBRANCH  28  30
ENDBRANCH  26  29
ENDBRANCH  25  26
ENDBRANCH   1  25
TORSDOF 16
ENDMDL
MODEL 4
REMARK VINA RESULT:      -6.0     10.691     18.278
REMARK  Name = 448438_Violaxanthin.pdbqt.pdb
REMARK  16 active torsions:
REMARK  status: ('A' for Active; 'I' for Inactive)
REMARK    1  A    between atoms: C_1  and  C_5
REMARK    2  A    between atoms: C_2  and  C_27
REMARK    3  A    between atoms: C_3  and  C_5
REMARK    4  A    between atoms: C_3  and  C_7
REMARK    5  A    between atoms: C_6  and  C_10
REMARK    6  A    between atoms: C_8  and  C_10
REMARK    7  A    between atoms: C_8  and  C_12
REMARK    8  A    between atoms: C_11  and  C_14
REMARK    9  A    between atoms: C_19  and  O_23
REMARK   10  A    between atoms: C_25  and  C_27
REMARK   11  A    between atoms: C_25  and  C_29
REMARK   12  A    between atoms: C_28  and  C_32
REMARK   13  A    between atoms: C_30  and  C_32
REMARK   14  A    between atoms: C_30  and  C_34
REMARK   15  A    between atoms: C_33  and  C_36
REMARK   16  A    between atoms: C_41  and  O_45
REMARK                            x       y       z     vdW  Elec       q    Type
REMARK                         _______ _______ _______ _____ _____    ______ ____
ROOT
ATOM      1  C   UNL     1      55.041  10.417  14.380  0.00  0.00    +0.000 C 
ATOM      2  C   UNL     1      54.856   9.255  14.146  0.00  0.00    +0.000 C 
ENDROOT
BRANCH   2   3
ATOM      3  C   UNL     1      54.620   7.770  13.845  0.00  0.00    +0.000 C 
BRANCH   3   4
ATOM      4  C   UNL     1      54.419   6.516  13.588  0.00  0.00    +0.000 C 
ATOM      5  C   UNL     1      55.178   5.469  14.346  0.00  0.00    +0.000 C 
BRANCH   4   7
ATOM      6  C   UNL     1      52.790   5.819  11.664  0.00  0.00    +0.000 C 
ATOM      7  C   UNL     1      53.538   6.139  12.548  0.00  0.00    +0.000 C 
BRANCH   6   8
ATOM      8  C   UNL     1      51.835   5.413  10.535  0.00  0.00    +0.000 C 
BRANCH   8   9
ATOM      9  C   UNL     1      51.029   5.071   9.578  0.00  0.00    +0.000 C 
ATOM     10  C   UNL     1      50.360   6.125   8.751  0.00  0.00    +0.000 C 
BRANCH   9  12
ATOM     11  C   UNL     1      50.762   2.542   8.947  0.00  0.00    +0.000 C 
ATOM     12  C   UNL     1      50.880   3.703   9.238  0.00  0.00    +0.000 C 
BRANCH  11  14
ATOM     13  O   UNL     1      51.063   0.312   9.711  0.00  0.00    +0.000 OA
ATOM     14  C   UNL     1      50.643   1.137   8.589  0.00  0.00    +0.000 C 
ATOM     15  C   UNL     1      49.677   0.229   9.379  0.00  0.00    +0.000 C 
ATOM     16  C   UNL     1      51.098   0.663   7.167  0.00  0.00    +0.000 C 
ATOM     17  C   UNL     1      49.340  -1.025   8.789  0.00  0.00    +0.000 C 
ATOM     18  C   UNL     1      50.616  -0.714   6.987  0.00  0.00    +0.000 C 
ATOM     19  C   UNL     1      49.760  -1.649   7.602  0.00  0.00    +0.000 C 
ATOM     20  C   UNL     1      48.755   0.753  10.483  0.00  0.00    +0.000 C 
ATOM     21  C   UNL     1      50.402   1.610   6.159  0.00  0.00    +0.000 C 
ATOM     22  C   UNL     1      52.637   0.775   7.136  0.00  0.00    +0.000 C 
BRANCH  19  23
ATOM     23  O   UNL     1      49.971  -2.992   7.538  0.00  0.00    +0.000 OA
ATOM     24  H   UNL     1      49.502  -3.413   6.795  0.00  0.00    +0.000 HD
ENDBRANCH  19  23
ENDBRANCH  11  14
ENDBRANCH   9  12
ENDBRANCH   8   9
ENDBRANCH   6   8
ENDBRANCH   4   7
ENDBRANCH   3   4
ENDBRANCH   2   3
BRANCH   1  25
ATOM     25  C   UNL     1      55.277  11.902  14.681  0.00  0.00    +0.000 C 
BRANCH  25  26
ATOM     26  C   UNL     1      55.476  13.157  14.935  0.00  0.00    +0.000 C 
ATOM     27  C   UNL     1      56.787  13.603  15.509  0.00  0.00    +0.000 C 
BRANCH  26  29
ATOM     28  C   UNL     1      53.610  14.911  14.404  0.00  0.00    +0.000 C 
ATOM     29  C   UNL     1      54.468  14.106  14.646  0.00  0.00    +0.000 C 
BRANCH  28  30
ATOM     30  C   UNL     1      52.509  15.935  14.098  0.00  0.00    +0.000 C 
BRANCH  30  31
ATOM     31  C   UNL     1      51.583  16.803  13.838  0.00  0.00    +0.000 C 
ATOM     32  C   UNL     1      50.571  17.153  14.887  0.00  0.00    +0.000 C 
BRANCH  31  34
ATOM     33  C   UNL     1      51.531  18.004  11.510  0.00  0.00    +0.000 C 
ATOM     34  C   UNL     1      51.557  17.455  12.580  0.00  0.00    +0.000 C 
BRANCH  33  36
ATOM     35  O   UNL     1      51.458  20.111  10.402  0.00  0.00    +0.000 OA
ATOM     36  C   UNL     1      51.494  18.667  10.215  0.00  0.00    +0.000 C 
ATOM     37  C   UNL     1      52.650  19.604   9.804  0.00  0.00    +0.000 C 
ATOM     38  C   UNL     1      50.573  18.090   9.082  0.00  0.00    +0.000 C 
ATOM     39  C   UNL     1      52.749  19.948   8.423  0.00  0.00    +0.000 C 
ATOM     40  C   UNL     1      50.960  18.753   7.835  0.00  0.00    +0.000 C 
ATOM     41  C   UNL     1      51.948  19.613   7.318  0.00  0.00    +0.000 C 
ATOM     42  C   UNL     1      53.900  19.832  10.657  0.00  0.00    +0.000 C 
ATOM     43  C   UNL     1      49.120  18.384   9.519  0.00  0.00    +0.000 C 
ATOM     44  C   UNL     1      50.883  16.572   9.024  0.00  0.00    +0.000 C 
BRANCH  41  45
ATOM     45  O   UNL     1      52.455  19.439   6.066  0.00  0.00    +0.000 OA
ATOM     46  H   UNL     1      51.903  19.857   5.380  0.00  0.00    +0.000 HD
ENDBRANCH  41  45
ENDBRANCH  33  36
ENDBRANCH  31  34
ENDBRANCH  30  31
ENDBRANCH  28  30
ENDBRANCH  26  29
ENDBRANCH  25  26
ENDBRANCH   1  25
TORSDOF 16
ENDMDL
MODEL 5
REMARK VINA RESULT:      -5.9     12.528     17.943
REMARK  Name = 448438_Violaxanthin.pdbqt.pdb
REMARK  16 active torsions:
REMARK  status: ('A' for Active; 'I' for Inactive)
REMARK    1  A    between atoms: C_1  and  C_5
REMARK    2  A    between atoms: C_2  and  C_27
REMARK    3  A    between atoms: C_3  and  C_5
REMARK    4  A    between atoms: C_3  and  C_7
REMARK    5  A    between atoms: C_6  and  C_10
REMARK    6  A    between atoms: C_8  and  C_10
REMARK    7  A    between atoms: C_8  and  C_12
REMARK    8  A    between atoms: C_11  and  C_14
REMARK    9  A    between atoms: C_19  and  O_23
REMARK   10  A    between atoms: C_25  and  C_27
REMARK   11  A    between atoms: C_25  and  C_29
REMARK   12  A    between atoms: C_28  and  C_32
REMARK   13  A    between atoms: C_30  and  C_32
REMARK   14  A    between atoms: C_30  and  C_34
REMARK   15  A    between atoms: C_33  and  C_36
REMARK   16  A    between atoms: C_41  and  O_45
REMARK                            x       y       z     vdW  Elec       q    Type
REMARK                         _______ _______ _______ _____ _____    ______ ____
ROOT
ATOM      1  C   UNL     1      47.924   2.041  25.731  0.00  0.00    +0.000 C 
ATOM      2  C   UNL     1      47.244   1.373  25.002  0.00  0.00    +0.000 C 
ENDROOT
BRANCH   2   3
ATOM      3  C   UNL     1      46.374   0.517  24.074  0.00  0.00    +0.000 C 
BRANCH   3   4
ATOM      4  C   UNL     1      45.638  -0.207  23.291  0.00  0.00    +0.000 C 
ATOM      5  C   UNL     1      46.052  -1.610  22.964  0.00  0.00    +0.000 C 
BRANCH   4   7
ATOM      6  C   UNL     1      43.502   0.822  22.185  0.00  0.00    +0.000 C 
ATOM      7  C   UNL     1      44.483   0.350  22.693  0.00  0.00    +0.000 C 
BRANCH   6   8
ATOM      8  C   UNL     1      42.248   1.424  21.538  0.00  0.00    +0.000 C 
BRANCH   8   9
ATOM      9  C   UNL     1      41.186   1.931  20.994  0.00  0.00    +0.000 C 
ATOM     10  C   UNL     1      40.428   3.013  21.700  0.00  0.00    +0.000 C 
BRANCH   9  12
ATOM     11  C   UNL     1      40.513   1.223  18.563  0.00  0.00    +0.000 C 
ATOM     12  C   UNL     1      40.817   1.550  19.680  0.00  0.00    +0.000 C 
BRANCH  11  14
ATOM     13  O   UNL     1      38.745   1.032  16.986  0.00  0.00    +0.000 OA
ATOM     14  C   UNL     1      40.168   0.824  17.207  0.00  0.00    +0.000 C 
ATOM     15  C   UNL     1      39.609   1.874  16.223  0.00  0.00    +0.000 C 
ATOM     16  C   UNL     1      40.781  -0.488  16.610  0.00  0.00    +0.000 C 
ATOM     17  C   UNL     1      39.612   1.529  14.840  0.00  0.00    +0.000 C 
ATOM     18  C   UNL     1      40.489  -0.494  15.170  0.00  0.00    +0.000 C 
ATOM     19  C   UNL     1      39.996   0.359  14.163  0.00  0.00    +0.000 C 
ATOM     20  C   UNL     1      39.478   3.359  16.574  0.00  0.00    +0.000 C 
ATOM     21  C   UNL     1      42.308  -0.391  16.847  0.00  0.00    +0.000 C 
ATOM     22  C   UNL     1      40.127  -1.664  17.366  0.00  0.00    +0.000 C 
BRANCH  19  23
ATOM     23  O   UNL     1      39.306  -0.101  13.083  0.00  0.00    +0.000 OA
ATOM     24  H   UNL     1      39.753   0.092  12.240  0.00  0.00    +0.000 HD
ENDBRANCH  19  23
ENDBRANCH  11  14
ENDBRANCH   9  12
ENDBRANCH   8   9
ENDBRANCH   6   8
ENDBRANCH   4   7
ENDBRANCH   3   4
ENDBRANCH   2   3
BRANCH   1  25
ATOM     25  C   UNL     1      48.794   2.897  26.660  0.00  0.00    +0.000 C 
BRANCH  25  26
ATOM     26  C   UNL     1      49.528   3.620  27.445  0.00  0.00    +0.000 C 
ATOM     27  C   UNL     1      50.792   3.051  28.017  0.00  0.00    +0.000 C 
BRANCH  26  29
ATOM     28  C   UNL     1      48.833   6.081  27.988  0.00  0.00    +0.000 C 
ATOM     29  C   UNL     1      49.152   4.950  27.741  0.00  0.00    +0.000 C 
BRANCH  28  30
ATOM     30  C   UNL     1      48.428   7.528  28.298  0.00  0.00    +0.000 C 
BRANCH  30  31
ATOM     31  C   UNL     1      48.084   8.749  28.564  0.00  0.00    +0.000 C 
ATOM     32  C   UNL     1      49.134   9.809  28.699  0.00  0.00    +0.000 C 
BRANCH  31  34
ATOM     33  C   UNL     1      45.550   9.382  28.774  0.00  0.00    +0.000 C 
ATOM     34  C   UNL     1      46.713   9.088  28.678  0.00  0.00    +0.000 C 
BRANCH  33  36
ATOM     35  O   UNL     1      43.546   9.042  30.014  0.00  0.00    +0.000 OA
ATOM     36  C   UNL     1      44.144   9.742  28.886  0.00  0.00    +0.000 C 
ATOM     37  C   UNL     1      43.639  10.458  30.157  0.00  0.00    +0.000 C 
ATOM     38  C   UNL     1      43.269   9.840  27.586  0.00  0.00    +0.000 C 
ATOM     39  C   UNL     1      42.363  11.093  30.083  0.00  0.00    +0.000 C 
ATOM     40  C   UNL     1      42.016  10.500  27.961  0.00  0.00    +0.000 C 
ATOM     41  C   UNL     1      41.420  11.173  29.045  0.00  0.00    +0.000 C 
ATOM     42  C   UNL     1      44.553  10.892  31.305  0.00  0.00    +0.000 C 
ATOM     43  C   UNL     1      43.083   8.391  27.083  0.00  0.00    +0.000 C 
ATOM     44  C   UNL     1      44.085  10.715  26.599  0.00  0.00    +0.000 C 
BRANCH  41  45
ATOM     45  O   UNL     1      40.625  12.262  28.853  0.00  0.00    +0.000 OA
ATOM     46  H   UNL     1      39.681  12.062  28.992  0.00  0.00    +0.000 HD
ENDBRANCH  41  45
ENDBRANCH  33  36
ENDBRANCH  31  34
ENDBRANCH  30  31
ENDBRANCH  28  30
ENDBRANCH  26  29
ENDBRANCH  25  26
ENDBRANCH   1  25
TORSDOF 16
ENDMDL
MODEL 6
REMARK VINA RESULT:      -5.9      5.767     13.417
REMARK  Name = 448438_Violaxanthin.pdbqt.pdb
REMARK  16 active torsions:
REMARK  status: ('A' for Active; 'I' for Inactive)
REMARK    1  A    between atoms: C_1  and  C_5
REMARK    2  A    between atoms: C_2  and  C_27
REMARK    3  A    between atoms: C_3  and  C_5
REMARK    4  A    between atoms: C_3  and  C_7
REMARK    5  A    between atoms: C_6  and  C_10
REMARK    6  A    between atoms: C_8  and  C_10
REMARK    7  A    between atoms: C_8  and  C_12
REMARK    8  A    between atoms: C_11  and  C_14
REMARK    9  A    between atoms: C_19  and  O_23
REMARK   10  A    between atoms: C_25  and  C_27
REMARK   11  A    between atoms: C_25  and  C_29
REMARK   12  A    between atoms: C_28  and  C_32
REMARK   13  A    between atoms: C_30  and  C_32
REMARK   14  A    between atoms: C_30  and  C_34
REMARK   15  A    between atoms: C_33  and  C_36
REMARK   16  A    between atoms: C_41  and  O_45
REMARK                            x       y       z     vdW  Elec       q    Type
REMARK                         _______ _______ _______ _____ _____    ______ ____
ROOT
ATOM      1  C   UNL     1      50.177  -5.553   7.161  0.00  0.00    +0.000 C 
ATOM      2  C   UNL     1      50.106  -6.660   7.617  0.00  0.00    +0.000 C 
ENDROOT
BRANCH   2   3
ATOM      3  C   UNL     1      50.017  -8.075   8.200  0.00  0.00    +0.000 C 
BRANCH   3   4
ATOM      4  C   UNL     1      49.945  -9.272   8.692  0.00  0.00    +0.000 C 
ATOM      5  C   UNL     1      51.095 -10.219   8.523  0.00  0.00    +0.000 C 
BRANCH   4   7
ATOM      6  C   UNL     1      47.749 -10.072   9.867  0.00  0.00    +0.000 C 
ATOM      7  C   UNL     1      48.758  -9.705   9.327  0.00  0.00    +0.000 C 
BRANCH   6   8
ATOM      8  C   UNL     1      46.463 -10.542  10.558  0.00  0.00    +0.000 C 
BRANCH   8   9
ATOM      9  C   UNL     1      45.374 -10.941  11.139  0.00  0.00    +0.000 C 
ATOM     10  C   UNL     1      45.135 -10.616  12.581  0.00  0.00    +0.000 C 
BRANCH   9  12
ATOM     11  C   UNL     1      43.498 -12.103   9.728  0.00  0.00    +0.000 C 
ATOM     12  C   UNL     1      44.360 -11.574  10.378  0.00  0.00    +0.000 C 
BRANCH  11  14
ATOM     13  O   UNL     1      41.977 -13.926   9.602  0.00  0.00    +0.000 OA
ATOM     14  C   UNL     1      42.448 -12.722   8.933  0.00  0.00    +0.000 C 
ATOM     15  C   UNL     1      41.029 -12.863   9.524  0.00  0.00    +0.000 C 
ATOM     16  C   UNL     1      42.606 -12.806   7.377  0.00  0.00    +0.000 C 
ATOM     17  C   UNL     1      39.973 -13.150   8.609  0.00  0.00    +0.000 C 
ATOM     18  C   UNL     1      41.308 -13.214   6.824  0.00  0.00    +0.000 C 
ATOM     19  C   UNL     1      39.967 -13.384   7.224  0.00  0.00    +0.000 C 
ATOM     20  C   UNL     1      40.635 -12.297  10.892  0.00  0.00    +0.000 C 
ATOM     21  C   UNL     1      42.963 -11.375   6.908  0.00  0.00    +0.000 C 
ATOM     22  C   UNL     1      43.730 -13.828   7.103  0.00  0.00    +0.000 C 
BRANCH  19  23
ATOM     23  O   UNL     1      39.144 -14.311   6.660  0.00  0.00    +0.000 OA
ATOM     24  H   UNL     1      39.622 -14.947   6.099  0.00  0.00    +0.000 HD
ENDBRANCH  19  23
ENDBRANCH  11  14
ENDBRANCH   9  12
ENDBRANCH   8   9
ENDBRANCH   6   8
ENDBRANCH   4   7
ENDBRANCH   3   4
ENDBRANCH   2   3
BRANCH   1  25
ATOM     25  C   UNL     1      50.267  -4.137   6.577  0.00  0.00    +0.000 C 
BRANCH  25  26
ATOM     26  C   UNL     1      50.343  -2.941   6.084  0.00  0.00    +0.000 C 
ATOM     27  C   UNL     1      50.300  -2.743   4.599  0.00  0.00    +0.000 C 
BRANCH  26  29
ATOM     28  C   UNL     1      50.518  -0.877   7.680  0.00  0.00    +0.000 C 
ATOM     29  C   UNL     1      50.440  -1.825   6.947  0.00  0.00    +0.000 C 
BRANCH  28  30
ATOM     30  C   UNL     1      50.611   0.333   8.618  0.00  0.00    +0.000 C 
BRANCH  30  31
ATOM     31  C   UNL     1      50.687   1.354   9.414  0.00  0.00    +0.000 C 
ATOM     32  C   UNL     1      50.356   1.194  10.866  0.00  0.00    +0.000 C 
BRANCH  31  34
ATOM     33  C   UNL     1      51.500   3.668   8.492  0.00  0.00    +0.000 C 
ATOM     34  C   UNL     1      51.128   2.606   8.918  0.00  0.00    +0.000 C 
BRANCH  33  36
ATOM     35  O   UNL     1      53.153   4.771   7.181  0.00  0.00    +0.000 OA
ATOM     36  C   UNL     1      51.945   4.953   7.973  0.00  0.00    +0.000 C 
ATOM     37  C   UNL     1      52.000   5.181   6.448  0.00  0.00    +0.000 C 
ATOM     38  C   UNL     1      51.910   6.214   8.908  0.00  0.00    +0.000 C 
ATOM     39  C   UNL     1      52.101   6.530   5.995  0.00  0.00    +0.000 C 
ATOM     40  C   UNL     1      52.114   7.386   8.054  0.00  0.00    +0.000 C 
ATOM     41  C   UNL     1      52.194   7.745   6.694  0.00  0.00    +0.000 C 
ATOM     42  C   UNL     1      51.538   4.147   5.418  0.00  0.00    +0.000 C 
ATOM     43  C   UNL     1      53.027   6.003   9.955  0.00  0.00    +0.000 C 
ATOM     44  C   UNL     1      50.494   6.226   9.539  0.00  0.00    +0.000 C 
BRANCH  41  45
ATOM     45  O   UNL     1      51.650   8.906   6.234  0.00  0.00    +0.000 OA
ATOM     46  H   UNL     1      50.683   8.847   6.129  0.00  0.00    +0.000 HD
ENDBRANCH  41  45
ENDBRANCH  33  36
ENDBRANCH  31  34
ENDBRANCH  30  31
ENDBRANCH  28  30
ENDBRANCH  26  29
ENDBRANCH  25  26
ENDBRANCH   1  25
TORSDOF 16
ENDMDL
MODEL 7
REMARK VINA RESULT:      -5.8      6.906      8.360
REMARK  Name = 448438_Violaxanthin.pdbqt.pdb
REMARK  16 active torsions:
REMARK  status: ('A' for Active; 'I' for Inactive)
REMARK    1  A    between atoms: C_1  and  C_5
REMARK    2  A    between atoms: C_2  and  C_27
REMARK    3  A    between atoms: C_3  and  C_5
REMARK    4  A    between atoms: C_3  and  C_7
REMARK    5  A    between atoms: C_6  and  C_10
REMARK    6  A    between atoms: C_8  and  C_10
REMARK    7  A    between atoms: C_8  and  C_12
REMARK    8  A    between atoms: C_11  and  C_14
REMARK    9  A    between atoms: C_19  and  O_23
REMARK   10  A    between atoms: C_25  and  C_27
REMARK   11  A    between atoms: C_25  and  C_29
REMARK   12  A    between atoms: C_28  and  C_32
REMARK   13  A    between atoms: C_30  and  C_32
REMARK   14  A    between atoms: C_30  and  C_34
REMARK   15  A    between atoms: C_33  and  C_36
REMARK   16  A    between atoms: C_41  and  O_45
REMARK                            x       y       z     vdW  Elec       q    Type
REMARK                         _______ _______ _______ _____ _____    ______ ____
ROOT
ATOM      1  C   UNL     1      48.251  -5.888  20.109  0.00  0.00    +0.000 C 
ATOM      2  C   UNL     1      49.292  -6.263  19.648  0.00  0.00    +0.000 C 
ENDROOT
BRANCH   2   3
ATOM      3  C   UNL     1      50.622  -6.746  19.058  0.00  0.00    +0.000 C 
BRANCH   3   4
ATOM      4  C   UNL     1      51.746  -7.155  18.558  0.00  0.00    +0.000 C 
ATOM      5  C   UNL     1      52.037  -8.623  18.479  0.00  0.00    +0.000 C 
BRANCH   4   7
ATOM      6  C   UNL     1      53.551  -5.418  17.805  0.00  0.00    +0.000 C 
ATOM      7  C   UNL     1      52.722  -6.215  18.151  0.00  0.00    +0.000 C 
BRANCH   6   8
ATOM      8  C   UNL     1      54.611  -4.400  17.365  0.00  0.00    +0.000 C 
BRANCH   8   9
ATOM      9  C   UNL     1      55.509  -3.539  16.997  0.00  0.00    +0.000 C 
ATOM     10  C   UNL     1      56.881  -4.006  16.619  0.00  0.00    +0.000 C 
BRANCH   9  12
ATOM     11  C   UNL     1      54.860  -1.019  16.698  0.00  0.00    +0.000 C 
ATOM     12  C   UNL     1      55.153  -2.177  16.835  0.00  0.00    +0.000 C 
BRANCH  11  14
ATOM     13  O   UNL     1      53.722   0.829  17.668  0.00  0.00    +0.000 OA
ATOM     14  C   UNL     1      54.529   0.389  16.540  0.00  0.00    +0.000 C 
ATOM     15  C   UNL     1      55.023   1.410  17.587  0.00  0.00    +0.000 C 
ATOM     16  C   UNL     1      54.108   0.929  15.131  0.00  0.00    +0.000 C 
ATOM     17  C   UNL     1      54.974   2.787  17.220  0.00  0.00    +0.000 C 
ATOM     18  C   UNL     1      54.103   2.396  15.205  0.00  0.00    +0.000 C 
ATOM     19  C   UNL     1      54.507   3.437  16.065  0.00  0.00    +0.000 C 
ATOM     20  C   UNL     1      55.933   1.029  18.758  0.00  0.00    +0.000 C 
ATOM     21  C   UNL     1      55.201   0.445  14.147  0.00  0.00    +0.000 C 
ATOM     22  C   UNL     1      52.717   0.333  14.827  0.00  0.00    +0.000 C 
BRANCH  19  23
ATOM     23  O   UNL     1      53.854   4.630  16.132  0.00  0.00    +0.000 OA
ATOM     24  H   UNL     1      53.420   4.869  15.293  0.00  0.00    +0.000 HD
ENDBRANCH  19  23
ENDBRANCH  11  14
ENDBRANCH   9  12
ENDBRANCH   8   9
ENDBRANCH   6   8
ENDBRANCH   4   7
ENDBRANCH   3   4
ENDBRANCH   2   3
BRANCH   1  25
ATOM     25  C   UNL     1      46.920  -5.405  20.700  0.00  0.00    +0.000 C 
BRANCH  25  26
ATOM     26  C   UNL     1      45.795  -4.998  21.198  0.00  0.00    +0.000 C 
ATOM     27  C   UNL     1      45.093  -5.827  22.231  0.00  0.00    +0.000 C 
BRANCH  26  29
ATOM     28  C   UNL     1      44.779  -2.712  20.434  0.00  0.00    +0.000 C 
ATOM     29  C   UNL     1      45.245  -3.762  20.787  0.00  0.00    +0.000 C 
BRANCH  28  30
ATOM     30  C   UNL     1      44.187  -1.373  19.977  0.00  0.00    +0.000 C 
BRANCH  30  31
ATOM     31  C   UNL     1      43.690  -0.240  19.591  0.00  0.00    +0.000 C 
ATOM     32  C   UNL     1      43.902   0.990  20.421  0.00  0.00    +0.000 C 
BRANCH  31  34
ATOM     33  C   UNL     1      42.394  -0.091  17.319  0.00  0.00    +0.000 C 
ATOM     34  C   UNL     1      42.990  -0.156  18.362  0.00  0.00    +0.000 C 
BRANCH  33  36
ATOM     35  O   UNL     1      42.549   0.481  15.013  0.00  0.00    +0.000 OA
ATOM     36  C   UNL     1      41.667  -0.015  16.061  0.00  0.00    +0.000 C 
ATOM     37  C   UNL     1      42.125  -0.873  14.863  0.00  0.00    +0.000 C 
ATOM     38  C   UNL     1      40.198   0.540  16.052  0.00  0.00    +0.000 C 
ATOM     39  C   UNL     1      41.202  -1.034  13.786  0.00  0.00    +0.000 C 
ATOM     40  C   UNL     1      39.626   0.220  14.742  0.00  0.00    +0.000 C 
ATOM     41  C   UNL     1      39.913  -0.516  13.577  0.00  0.00    +0.000 C 
ATOM     42  C   UNL     1      43.277  -1.879  14.932  0.00  0.00    +0.000 C 
ATOM     43  C   UNL     1      40.310   2.056  16.331  0.00  0.00    +0.000 C 
ATOM     44  C   UNL     1      39.458  -0.221  17.182  0.00  0.00    +0.000 C 
BRANCH  41  45
ATOM     45  O   UNL     1      38.941  -1.203  12.915  0.00  0.00    +0.000 OA
ATOM     46  H   UNL     1      38.602  -0.715  12.142  0.00  0.00    +0.000 HD
ENDBRANCH  41  45
ENDBRANCH  33  36
ENDBRANCH  31  34
ENDBRANCH  30  31
ENDBRANCH  28  30
ENDBRANCH  26  29
ENDBRANCH  25  26
ENDBRANCH   1  25
TORSDOF 16
ENDMDL
MODEL 8
REMARK VINA RESULT:      -5.8     11.451     18.086
REMARK  Name = 448438_Violaxanthin.pdbqt.pdb
REMARK  16 active torsions:
REMARK  status: ('A' for Active; 'I' for Inactive)
REMARK    1  A    between atoms: C_1  and  C_5
REMARK    2  A    between atoms: C_2  and  C_27
REMARK    3  A    between atoms: C_3  and  C_5
REMARK    4  A    between atoms: C_3  and  C_7
REMARK    5  A    between atoms: C_6  and  C_10
REMARK    6  A    between atoms: C_8  and  C_10
REMARK    7  A    between atoms: C_8  and  C_12
REMARK    8  A    between atoms: C_11  and  C_14
REMARK    9  A    between atoms: C_19  and  O_23
REMARK   10  A    between atoms: C_25  and  C_27
REMARK   11  A    between atoms: C_25  and  C_29
REMARK   12  A    between atoms: C_28  and  C_32
REMARK   13  A    between atoms: C_30  and  C_32
REMARK   14  A    between atoms: C_30  and  C_34
REMARK   15  A    between atoms: C_33  and  C_36
REMARK   16  A    between atoms: C_41  and  O_45
REMARK                            x       y       z     vdW  Elec       q    Type
REMARK                         _______ _______ _______ _____ _____    ______ ____
ROOT
ATOM      1  C   UNL     1      55.154  10.084  14.252  0.00  0.00    +0.000 C 
ATOM      2  C   UNL     1      55.010   8.896  14.170  0.00  0.00    +0.000 C 
ENDROOT
BRANCH   2   3
ATOM      3  C   UNL     1      54.826   7.378  14.062  0.00  0.00    +0.000 C 
BRANCH   3   4
ATOM      4  C   UNL     1      54.669   6.095  13.969  0.00  0.00    +0.000 C 
ATOM      5  C   UNL     1      55.701   5.174  14.548  0.00  0.00    +0.000 C 
BRANCH   4   7
ATOM      6  C   UNL     1      52.624   5.118  12.662  0.00  0.00    +0.000 C 
ATOM      7  C   UNL     1      53.563   5.566  13.262  0.00  0.00    +0.000 C 
BRANCH   6   8
ATOM      8  C   UNL     1      51.424   4.547  11.897  0.00  0.00    +0.000 C 
BRANCH   8   9
ATOM      9  C   UNL     1      50.409   4.067  11.248  0.00  0.00    +0.000 C 
ATOM     10  C   UNL     1      49.070   4.730  11.358  0.00  0.00    +0.000 C 
BRANCH   9  12
ATOM     11  C   UNL     1      50.756   2.077   9.580  0.00  0.00    +0.000 C 
ATOM     12  C   UNL     1      50.596   2.993  10.342  0.00  0.00    +0.000 C 
BRANCH  11  14
ATOM     13  O   UNL     1      52.105   1.219   7.821  0.00  0.00    +0.000 OA
ATOM     14  C   UNL     1      50.958   0.954   8.677  0.00  0.00    +0.000 C 
ATOM     15  C   UNL     1      52.273   0.148   8.748  0.00  0.00    +0.000 C 
ATOM     16  C   UNL     1      49.720   0.281   7.994  0.00  0.00    +0.000 C 
ATOM     17  C   UNL     1      52.286  -1.124   8.102  0.00  0.00    +0.000 C 
ATOM     18  C   UNL     1      50.185  -0.968   7.373  0.00  0.00    +0.000 C 
ATOM     19  C   UNL     1      51.318  -1.805   7.345  0.00  0.00    +0.000 C 
ATOM     20  C   UNL     1      53.359   0.413   9.794  0.00  0.00    +0.000 C 
ATOM     21  C   UNL     1      48.721  -0.027   9.135  0.00  0.00    +0.000 C 
ATOM     22  C   UNL     1      49.173   1.299   6.971  0.00  0.00    +0.000 C 
BRANCH  19  23
ATOM     23  O   UNL     1      51.657  -2.545   6.253  0.00  0.00    +0.000 OA
ATOM     24  H   UNL     1      52.033  -2.007   5.534  0.00  0.00    +0.000 HD
ENDBRANCH  19  23
ENDBRANCH  11  14
ENDBRANCH   9  12
ENDBRANCH   8   9
ENDBRANCH   6   8
ENDBRANCH   4   7
ENDBRANCH   3   4
ENDBRANCH   2   3
BRANCH   1  25
ATOM     25  C   UNL     1      55.338  11.603  14.358  0.00  0.00    +0.000 C 
BRANCH  25  26
ATOM     26  C   UNL     1      55.494  12.886  14.448  0.00  0.00    +0.000 C 
ATOM     27  C   UNL     1      56.859  13.457  14.689  0.00  0.00    +0.000 C 
BRANCH  26  29
ATOM     28  C   UNL     1      53.437  14.476  14.164  0.00  0.00    +0.000 C 
ATOM     29  C   UNL     1      54.383  13.746  14.293  0.00  0.00    +0.000 C 
BRANCH  28  30
ATOM     30  C   UNL     1      52.226  15.404  14.005  0.00  0.00    +0.000 C 
BRANCH  30  31
ATOM     31  C   UNL     1      51.205  16.191  13.873  0.00  0.00    +0.000 C 
ATOM     32  C   UNL     1      50.236  15.977  12.750  0.00  0.00    +0.000 C 
BRANCH  31  34
ATOM     33  C   UNL     1      50.794  18.097  15.624  0.00  0.00    +0.000 C 
ATOM     34  C   UNL     1      50.980  17.223  14.818  0.00  0.00    +0.000 C 
BRANCH  33  36
ATOM     35  O   UNL     1      51.453  20.279  16.312  0.00  0.00    +0.000 OA
ATOM     36  C   UNL     1      50.575  19.153  16.601  0.00  0.00    +0.000 C 
ATOM     37  C   UNL     1      50.061  20.531  16.132  0.00  0.00    +0.000 C 
ATOM     38  C   UNL     1      50.402  18.777  18.115  0.00  0.00    +0.000 C 
ATOM     39  C   UNL     1      49.536  21.404  17.131  0.00  0.00    +0.000 C 
ATOM     40  C   UNL     1      49.904  19.972  18.800  0.00  0.00    +0.000 C 
ATOM     41  C   UNL     1      49.419  21.265  18.524  0.00  0.00    +0.000 C 
ATOM     42  C   UNL     1      49.686  20.847  14.682  0.00  0.00    +0.000 C 
ATOM     43  C   UNL     1      51.794  18.314  18.604  0.00  0.00    +0.000 C 
ATOM     44  C   UNL     1      49.349  17.639  18.145  0.00  0.00    +0.000 C 
BRANCH  41  45
ATOM     45  O   UNL     1      48.389  21.803  19.234  0.00  0.00    +0.000 OA
ATOM     46  H   UNL     1      48.431  22.776  19.272  0.00  0.00    +0.000 HD
ENDBRANCH  41  45
ENDBRANCH  33  36
ENDBRANCH  31  34
ENDBRANCH  30  31
ENDBRANCH  28  30
ENDBRANCH  26  29
ENDBRANCH  25  26
ENDBRANCH   1  25
TORSDOF 16
ENDMDL
MODEL 9
REMARK VINA RESULT:      -5.7      5.789      7.330
REMARK  Name = 448438_Violaxanthin.pdbqt.pdb
REMARK  16 active torsions:
REMARK  status: ('A' for Active; 'I' for Inactive)
REMARK    1  A    between atoms: C_1  and  C_5
REMARK    2  A    between atoms: C_2  and  C_27
REMARK    3  A    between atoms: C_3  and  C_5
REMARK    4  A    between atoms: C_3  and  C_7
REMARK    5  A    between atoms: C_6  and  C_10
REMARK    6  A    between atoms: C_8  and  C_10
REMARK    7  A    between atoms: C_8  and  C_12
REMARK    8  A    between atoms: C_11  and  C_14
REMARK    9  A    between atoms: C_19  and  O_23
REMARK   10  A    between atoms: C_25  and  C_27
REMARK   11  A    between atoms: C_25  and  C_29
REMARK   12  A    between atoms: C_28  and  C_32
REMARK   13  A    between atoms: C_30  and  C_32
REMARK   14  A    between atoms: C_30  and  C_34
REMARK   15  A    between atoms: C_33  and  C_36
REMARK   16  A    between atoms: C_41  and  O_45
REMARK                            x       y       z     vdW  Elec       q    Type
REMARK                         _______ _______ _______ _____ _____    ______ ____
ROOT
ATOM      1  C   UNL     1      49.100  -6.019  19.516  0.00  0.00    +0.000 C 
ATOM      2  C   UNL     1      50.284  -6.110  19.347  0.00  0.00    +0.000 C 
ENDROOT
BRANCH   2   3
ATOM      3  C   UNL     1      51.797  -6.228  19.131  0.00  0.00    +0.000 C 
BRANCH   3   4
ATOM      4  C   UNL     1      53.076  -6.331  18.949  0.00  0.00    +0.000 C 
ATOM      5  C   UNL     1      53.906  -7.122  19.914  0.00  0.00    +0.000 C 
BRANCH   4   7
ATOM      6  C   UNL     1      54.223  -5.056  16.973  0.00  0.00    +0.000 C 
ATOM      7  C   UNL     1      53.696  -5.641  17.881  0.00  0.00    +0.000 C 
BRANCH   6   8
ATOM      8  C   UNL     1      54.897  -4.308  15.816  0.00  0.00    +0.000 C 
BRANCH   8   9
ATOM      9  C   UNL     1      55.469  -3.676  14.839  0.00  0.00    +0.000 C 
ATOM     10  C   UNL     1      56.561  -4.339  14.058  0.00  0.00    +0.000 C 
BRANCH   9  12
ATOM     11  C   UNL     1      54.562  -1.332  14.102  0.00  0.00    +0.000 C 
ATOM     12  C   UNL     1      54.978  -2.409  14.436  0.00  0.00    +0.000 C 
BRANCH  11  14
ATOM     13  O   UNL     1      52.607  -0.009  13.823  0.00  0.00    +0.000 OA
ATOM     14  C   UNL     1      54.058  -0.021  13.721  0.00  0.00    +0.000 C 
ATOM     15  C   UNL     1      53.289   0.828  14.756  0.00  0.00    +0.000 C 
ATOM     16  C   UNL     1      54.675   0.713  12.483  0.00  0.00    +0.000 C 
ATOM     17  C   UNL     1      53.121   2.213  14.458  0.00  0.00    +0.000 C 
ATOM     18  C   UNL     1      54.183   2.097  12.501  0.00  0.00    +0.000 C 
ATOM     19  C   UNL     1      53.490   2.988  13.345  0.00  0.00    +0.000 C 
ATOM     20  C   UNL     1      53.099   0.398  16.213  0.00  0.00    +0.000 C 
ATOM     21  C   UNL     1      56.209   0.686  12.693  0.00  0.00    +0.000 C 
ATOM     22  C   UNL     1      54.224  -0.074  11.234  0.00  0.00    +0.000 C 
BRANCH  19  23
ATOM     23  O   UNL     1      52.689   3.980  12.868  0.00  0.00    +0.000 OA
ATOM     24  H   UNL     1      52.515   3.897  11.913  0.00  0.00    +0.000 HD
ENDBRANCH  19  23
ENDBRANCH  11  14
ENDBRANCH   9  12
ENDBRANCH   8   9
ENDBRANCH   6   8
ENDBRANCH   4   7
ENDBRANCH   3   4
ENDBRANCH   2   3
BRANCH   1  25
ATOM     25  C   UNL     1      47.586  -5.902  19.732  0.00  0.00    +0.000 C 
BRANCH  25  26
ATOM     26  C   UNL     1      46.307  -5.802  19.915  0.00  0.00    +0.000 C 
ATOM     27  C   UNL     1      45.511  -7.016  20.291  0.00  0.00    +0.000 C 
BRANCH  26  29
ATOM     28  C   UNL     1      45.129  -3.480  19.672  0.00  0.00    +0.000 C 
ATOM     29  C   UNL     1      45.669  -4.547  19.785  0.00  0.00    +0.000 C 
BRANCH  28  30
ATOM     30  C   UNL     1      44.444  -2.116  19.523  0.00  0.00    +0.000 C 
BRANCH  30  31
ATOM     31  C   UNL     1      43.870  -0.960  19.397  0.00  0.00    +0.000 C 
ATOM     32  C   UNL     1      44.052   0.083  20.457  0.00  0.00    +0.000 C 
BRANCH  31  34
ATOM     33  C   UNL     1      42.471  -0.425  17.248  0.00  0.00    +0.000 C 
ATOM     34  C   UNL     1      43.111  -0.670  18.237  0.00  0.00    +0.000 C 
BRANCH  33  36
ATOM     35  O   UNL     1      42.560   0.485  15.049  0.00  0.00    +0.000 OA
ATOM     36  C   UNL     1      41.700  -0.133  16.048  0.00  0.00    +0.000 C 
ATOM     37  C   UNL     1      42.076  -0.814  14.716  0.00  0.00    +0.000 C 
ATOM     38  C   UNL     1      40.256   0.467  16.189  0.00  0.00    +0.000 C 
ATOM     39  C   UNL     1      41.106  -0.777  13.669  0.00  0.00    +0.000 C 
ATOM     40  C   UNL     1      39.621   0.371  14.872  0.00  0.00    +0.000 C 
ATOM     41  C   UNL     1      39.832  -0.189  13.598  0.00  0.00    +0.000 C 
ATOM     42  C   UNL     1      43.187  -1.858  14.581  0.00  0.00    +0.000 C 
ATOM     43  C   UNL     1      40.441   1.918  16.687  0.00  0.00    +0.000 C 
ATOM     44  C   UNL     1      39.530  -0.431  17.223  0.00  0.00    +0.000 C 
BRANCH  41  45
ATOM     45  O   UNL     1      38.808  -0.733  12.884  0.00  0.00    +0.000 OA
ATOM     46  H   UNL     1      38.630  -1.658  13.134  0.00  0.00    +0.000 HD
ENDBRANCH  41  45
ENDBRANCH  33  36
ENDBRANCH  31  34
ENDBRANCH  30  31
ENDBRANCH  28  30
ENDBRANCH  26  29
ENDBRANCH  25  26
ENDBRANCH   1  25
TORSDOF 16
ENDMDL
