MODEL 1
REMARK VINA RESULT:      -8.1      0.000      0.000
REMARK  Name = 490561_Nocardiopsis.pdbqt.pdb
REMARK  3 active torsions:
REMARK  status: ('A' for Active; 'I' for Inactive)
REMARK    1  A    between atoms: C_7  and  O_32
REMARK    2  A    between atoms: C_7  and  C_35
REMARK    3  A    between atoms: C_35  and  O_36
REMARK                            x       y       z     vdW  Elec       q    Type
REMARK                         _______ _______ _______ _____ _____    ______ ____
ROOT
ATOM      1  O   UNL     1      32.386  18.032  21.761  0.00  0.00    +0.000 OA
ATOM      2  O   UNL     1      39.219  19.834  19.155  0.00  0.00    +0.000 OA
ATOM      3  N   UNL     1      34.036  16.340  21.676  0.00  0.00    +0.000 N 
ATOM      4  N   UNL     1      34.327  19.325  21.809  0.00  0.00    +0.000 N 
ATOM      5  N   UNL     1      39.226  17.520  18.959  0.00  0.00    +0.000 N 
ATOM      6  C   UNL     1      32.784  16.744  22.350  0.00  0.00    +0.000 C 
ATOM      7  C   UNL     1      32.979  17.070  23.893  0.00  0.00    +0.000 C 
ATOM      8  C   UNL     1      33.153  18.982  22.457  0.00  0.00    +0.000 C 
ATOM      9  C   UNL     1      33.275  18.495  23.781  0.00  0.00    +0.000 C 
ATOM     10  C   UNL     1      35.037  17.092  21.115  0.00  0.00    +0.000 A 
ATOM     11  C   UNL     1      35.174  18.480  21.158  0.00  0.00    +0.000 A 
ATOM     12  C   UNL     1      36.108  16.445  20.493  0.00  0.00    +0.000 A 
ATOM     13  C   UNL     1      36.345  18.988  20.584  0.00  0.00    +0.000 A 
ATOM     14  C   UNL     1      31.604  15.767  22.036  0.00  0.00    +0.000 C 
ATOM     15  C   UNL     1      34.561  15.042  21.457  0.00  0.00    +0.000 A 
ATOM     16  C   UNL     1      35.042  20.532  21.698  0.00  0.00    +0.000 A 
ATOM     17  C   UNL     1      35.800  15.090  20.715  0.00  0.00    +0.000 A 
ATOM     18  C   UNL     1      37.277  16.932  19.893  0.00  0.00    +0.000 A 
ATOM     19  C   UNL     1      37.423  18.351  19.937  0.00  0.00    +0.000 A 
ATOM     20  C   UNL     1      36.257  20.354  20.935  0.00  0.00    +0.000 A 
ATOM     21  C   UNL     1      38.503  16.414  19.234  0.00  0.00    +0.000 C 
ATOM     22  C   UNL     1      34.040  13.804  21.868  0.00  0.00    +0.000 A 
ATOM     23  C   UNL     1      38.677  18.754  19.338  0.00  0.00    +0.000 C 
ATOM     24  C   UNL     1      34.692  21.790  22.212  0.00  0.00    +0.000 A 
ATOM     25  C   UNL     1      36.447  13.876  20.407  0.00  0.00    +0.000 A 
ATOM     26  C   UNL     1      37.079  21.481  20.734  0.00  0.00    +0.000 A 
ATOM     27  C   UNL     1      34.716  12.630  21.538  0.00  0.00    +0.000 A 
ATOM     28  C   UNL     1      35.897  12.661  20.814  0.00  0.00    +0.000 A 
ATOM     29  C   UNL     1      35.540  22.871  21.976  0.00  0.00    +0.000 A 
ATOM     30  C   UNL     1      36.713  22.723  21.250  0.00  0.00    +0.000 A 
ATOM     31  H   UNL     1      40.125  17.482  18.503  0.00  0.00    +0.000 HD
ENDROOT
BRANCH   7  32
ATOM     32  O   UNL     1      34.094  16.411  24.513  0.00  0.00    +0.000 OA
ATOM     33  H   UNL     1      34.904  16.901  24.253  0.00  0.00    +0.000 HD
ENDBRANCH   7  32
BRANCH   7  35
ATOM     34  O   UNL     1      31.516  15.741  25.256  0.00  0.00    +0.000 OA
ATOM     35  C   UNL     1      31.701  16.821  24.692  0.00  0.00    +0.000 C 
BRANCH  35  36
ATOM     36  O   UNL     1      30.899  17.928  24.719  0.00  0.00    +0.000 OA
ATOM     37  C   UNL     1      29.549  17.762  24.378  0.00  0.00    +0.000 C 
ENDBRANCH  35  36
ENDBRANCH   7  35
TORSDOF 3
ENDMDL
MODEL 2
REMARK VINA RESULT:      -7.9     22.885     26.352
REMARK  Name = 490561_Nocardiopsis.pdbqt.pdb
REMARK  3 active torsions:
REMARK  status: ('A' for Active; 'I' for Inactive)
REMARK    1  A    between atoms: C_7  and  O_32
REMARK    2  A    between atoms: C_7  and  C_35
REMARK    3  A    between atoms: C_35  and  O_36
REMARK                            x       y       z     vdW  Elec       q    Type
REMARK                         _______ _______ _______ _____ _____    ______ ____
ROOT
ATOM      1  O   UNL     1      51.172   5.891   6.167  0.00  0.00    +0.000 OA
ATOM      2  O   UNL     1      49.254  -0.925   8.734  0.00  0.00    +0.000 OA
ATOM      3  N   UNL     1      51.351   5.476   8.488  0.00  0.00    +0.000 N 
ATOM      4  N   UNL     1      51.372   3.567   6.172  0.00  0.00    +0.000 N 
ATOM      5  N   UNL     1      49.172   0.356  10.669  0.00  0.00    +0.000 N 
ATOM      6  C   UNL     1      51.863   6.324   7.392  0.00  0.00    +0.000 C 
ATOM      7  C   UNL     1      53.401   6.081   7.074  0.00  0.00    +0.000 C 
ATOM      8  C   UNL     1      51.902   4.769   5.737  0.00  0.00    +0.000 C 
ATOM      9  C   UNL     1      53.253   5.028   6.072  0.00  0.00    +0.000 C 
ATOM     10  C   UNL     1      50.870   4.191   8.480  0.00  0.00    +0.000 A 
ATOM     11  C   UNL     1      50.860   3.301   7.405  0.00  0.00    +0.000 A 
ATOM     12  C   UNL     1      50.402   3.631   9.672  0.00  0.00    +0.000 A 
ATOM     13  C   UNL     1      50.396   2.013   7.693  0.00  0.00    +0.000 A 
ATOM     14  C   UNL     1      51.468   7.827   7.576  0.00  0.00    +0.000 C 
ATOM     15  C   UNL     1      51.255   5.757   9.874  0.00  0.00    +0.000 A 
ATOM     16  C   UNL     1      51.283   2.293   5.582  0.00  0.00    +0.000 A 
ATOM     17  C   UNL     1      50.653   4.661  10.597  0.00  0.00    +0.000 A 
ATOM     18  C   UNL     1      49.912   2.355   9.979  0.00  0.00    +0.000 A 
ATOM     19  C   UNL     1      49.904   1.440   8.884  0.00  0.00    +0.000 A 
ATOM     20  C   UNL     1      50.668   1.341   6.481  0.00  0.00    +0.000 A 
ATOM     21  C   UNL     1      49.418   1.592  11.153  0.00  0.00    +0.000 C 
ATOM     22  C   UNL     1      51.665   6.909  10.566  0.00  0.00    +0.000 A 
ATOM     23  C   UNL     1      49.428   0.141   9.307  0.00  0.00    +0.000 C 
ATOM     24  C   UNL     1      51.693   1.907   4.297  0.00  0.00    +0.000 A 
ATOM     25  C   UNL     1      50.477   4.789  11.990  0.00  0.00    +0.000 A 
ATOM     26  C   UNL     1      50.505   0.017   6.026  0.00  0.00    +0.000 A 
ATOM     27  C   UNL     1      51.469   6.990  11.944  0.00  0.00    +0.000 A 
ATOM     28  C   UNL     1      50.879   5.951  12.647  0.00  0.00    +0.000 A 
ATOM     29  C   UNL     1      51.501   0.585   3.898  0.00  0.00    +0.000 A 
ATOM     30  C   UNL     1      50.917  -0.346   4.745  0.00  0.00    +0.000 A 
ATOM     31  H   UNL     1      48.820  -0.394  11.246  0.00  0.00    +0.000 HD
ENDROOT
BRANCH   7  32
ATOM     32  O   UNL     1      54.171   5.572   8.173  0.00  0.00    +0.000 OA
ATOM     33  H   UNL     1      53.708   4.773   8.508  0.00  0.00    +0.000 HD
ENDBRANCH   7  32
BRANCH   7  35
ATOM     34  O   UNL     1      54.630   8.137   7.224  0.00  0.00    +0.000 OA
ATOM     35  C   UNL     1      54.064   7.326   6.489  0.00  0.00    +0.000 C 
BRANCH  35  36
ATOM     36  O   UNL     1      53.978   7.351   5.124  0.00  0.00    +0.000 OA
ATOM     37  C   UNL     1      53.389   8.475   4.529  0.00  0.00    +0.000 C 
ENDBRANCH  35  36
ENDBRANCH   7  35
TORSDOF 3
ENDMDL
MODEL 3
REMARK VINA RESULT:      -7.8      3.192      5.586
REMARK  Name = 490561_Nocardiopsis.pdbqt.pdb
REMARK  3 active torsions:
REMARK  status: ('A' for Active; 'I' for Inactive)
REMARK    1  A    between atoms: C_7  and  O_32
REMARK    2  A    between atoms: C_7  and  C_35
REMARK    3  A    between atoms: C_35  and  O_36
REMARK                            x       y       z     vdW  Elec       q    Type
REMARK                         _______ _______ _______ _____ _____    ______ ____
ROOT
ATOM      1  O   UNL     1      35.236  14.063  22.986  0.00  0.00    +0.000 OA
ATOM      2  O   UNL     1      33.962  19.867  18.358  0.00  0.00    +0.000 OA
ATOM      3  N   UNL     1      33.162  14.162  21.857  0.00  0.00    +0.000 N 
ATOM      4  N   UNL     1      35.807  15.397  21.160  0.00  0.00    +0.000 N 
ATOM      5  N   UNL     1      31.810  19.085  18.750  0.00  0.00    +0.000 N 
ATOM      6  C   UNL     1      34.115  13.240  22.508  0.00  0.00    +0.000 C 
ATOM      7  C   UNL     1      34.792  12.218  21.495  0.00  0.00    +0.000 C 
ATOM      8  C   UNL     1      36.054  14.226  21.854  0.00  0.00    +0.000 C 
ATOM      9  C   UNL     1      35.955  13.018  21.122  0.00  0.00    +0.000 C 
ATOM     10  C   UNL     1      33.364  15.354  21.209  0.00  0.00    +0.000 A 
ATOM     11  C   UNL     1      34.589  15.945  20.894  0.00  0.00    +0.000 A 
ATOM     12  C   UNL     1      32.262  16.057  20.714  0.00  0.00    +0.000 A 
ATOM     13  C   UNL     1      34.514  17.122  20.142  0.00  0.00    +0.000 A 
ATOM     14  C   UNL     1      33.514  12.579  23.792  0.00  0.00    +0.000 C 
ATOM     15  C   UNL     1      31.759  14.038  21.694  0.00  0.00    +0.000 A 
ATOM     16  C   UNL     1      36.641  16.289  20.461  0.00  0.00    +0.000 A 
ATOM     17  C   UNL     1      31.198  15.193  21.031  0.00  0.00    +0.000 A 
ATOM     18  C   UNL     1      32.162  17.246  19.980  0.00  0.00    +0.000 A 
ATOM     19  C   UNL     1      33.411  17.852  19.653  0.00  0.00    +0.000 A 
ATOM     20  C   UNL     1      35.878  17.359  19.859  0.00  0.00    +0.000 A 
ATOM     21  C   UNL     1      31.117  18.099  19.357  0.00  0.00    +0.000 C 
ATOM     22  C   UNL     1      30.922  12.976  22.077  0.00  0.00    +0.000 A 
ATOM     23  C   UNL     1      33.209  19.043  18.857  0.00  0.00    +0.000 C 
ATOM     24  C   UNL     1      38.037  16.237  20.327  0.00  0.00    +0.000 A 
ATOM     25  C   UNL     1      29.808  15.228  20.802  0.00  0.00    +0.000 A 
ATOM     26  C   UNL     1      36.580  18.337  19.127  0.00  0.00    +0.000 A 
ATOM     27  C   UNL     1      29.552  13.058  21.829  0.00  0.00    +0.000 A 
ATOM     28  C   UNL     1      28.999  14.167  21.208  0.00  0.00    +0.000 A 
ATOM     29  C   UNL     1      38.680  17.236  19.597  0.00  0.00    +0.000 A 
ATOM     30  C   UNL     1      37.967  18.270  19.007  0.00  0.00    +0.000 A 
ATOM     31  H   UNL     1      31.361  19.828  18.235  0.00  0.00    +0.000 HD
ENDROOT
BRANCH   7  32
ATOM     32  O   UNL     1      34.023  11.939  20.316  0.00  0.00    +0.000 OA
ATOM     33  H   UNL     1      33.469  11.150  20.509  0.00  0.00    +0.000 HD
ENDBRANCH   7  32
BRANCH   7  35
ATOM     34  O   UNL     1      36.052  10.927  23.078  0.00  0.00    +0.000 OA
ATOM     35  C   UNL     1      35.200  10.919  22.187  0.00  0.00    +0.000 C 
BRANCH  35  36
ATOM     36  O   UNL     1      34.478   9.853  21.728  0.00  0.00    +0.000 OA
ATOM     37  C   UNL     1      33.917   8.989  22.678  0.00  0.00    +0.000 C 
ENDBRANCH  35  36
ENDBRANCH   7  35
TORSDOF 3
ENDMDL
MODEL 4
REMARK VINA RESULT:      -7.8     24.646     28.318
REMARK  Name = 490561_Nocardiopsis.pdbqt.pdb
REMARK  3 active torsions:
REMARK  status: ('A' for Active; 'I' for Inactive)
REMARK    1  A    between atoms: C_7  and  O_32
REMARK    2  A    between atoms: C_7  and  C_35
REMARK    3  A    between atoms: C_35  and  O_36
REMARK                            x       y       z     vdW  Elec       q    Type
REMARK                         _______ _______ _______ _____ _____    ______ ____
ROOT
ATOM      1  O   UNL     1      51.664   0.080   8.882  0.00  0.00    +0.000 OA
ATOM      2  O   UNL     1      51.587  -1.135   1.449  0.00  0.00    +0.000 OA
ATOM      3  N   UNL     1      51.426   1.941   7.444  0.00  0.00    +0.000 N 
ATOM      4  N   UNL     1      50.800  -0.957   6.979  0.00  0.00    +0.000 N 
ATOM      5  N   UNL     1      52.081   1.132   1.559  0.00  0.00    +0.000 N 
ATOM      6  C   UNL     1      51.157   1.459   8.814  0.00  0.00    +0.000 C 
ATOM      7  C   UNL     1      49.607   1.316   9.137  0.00  0.00    +0.000 C 
ATOM      8  C   UNL     1      50.631  -0.696   8.327  0.00  0.00    +0.000 C 
ATOM      9  C   UNL     1      49.420  -0.067   8.707  0.00  0.00    +0.000 C 
ATOM     10  C   UNL     1      51.515   1.264   6.254  0.00  0.00    +0.000 A 
ATOM     11  C   UNL     1      51.242  -0.086   6.030  0.00  0.00    +0.000 A 
ATOM     12  C   UNL     1      51.829   1.970   5.089  0.00  0.00    +0.000 A 
ATOM     13  C   UNL     1      51.320  -0.504   4.697  0.00  0.00    +0.000 A 
ATOM     14  C   UNL     1      51.974   2.249   9.889  0.00  0.00    +0.000 C 
ATOM     15  C   UNL     1      51.632   3.265   6.980  0.00  0.00    +0.000 A 
ATOM     16  C   UNL     1      50.503  -2.074   6.176  0.00  0.00    +0.000 A 
ATOM     17  C   UNL     1      51.908   3.293   5.562  0.00  0.00    +0.000 A 
ATOM     18  C   UNL     1      51.935   1.570   3.751  0.00  0.00    +0.000 A 
ATOM     19  C   UNL     1      51.653   0.192   3.516  0.00  0.00    +0.000 A 
ATOM     20  C   UNL     1      50.837  -1.828   4.791  0.00  0.00    +0.000 A 
ATOM     21  C   UNL     1      52.214   2.164   2.418  0.00  0.00    +0.000 C 
ATOM     22  C   UNL     1      51.589   4.466   7.708  0.00  0.00    +0.000 A 
ATOM     23  C   UNL     1      51.742  -0.115   2.105  0.00  0.00    +0.000 C 
ATOM     24  C   UNL     1      49.969  -3.307   6.580  0.00  0.00    +0.000 A 
ATOM     25  C   UNL     1      52.146   4.539   4.948  0.00  0.00    +0.000 A 
ATOM     26  C   UNL     1      50.599  -2.861   3.863  0.00  0.00    +0.000 A 
ATOM     27  C   UNL     1      51.832   5.674   7.055  0.00  0.00    +0.000 A 
ATOM     28  C   UNL     1      52.113   5.714   5.699  0.00  0.00    +0.000 A 
ATOM     29  C   UNL     1      49.761  -4.296   5.618  0.00  0.00    +0.000 A 
ATOM     30  C   UNL     1      50.070  -4.081   4.283  0.00  0.00    +0.000 A 
ATOM     31  H   UNL     1      52.214   1.232   0.564  0.00  0.00    +0.000 HD
ENDROOT
BRANCH   7  32
ATOM     32  O   UNL     1      48.749   2.164   8.359  0.00  0.00    +0.000 OA
ATOM     33  H   UNL     1      48.622   2.995   8.868  0.00  0.00    +0.000 HD
ENDBRANCH   7  32
BRANCH   7  35
ATOM     34  O   UNL     1      49.003   2.588  11.080  0.00  0.00    +0.000 OA
ATOM     35  C   UNL     1      49.319   1.486  10.627  0.00  0.00    +0.000 C 
BRANCH  35  36
ATOM     36  O   UNL     1      49.408   0.299  11.298  0.00  0.00    +0.000 OA
ATOM     37  C   UNL     1      50.103   0.289  12.515  0.00  0.00    +0.000 C 
ENDBRANCH  35  36
ENDBRANCH   7  35
TORSDOF 3
ENDMDL
MODEL 5
REMARK VINA RESULT:      -7.8     21.870     25.752
REMARK  Name = 490561_Nocardiopsis.pdbqt.pdb
REMARK  3 active torsions:
REMARK  status: ('A' for Active; 'I' for Inactive)
REMARK    1  A    between atoms: C_7  and  O_32
REMARK    2  A    between atoms: C_7  and  C_35
REMARK    3  A    between atoms: C_35  and  O_36
REMARK                            x       y       z     vdW  Elec       q    Type
REMARK                         _______ _______ _______ _____ _____    ______ ____
ROOT
ATOM      1  O   UNL     1      50.252   5.821   9.137  0.00  0.00    +0.000 OA
ATOM      2  O   UNL     1      53.058   3.695   2.479  0.00  0.00    +0.000 OA
ATOM      3  N   UNL     1      50.503   3.509   8.713  0.00  0.00    +0.000 N 
ATOM      4  N   UNL     1      51.914   5.864   7.500  0.00  0.00    +0.000 N 
ATOM      5  N   UNL     1      52.034   1.743   3.213  0.00  0.00    +0.000 N 
ATOM      6  C   UNL     1      50.412   4.514   9.793  0.00  0.00    +0.000 C 
ATOM      7  C   UNL     1      51.756   4.662  10.627  0.00  0.00    +0.000 C 
ATOM      8  C   UNL     1      51.563   6.199   8.796  0.00  0.00    +0.000 C 
ATOM      9  C   UNL     1      52.395   5.705   9.830  0.00  0.00    +0.000 C 
ATOM     10  C   UNL     1      50.974   3.610   7.428  0.00  0.00    +0.000 A 
ATOM     11  C   UNL     1      51.616   4.705   6.850  0.00  0.00    +0.000 A 
ATOM     12  C   UNL     1      50.904   2.496   6.587  0.00  0.00    +0.000 A 
ATOM     13  C   UNL     1      52.083   4.511   5.545  0.00  0.00    +0.000 A 
ATOM     14  C   UNL     1      49.125   4.330  10.662  0.00  0.00    +0.000 C 
ATOM     15  C   UNL     1      50.155   2.135   8.732  0.00  0.00    +0.000 A 
ATOM     16  C   UNL     1      52.714   6.498   6.532  0.00  0.00    +0.000 A 
ATOM     17  C   UNL     1      50.363   1.518   7.441  0.00  0.00    +0.000 A 
ATOM     18  C   UNL     1      51.342   2.285   5.273  0.00  0.00    +0.000 A 
ATOM     19  C   UNL     1      52.003   3.401   4.679  0.00  0.00    +0.000 A 
ATOM     20  C   UNL     1      52.806   5.704   5.327  0.00  0.00    +0.000 A 
ATOM     21  C   UNL     1      51.385   1.197   4.263  0.00  0.00    +0.000 C 
ATOM     22  C   UNL     1      49.671   1.367   9.804  0.00  0.00    +0.000 A 
ATOM     23  C   UNL     1      52.459   3.074   3.345  0.00  0.00    +0.000 C 
ATOM     24  C   UNL     1      53.360   7.740   6.627  0.00  0.00    +0.000 A 
ATOM     25  C   UNL     1      50.054   0.151   7.292  0.00  0.00    +0.000 A 
ATOM     26  C   UNL     1      53.574   6.214   4.261  0.00  0.00    +0.000 A 
ATOM     27  C   UNL     1      49.378   0.018   9.606  0.00  0.00    +0.000 A 
ATOM     28  C   UNL     1      49.559  -0.583   8.370  0.00  0.00    +0.000 A 
ATOM     29  C   UNL     1      54.100   8.197   5.537  0.00  0.00    +0.000 A 
ATOM     30  C   UNL     1      54.207   7.450   4.373  0.00  0.00    +0.000 A 
ATOM     31  H   UNL     1      52.217   1.233   2.361  0.00  0.00    +0.000 HD
ENDROOT
BRANCH   7  32
ATOM     32  O   UNL     1      52.597   3.499  10.630  0.00  0.00    +0.000 OA
ATOM     33  H   UNL     1      52.104   2.784  11.090  0.00  0.00    +0.000 HD
ENDBRANCH   7  32
BRANCH   7  35
ATOM     34  O   UNL     1      51.451   4.320  12.984  0.00  0.00    +0.000 OA
ATOM     35  C   UNL     1      51.489   5.131  12.056  0.00  0.00    +0.000 C 
BRANCH  35  36
ATOM     36  O   UNL     1      51.368   6.491  12.128  0.00  0.00    +0.000 OA
ATOM     37  C   UNL     1      50.878   7.039  13.322  0.00  0.00    +0.000 C 
ENDBRANCH  35  36
ENDBRANCH   7  35
TORSDOF 3
ENDMDL
MODEL 6
REMARK VINA RESULT:      -7.6     24.594     26.670
REMARK  Name = 490561_Nocardiopsis.pdbqt.pdb
REMARK  3 active torsions:
REMARK  status: ('A' for Active; 'I' for Inactive)
REMARK    1  A    between atoms: C_7  and  O_32
REMARK    2  A    between atoms: C_7  and  C_35
REMARK    3  A    between atoms: C_35  and  O_36
REMARK                            x       y       z     vdW  Elec       q    Type
REMARK                         _______ _______ _______ _____ _____    ______ ____
ROOT
ATOM      1  O   UNL     1      50.002   3.572   9.237  0.00  0.00    +0.000 OA
ATOM      2  O   UNL     1      53.226   4.789   2.540  0.00  0.00    +0.000 OA
ATOM      3  N   UNL     1      50.677   1.700   7.961  0.00  0.00    +0.000 N 
ATOM      4  N   UNL     1      51.646   4.540   7.895  0.00  0.00    +0.000 N 
ATOM      5  N   UNL     1      52.569   2.569   2.359  0.00  0.00    +0.000 N 
ATOM      6  C   UNL     1      50.391   2.157   9.337  0.00  0.00    +0.000 C 
ATOM      7  C   UNL     1      51.675   2.175  10.272  0.00  0.00    +0.000 C 
ATOM      8  C   UNL     1      51.225   4.264   9.184  0.00  0.00    +0.000 C 
ATOM      9  C   UNL     1      52.122   3.539  10.006  0.00  0.00    +0.000 C 
ATOM     10  C   UNL     1      51.136   2.384   6.864  0.00  0.00    +0.000 A 
ATOM     11  C   UNL     1      51.574   3.708   6.819  0.00  0.00    +0.000 A 
ATOM     12  C   UNL     1      51.281   1.707   5.650  0.00  0.00    +0.000 A 
ATOM     13  C   UNL     1      52.083   4.133   5.587  0.00  0.00    +0.000 A 
ATOM     14  C   UNL     1      49.149   1.432   9.952  0.00  0.00    +0.000 C 
ATOM     15  C   UNL     1      50.586   0.397   7.408  0.00  0.00    +0.000 A 
ATOM     16  C   UNL     1      52.327   5.631   7.324  0.00  0.00    +0.000 A 
ATOM     17  C   UNL     1      50.919   0.394   6.002  0.00  0.00    +0.000 A 
ATOM     18  C   UNL     1      51.765   2.116   4.401  0.00  0.00    +0.000 A 
ATOM     19  C   UNL     1      52.218   3.469   4.350  0.00  0.00    +0.000 A 
ATOM     20  C   UNL     1      52.578   5.414   5.917  0.00  0.00    +0.000 A 
ATOM     21  C   UNL     1      52.019   1.549   3.052  0.00  0.00    +0.000 C 
ATOM     22  C   UNL     1      50.239  -0.805   8.048  0.00  0.00    +0.000 A 
ATOM     23  C   UNL     1      52.741   3.784   3.039  0.00  0.00    +0.000 C 
ATOM     24  C   UNL     1      52.734   6.817   7.954  0.00  0.00    +0.000 A 
ATOM     25  C   UNL     1      50.867  -0.828   5.302  0.00  0.00    +0.000 A 
ATOM     26  C   UNL     1      53.251   6.427   5.205  0.00  0.00    +0.000 A 
ATOM     27  C   UNL     1      50.201  -1.988   7.311  0.00  0.00    +0.000 A 
ATOM     28  C   UNL     1      50.503  -2.003   5.959  0.00  0.00    +0.000 A 
ATOM     29  C   UNL     1      53.391   7.788   7.198  0.00  0.00    +0.000 A 
ATOM     30  C   UNL     1      53.645   7.600   5.847  0.00  0.00    +0.000 A 
ATOM     31  H   UNL     1      52.852   2.481   1.394  0.00  0.00    +0.000 HD
ENDROOT
BRANCH   7  32
ATOM     32  O   UNL     1      52.715   1.263   9.888  0.00  0.00    +0.000 OA
ATOM     33  H   UNL     1      53.569   1.662  10.162  0.00  0.00    +0.000 HD
ENDBRANCH   7  32
BRANCH   7  35
ATOM     34  O   UNL     1      50.974   2.942  12.437  0.00  0.00    +0.000 OA
ATOM     35  C   UNL     1      51.310   1.979  11.743  0.00  0.00    +0.000 C 
BRANCH  35  36
ATOM     36  O   UNL     1      51.359   0.662  12.105  0.00  0.00    +0.000 OA
ATOM     37  C   UNL     1      50.699   0.286  13.283  0.00  0.00    +0.000 C 
ENDBRANCH  35  36
ENDBRANCH   7  35
TORSDOF 3
ENDMDL
MODEL 7
REMARK VINA RESULT:      -7.5     22.927     24.894
REMARK  Name = 490561_Nocardiopsis.pdbqt.pdb
REMARK  3 active torsions:
REMARK  status: ('A' for Active; 'I' for Inactive)
REMARK    1  A    between atoms: C_7  and  O_32
REMARK    2  A    between atoms: C_7  and  C_35
REMARK    3  A    between atoms: C_35  and  O_36
REMARK                            x       y       z     vdW  Elec       q    Type
REMARK                         _______ _______ _______ _____ _____    ______ ____
ROOT
ATOM      1  O   UNL     1      50.172   2.120  11.619  0.00  0.00    +0.000 OA
ATOM      2  O   UNL     1      54.943   5.509  16.361  0.00  0.00    +0.000 OA
ATOM      3  N   UNL     1      51.089   4.206  10.987  0.00  0.00    +0.000 N 
ATOM      4  N   UNL     1      52.114   2.143  12.911  0.00  0.00    +0.000 N 
ATOM      5  N   UNL     1      54.295   7.270  14.994  0.00  0.00    +0.000 N 
ATOM      6  C   UNL     1      50.491   2.964  10.457  0.00  0.00    +0.000 C 
ATOM      7  C   UNL     1      51.512   2.086   9.612  0.00  0.00    +0.000 C 
ATOM      8  C   UNL     1      51.388   1.488  11.932  0.00  0.00    +0.000 C 
ATOM      9  C   UNL     1      52.043   1.264  10.696  0.00  0.00    +0.000 C 
ATOM     10  C   UNL     1      51.815   4.438  12.128  0.00  0.00    +0.000 A 
ATOM     11  C   UNL     1      52.283   3.489  13.037  0.00  0.00    +0.000 A 
ATOM     12  C   UNL     1      52.232   5.740  12.418  0.00  0.00    +0.000 A 
ATOM     13  C   UNL     1      53.084   3.987  14.071  0.00  0.00    +0.000 A 
ATOM     14  C   UNL     1      49.120   3.224   9.750  0.00  0.00    +0.000 C 
ATOM     15  C   UNL     1      51.102   5.509  10.428  0.00  0.00    +0.000 A 
ATOM     16  C   UNL     1      52.940   1.687  13.956  0.00  0.00    +0.000 A 
ATOM     17  C   UNL     1      51.763   6.453  11.299  0.00  0.00    +0.000 A 
ATOM     18  C   UNL     1      53.012   6.265  13.456  0.00  0.00    +0.000 A 
ATOM     19  C   UNL     1      53.496   5.297  14.386  0.00  0.00    +0.000 A 
ATOM     20  C   UNL     1      53.516   2.792  14.689  0.00  0.00    +0.000 A 
ATOM     21  C   UNL     1      53.570   7.570  13.896  0.00  0.00    +0.000 C 
ATOM     22  C   UNL     1      50.581   5.940   9.196  0.00  0.00    +0.000 A 
ATOM     23  C   UNL     1      54.328   5.925  15.390  0.00  0.00    +0.000 C 
ATOM     24  C   UNL     1      53.212   0.360  14.322  0.00  0.00    +0.000 A 
ATOM     25  C   UNL     1      51.852   7.799  10.889  0.00  0.00    +0.000 A 
ATOM     26  C   UNL     1      54.366   2.491  15.772  0.00  0.00    +0.000 A 
ATOM     27  C   UNL     1      50.692   7.282   8.835  0.00  0.00    +0.000 A 
ATOM     28  C   UNL     1      51.311   8.201   9.668  0.00  0.00    +0.000 A 
ATOM     29  C   UNL     1      54.055   0.122  15.407  0.00  0.00    +0.000 A 
ATOM     30  C   UNL     1      54.623   1.166  16.122  0.00  0.00    +0.000 A 
ATOM     31  H   UNL     1      54.799   7.968  15.519  0.00  0.00    +0.000 HD
ENDROOT
BRANCH   7  32
ATOM     32  O   UNL     1      52.591   2.822   9.016  0.00  0.00    +0.000 OA
ATOM     33  H   UNL     1      52.463   3.767   9.250  0.00  0.00    +0.000 HD
ENDBRANCH   7  32
BRANCH   7  35
ATOM     34  O   UNL     1      50.644   1.665   7.414  0.00  0.00    +0.000 OA
ATOM     35  C   UNL     1      50.799   1.239   8.561  0.00  0.00    +0.000 C 
BRANCH  35  36
ATOM     36  O   UNL     1      50.447   0.013   9.053  0.00  0.00    +0.000 OA
ATOM     37  C   UNL     1      49.097  -0.357   8.974  0.00  0.00    +0.000 C 
ENDBRANCH  35  36
ENDBRANCH   7  35
TORSDOF 3
ENDMDL
MODEL 8
REMARK VINA RESULT:      -7.3     23.193     27.438
REMARK  Name = 490561_Nocardiopsis.pdbqt.pdb
REMARK  3 active torsions:
REMARK  status: ('A' for Active; 'I' for Inactive)
REMARK    1  A    between atoms: C_7  and  O_32
REMARK    2  A    between atoms: C_7  and  C_35
REMARK    3  A    between atoms: C_35  and  O_36
REMARK                            x       y       z     vdW  Elec       q    Type
REMARK                         _______ _______ _______ _____ _____    ______ ____
ROOT
ATOM      1  O   UNL     1      54.124   3.259   5.813  0.00  0.00    +0.000 OA
ATOM      2  O   UNL     1      49.155   4.680  11.292  0.00  0.00    +0.000 OA
ATOM      3  N   UNL     1      52.373   1.710   6.169  0.00  0.00    +0.000 N 
ATOM      4  N   UNL     1      52.545   4.628   6.849  0.00  0.00    +0.000 N 
ATOM      5  N   UNL     1      48.843   2.406  10.941  0.00  0.00    +0.000 N 
ATOM      6  C   UNL     1      53.329   2.208   5.159  0.00  0.00    +0.000 C 
ATOM      7  C   UNL     1      52.628   2.955   3.944  0.00  0.00    +0.000 C 
ATOM      8  C   UNL     1      53.318   4.408   5.723  0.00  0.00    +0.000 C 
ATOM      9  C   UNL     1      52.632   4.310   4.488  0.00  0.00    +0.000 C 
ATOM     10  C   UNL     1      51.791   2.337   7.241  0.00  0.00    +0.000 A 
ATOM     11  C   UNL     1      51.877   3.689   7.575  0.00  0.00    +0.000 A 
ATOM     12  C   UNL     1      50.940   1.609   8.077  0.00  0.00    +0.000 A 
ATOM     13  C   UNL     1      51.106   4.089   8.672  0.00  0.00    +0.000 A 
ATOM     14  C   UNL     1      54.365   1.114   4.737  0.00  0.00    +0.000 C 
ATOM     15  C   UNL     1      51.763   0.435   6.279  0.00  0.00    +0.000 A 
ATOM     16  C   UNL     1      52.132   5.799   7.511  0.00  0.00    +0.000 A 
ATOM     17  C   UNL     1      50.917   0.351   7.448  0.00  0.00    +0.000 A 
ATOM     18  C   UNL     1      50.177   1.982   9.192  0.00  0.00    +0.000 A 
ATOM     19  C   UNL     1      50.259   3.364   9.535  0.00  0.00    +0.000 A 
ATOM     20  C   UNL     1      51.279   5.491   8.638  0.00  0.00    +0.000 A 
ATOM     21  C   UNL     1      49.220   1.377  10.153  0.00  0.00    +0.000 C 
ATOM     22  C   UNL     1      51.883  -0.672   5.422  0.00  0.00    +0.000 A 
ATOM     23  C   UNL     1      49.405   3.662  10.664  0.00  0.00    +0.000 C 
ATOM     24  C   UNL     1      52.465   7.126   7.202  0.00  0.00    +0.000 A 
ATOM     25  C   UNL     1      50.244  -0.860   7.705  0.00  0.00    +0.000 A 
ATOM     26  C   UNL     1      50.788   6.566   9.405  0.00  0.00    +0.000 A 
ATOM     27  C   UNL     1      51.197  -1.849   5.720  0.00  0.00    +0.000 A 
ATOM     28  C   UNL     1      50.394  -1.947   6.845  0.00  0.00    +0.000 A 
ATOM     29  C   UNL     1      51.955   8.150   8.001  0.00  0.00    +0.000 A 
ATOM     30  C   UNL     1      51.132   7.879   9.083  0.00  0.00    +0.000 A 
ATOM     31  H   UNL     1      48.187   2.298  11.699  0.00  0.00    +0.000 HD
ENDROOT
BRANCH   7  32
ATOM     32  O   UNL     1      51.271   2.559   3.695  0.00  0.00    +0.000 OA
ATOM     33  H   UNL     1      51.210   2.306   2.748  0.00  0.00    +0.000 HD
ENDBRANCH   7  32
BRANCH   7  35
ATOM     34  O   UNL     1      54.501   3.503   2.546  0.00  0.00    +0.000 OA
ATOM     35  C   UNL     1      53.455   2.860   2.664  0.00  0.00    +0.000 C 
BRANCH  35  36
ATOM     36  O   UNL     1      52.914   1.973   1.776  0.00  0.00    +0.000 OA
ATOM     37  C   UNL     1      53.793   1.255   0.953  0.00  0.00    +0.000 C 
ENDBRANCH  35  36
ENDBRANCH   7  35
TORSDOF 3
ENDMDL
MODEL 9
REMARK VINA RESULT:      -7.3     22.786     24.494
REMARK  Name = 490561_Nocardiopsis.pdbqt.pdb
REMARK  3 active torsions:
REMARK  status: ('A' for Active; 'I' for Inactive)
REMARK    1  A    between atoms: C_7  and  O_32
REMARK    2  A    between atoms: C_7  and  C_35
REMARK    3  A    between atoms: C_35  and  O_36
REMARK                            x       y       z     vdW  Elec       q    Type
REMARK                         _______ _______ _______ _____ _____    ______ ____
ROOT
ATOM      1  O   UNL     1      55.093   5.872  13.052  0.00  0.00    +0.000 OA
ATOM      2  O   UNL     1      50.455  -0.061  12.944  0.00  0.00    +0.000 OA
ATOM      3  N   UNL     1      53.071   6.051  11.840  0.00  0.00    +0.000 N 
ATOM      4  N   UNL     1      53.804   4.253  14.128  0.00  0.00    +0.000 N 
ATOM      5  N   UNL     1      49.708   1.165  11.118  0.00  0.00    +0.000 N 
ATOM      6  C   UNL     1      54.114   6.838  12.530  0.00  0.00    +0.000 C 
ATOM      7  C   UNL     1      53.582   7.586  13.828  0.00  0.00    +0.000 C 
ATOM      8  C   UNL     1      54.529   5.425  14.259  0.00  0.00    +0.000 C 
ATOM      9  C   UNL     1      53.846   6.537  14.809  0.00  0.00    +0.000 C 
ATOM     10  C   UNL     1      52.615   4.776  12.059  0.00  0.00    +0.000 A 
ATOM     11  C   UNL     1      52.961   3.927  13.110  0.00  0.00    +0.000 A 
ATOM     12  C   UNL     1      51.631   4.250  11.217  0.00  0.00    +0.000 A 
ATOM     13  C   UNL     1      52.274   2.708  13.151  0.00  0.00    +0.000 A 
ATOM     14  C   UNL     1      54.919   7.745  11.542  0.00  0.00    +0.000 C 
ATOM     15  C   UNL     1      52.223   6.427  10.768  0.00  0.00    +0.000 A 
ATOM     16  C   UNL     1      53.623   3.142  14.972  0.00  0.00    +0.000 A 
ATOM     17  C   UNL     1      51.368   5.335  10.361  0.00  0.00    +0.000 A 
ATOM     18  C   UNL     1      50.947   3.028  11.224  0.00  0.00    +0.000 A 
ATOM     19  C   UNL     1      51.295   2.156  12.300  0.00  0.00    +0.000 A 
ATOM     20  C   UNL     1      52.717   2.179  14.384  0.00  0.00    +0.000 A 
ATOM     21  C   UNL     1      49.883   2.330  10.460  0.00  0.00    +0.000 C 
ATOM     22  C   UNL     1      52.131   7.668  10.116  0.00  0.00    +0.000 A 
ATOM     23  C   UNL     1      50.506   0.945  12.251  0.00  0.00    +0.000 C 
ATOM     24  C   UNL     1      54.211   2.905  16.224  0.00  0.00    +0.000 A 
ATOM     25  C   UNL     1      50.469   5.546   9.296  0.00  0.00    +0.000 A 
ATOM     26  C   UNL     1      52.440   1.006  15.113  0.00  0.00    +0.000 A 
ATOM     27  C   UNL     1      51.226   7.827   9.066  0.00  0.00    +0.000 A 
ATOM     28  C   UNL     1      50.411   6.784   8.657  0.00  0.00    +0.000 A 
ATOM     29  C   UNL     1      53.905   1.723  16.897  0.00  0.00    +0.000 A 
ATOM     30  C   UNL     1      53.036   0.788  16.354  0.00  0.00    +0.000 A 
ATOM     31  H   UNL     1      49.037   0.470  10.826  0.00  0.00    +0.000 HD
ENDROOT
BRANCH   7  32
ATOM     32  O   UNL     1      52.175   7.874  13.823  0.00  0.00    +0.000 OA
ATOM     33  H   UNL     1      52.028   8.597  13.175  0.00  0.00    +0.000 HD
ENDBRANCH   7  32
BRANCH   7  35
ATOM     34  O   UNL     1      53.893   9.964  13.928  0.00  0.00    +0.000 OA
ATOM     35  C   UNL     1      54.385   8.850  14.125  0.00  0.00    +0.000 C 
BRANCH  35  36
ATOM     36  O   UNL     1      55.611   8.558  14.653  0.00  0.00    +0.000 OA
ATOM     37  C   UNL     1      56.622   9.521  14.525  0.00  0.00    +0.000 C 
ENDBRANCH  35  36
ENDBRANCH   7  35
TORSDOF 3
ENDMDL
