MODEL 1
REMARK VINA RESULT:      -7.0      0.000      0.000
REMARK  Name = 50922675_Encorafenib.pdbqt.pdb
REMARK  8 active torsions:
REMARK  status: ('A' for Active; 'I' for Inactive)
REMARK    1  A    between atoms: N_1  and  C_37
REMARK    2  A    between atoms: C_3  and  C_23
REMARK    3  A    between atoms: C_4  and  C_8
REMARK    4  A    between atoms: C_11  and  N_14
REMARK    5  A    between atoms: N_14  and  S_16
REMARK    6  A    between atoms: N_20  and  C_28
REMARK    7  A    between atoms: C_28  and  C_29
REMARK    8  A    between atoms: C_33  and  O_35
REMARK                            x       y       z     vdW  Elec       q    Type
REMARK                         _______ _______ _______ _____ _____    ______ ____
ROOT
ATOM      1  N   UNL     1      38.905  -4.860  16.043  0.00  0.00    +0.000 N 
ATOM      2  N   UNL     1      40.209  -5.308  15.981  0.00  0.00    +0.000 NA
ATOM      3  C   UNL     1      40.103  -3.230  15.040  0.00  0.00    +0.000 A 
ATOM      4  C   UNL     1      40.928  -4.328  15.411  0.00  0.00    +0.000 A 
ATOM      5  C   UNL     1      38.847  -3.605  15.453  0.00  0.00    +0.000 A 
ENDROOT
BRANCH   4   8
ATOM      6 CL   UNL     1      44.686  -6.846  12.948  0.00  0.00    +0.000 Cl
ATOM      7  F   UNL     1      42.936  -2.912  16.873  0.00  0.00    +0.000 F 
ATOM      8  C   UNL     1      42.358  -4.527  15.212  0.00  0.00    +0.000 A 
ATOM      9  C   UNL     1      43.310  -3.828  15.965  0.00  0.00    +0.000 A 
ATOM     10  C   UNL     1      42.798  -5.479  14.291  0.00  0.00    +0.000 A 
ATOM     11  C   UNL     1      44.679  -4.057  15.785  0.00  0.00    +0.000 A 
ATOM     12  C   UNL     1      44.158  -5.709  14.116  0.00  0.00    +0.000 A 
ATOM     13  C   UNL     1      45.099  -5.017  14.868  0.00  0.00    +0.000 A 
BRANCH  11  14
ATOM     14  N   UNL     1      45.630  -3.402  16.639  0.00  0.00    +0.000 N 
ATOM     15  H   UNL     1      46.483  -3.119  16.147  0.00  0.00    +0.000 HD
BRANCH  14  16
ATOM     16  S   UNL     1      46.087  -4.183  18.049  0.00  0.00    +0.000 S 
ATOM     17  O   UNL     1      45.302  -5.367  18.273  0.00  0.00    +0.000 OA
ATOM     18  O   UNL     1      47.480  -4.014  18.397  0.00  0.00    +0.000 OA
ATOM     19  C   UNL     1      45.407  -3.210  19.359  0.00  0.00    +0.000 C 
ENDBRANCH  14  16
ENDBRANCH  11  14
ENDBRANCH   4   8
BRANCH   3  23
ATOM     20  N   UNL     1      41.067   1.400  15.510  0.00  0.00    +0.000 N 
ATOM     21  N   UNL     1      40.585  -0.908  15.242  0.00  0.00    +0.000 NA
ATOM     22  N   UNL     1      40.899   0.501  13.374  0.00  0.00    +0.000 NA
ATOM     23  C   UNL     1      40.379  -1.948  14.413  0.00  0.00    +0.000 A 
ATOM     24  C   UNL     1      40.841   0.292  14.693  0.00  0.00    +0.000 A 
ATOM     25  C   UNL     1      40.414  -1.831  13.042  0.00  0.00    +0.000 A 
ATOM     26  C   UNL     1      40.683  -0.566  12.584  0.00  0.00    +0.000 A 
ATOM     27  H   UNL     1      41.004   2.236  14.939  0.00  0.00    +0.000 HD
BRANCH  20  28
ATOM     28  C   UNL     1      40.424   1.398  16.818  0.00  0.00    +0.000 C 
BRANCH  28  29
ATOM     29  C   UNL     1      39.685   1.406  18.028  0.00  0.00    +0.000 C 
ATOM     30  C   UNL     1      39.562   0.116  18.781  0.00  0.00    +0.000 C 
ATOM     31  O   UNL     1      39.648   4.118  17.073  0.00  0.00    +0.000 OA
ATOM     32  N   UNL     1      39.258   2.518  18.672  0.00  0.00    +0.000 N 
ATOM     33  C   UNL     1      39.289   3.805  18.203  0.00  0.00    +0.000 C 
ATOM     34  H   UNL     1      38.916   2.363  19.616  0.00  0.00    +0.000 HD
BRANCH  33  35
ATOM     35  O   UNL     1      38.848   4.666  19.181  0.00  0.00    +0.000 OA
ATOM     36  C   UNL     1      39.657   4.858  20.313  0.00  0.00    +0.000 C 
ENDBRANCH  33  35
ENDBRANCH  28  29
ENDBRANCH  20  28
ENDBRANCH   3  23
BRANCH   1  37
ATOM     37  C   UNL     1      37.779  -5.525  16.590  0.00  0.00    +0.000 C 
ATOM     38  C   UNL     1      36.461  -5.626  15.841  0.00  0.00    +0.000 C 
ATOM     39  C   UNL     1      37.818  -6.195  17.948  0.00  0.00    +0.000 C 
ENDBRANCH   1  37
TORSDOF 8
ENDMDL
MODEL 2
REMARK VINA RESULT:      -6.8      3.445      8.491
REMARK  Name = 50922675_Encorafenib.pdbqt.pdb
REMARK  8 active torsions:
REMARK  status: ('A' for Active; 'I' for Inactive)
REMARK    1  A    between atoms: N_1  and  C_37
REMARK    2  A    between atoms: C_3  and  C_23
REMARK    3  A    between atoms: C_4  and  C_8
REMARK    4  A    between atoms: C_11  and  N_14
REMARK    5  A    between atoms: N_14  and  S_16
REMARK    6  A    between atoms: N_20  and  C_28
REMARK    7  A    between atoms: C_28  and  C_29
REMARK    8  A    between atoms: C_33  and  O_35
REMARK                            x       y       z     vdW  Elec       q    Type
REMARK                         _______ _______ _______ _____ _____    ______ ____
ROOT
ATOM      1  N   UNL     1      39.085  -5.203  16.195  0.00  0.00    +0.000 N 
ATOM      2  N   UNL     1      38.888  -4.049  15.463  0.00  0.00    +0.000 NA
ATOM      3  C   UNL     1      41.116  -4.258  15.914  0.00  0.00    +0.000 A 
ATOM      4  C   UNL     1      40.098  -3.502  15.271  0.00  0.00    +0.000 A 
ATOM      5  C   UNL     1      40.439  -5.312  16.480  0.00  0.00    +0.000 A 
ENDROOT
BRANCH   4   8
ATOM      6 CL   UNL     1      41.803  -1.062  11.067  0.00  0.00    +0.000 Cl
ATOM      7  F   UNL     1      39.033  -1.013  16.193  0.00  0.00    +0.000 F 
ATOM      8  C   UNL     1      40.197  -2.256  14.520  0.00  0.00    +0.000 A 
ATOM      9  C   UNL     1      39.680  -1.053  15.017  0.00  0.00    +0.000 A 
ATOM     10  C   UNL     1      40.875  -2.242  13.299  0.00  0.00    +0.000 A 
ATOM     11  C   UNL     1      39.815   0.139  14.298  0.00  0.00    +0.000 A 
ATOM     12  C   UNL     1      41.012  -1.056  12.587  0.00  0.00    +0.000 A 
ATOM     13  C   UNL     1      40.501   0.136  13.086  0.00  0.00    +0.000 A 
BRANCH  11  14
ATOM     14  N   UNL     1      39.366   1.376  14.874  0.00  0.00    +0.000 N 
ATOM     15  H   UNL     1      39.102   2.074  14.173  0.00  0.00    +0.000 HD
BRANCH  14  16
ATOM     16  S   UNL     1      40.361   2.125  15.995  0.00  0.00    +0.000 S 
ATOM     17  O   UNL     1      41.592   1.402  16.173  0.00  0.00    +0.000 OA
ATOM     18  O   UNL     1      40.207   3.562  16.058  0.00  0.00    +0.000 OA
ATOM     19  C   UNL     1      39.649   1.753  17.570  0.00  0.00    +0.000 C 
ENDBRANCH  14  16
ENDBRANCH  11  14
ENDBRANCH   4   8
BRANCH   3  23
ATOM     20  N   UNL     1      45.437  -5.457  14.337  0.00  0.00    +0.000 N 
ATOM     21  N   UNL     1      43.294  -4.839  15.148  0.00  0.00    +0.000 NA
ATOM     22  N   UNL     1      45.263  -3.921  16.072  0.00  0.00    +0.000 NA
ATOM     23  C   UNL     1      42.560  -4.106  16.005  0.00  0.00    +0.000 A 
ATOM     24  C   UNL     1      44.632  -4.722  15.208  0.00  0.00    +0.000 A 
ATOM     25  C   UNL     1      43.118  -3.257  16.933  0.00  0.00    +0.000 A 
ATOM     26  C   UNL     1      44.489  -3.210  16.911  0.00  0.00    +0.000 A 
ATOM     27  H   UNL     1      46.391  -5.425  14.681  0.00  0.00    +0.000 HD
BRANCH  20  28
ATOM     28  C   UNL     1      44.908  -6.731  13.864  0.00  0.00    +0.000 C 
BRANCH  28  29
ATOM     29  C   UNL     1      44.513  -7.997  13.363  0.00  0.00    +0.000 C 
ATOM     30  C   UNL     1      43.149  -8.500  13.729  0.00  0.00    +0.000 C 
ATOM     31  O   UNL     1      47.142  -7.521  12.300  0.00  0.00    +0.000 OA
ATOM     32  N   UNL     1      45.174  -8.697  12.412  0.00  0.00    +0.000 N 
ATOM     33  C   UNL     1      46.414  -8.422  11.898  0.00  0.00    +0.000 C 
ATOM     34  H   UNL     1      44.663  -9.487  12.027  0.00  0.00    +0.000 HD
BRANCH  33  35
ATOM     35  O   UNL     1      46.707  -9.312  10.890  0.00  0.00    +0.000 OA
ATOM     36  C   UNL     1      46.176 -10.611  10.975  0.00  0.00    +0.000 C 
ENDBRANCH  33  35
ENDBRANCH  28  29
ENDBRANCH  20  28
ENDBRANCH   3  23
BRANCH   1  37
ATOM     37  C   UNL     1      38.113  -6.142  16.621  0.00  0.00    +0.000 C 
ATOM     38  C   UNL     1      38.207  -6.844  17.965  0.00  0.00    +0.000 C 
ATOM     39  C   UNL     1      36.908  -6.498  15.775  0.00  0.00    +0.000 C 
ENDBRANCH   1  37
TORSDOF 8
ENDMDL
MODEL 3
REMARK VINA RESULT:      -6.8      1.715      2.041
REMARK  Name = 50922675_Encorafenib.pdbqt.pdb
REMARK  8 active torsions:
REMARK  status: ('A' for Active; 'I' for Inactive)
REMARK    1  A    between atoms: N_1  and  C_37
REMARK    2  A    between atoms: C_3  and  C_23
REMARK    3  A    between atoms: C_4  and  C_8
REMARK    4  A    between atoms: C_11  and  N_14
REMARK    5  A    between atoms: N_14  and  S_16
REMARK    6  A    between atoms: N_20  and  C_28
REMARK    7  A    between atoms: C_28  and  C_29
REMARK    8  A    between atoms: C_33  and  O_35
REMARK                            x       y       z     vdW  Elec       q    Type
REMARK                         _______ _______ _______ _____ _____    ______ ____
ROOT
ATOM      1  N   UNL     1      38.948  -4.953  16.050  0.00  0.00    +0.000 N 
ATOM      2  N   UNL     1      40.253  -5.391  15.944  0.00  0.00    +0.000 NA
ATOM      3  C   UNL     1      40.126  -3.266  15.120  0.00  0.00    +0.000 A 
ATOM      4  C   UNL     1      40.959  -4.379  15.418  0.00  0.00    +0.000 A 
ATOM      5  C   UNL     1      38.877  -3.668  15.530  0.00  0.00    +0.000 A 
ENDROOT
BRANCH   4   8
ATOM      6 CL   UNL     1      44.691  -6.833  12.852  0.00  0.00    +0.000 Cl
ATOM      7  F   UNL     1      42.983  -2.956  16.852  0.00  0.00    +0.000 F 
ATOM      8  C   UNL     1      42.387  -4.561  15.188  0.00  0.00    +0.000 A 
ATOM      9  C   UNL     1      43.348  -3.859  15.927  0.00  0.00    +0.000 A 
ATOM     10  C   UNL     1      42.817  -5.500  14.248  0.00  0.00    +0.000 A 
ATOM     11  C   UNL     1      44.714  -4.072  15.716  0.00  0.00    +0.000 A 
ATOM     12  C   UNL     1      44.176  -5.713  14.042  0.00  0.00    +0.000 A 
ATOM     13  C   UNL     1      45.125  -5.018  14.781  0.00  0.00    +0.000 A 
BRANCH  11  14
ATOM     14  N   UNL     1      45.677  -3.416  16.556  0.00  0.00    +0.000 N 
ATOM     15  H   UNL     1      46.544  -3.178  16.065  0.00  0.00    +0.000 HD
BRANCH  14  16
ATOM     16  S   UNL     1      46.093  -4.157  18.000  0.00  0.00    +0.000 S 
ATOM     17  O   UNL     1      45.313  -5.344  18.226  0.00  0.00    +0.000 OA
ATOM     18  O   UNL     1      47.471  -3.962  18.391  0.00  0.00    +0.000 OA
ATOM     19  C   UNL     1      45.357  -3.160  19.262  0.00  0.00    +0.000 C 
ENDBRANCH  14  16
ENDBRANCH  11  14
ENDBRANCH   4   8
BRANCH   3  23
ATOM     20  N   UNL     1      41.400   1.262  15.801  0.00  0.00    +0.000 N 
ATOM     21  N   UNL     1      40.759  -0.993  15.428  0.00  0.00    +0.000 NA
ATOM     22  N   UNL     1      40.902   0.550  13.647  0.00  0.00    +0.000 NA
ATOM     23  C   UNL     1      40.387  -1.950  14.559  0.00  0.00    +0.000 A 
ATOM     24  C   UNL     1      41.007   0.236  14.941  0.00  0.00    +0.000 A 
ATOM     25  C   UNL     1      40.248  -1.723  13.209  0.00  0.00    +0.000 A 
ATOM     26  C   UNL     1      40.525  -0.438  12.815  0.00  0.00    +0.000 A 
ATOM     27  H   UNL     1      41.309   2.144  15.309  0.00  0.00    +0.000 HD
BRANCH  20  28
ATOM     28  C   UNL     1      40.935   1.182  17.181  0.00  0.00    +0.000 C 
BRANCH  28  29
ATOM     29  C   UNL     1      40.535   1.222  18.541  0.00  0.00    +0.000 C 
ATOM     30  C   UNL     1      39.085   1.463  18.836  0.00  0.00    +0.000 C 
ATOM     31  O   UNL     1      43.356   0.665  18.573  0.00  0.00    +0.000 OA
ATOM     32  N   UNL     1      41.306   0.852  19.590  0.00  0.00    +0.000 N 
ATOM     33  C   UNL     1      42.644   0.556  19.566  0.00  0.00    +0.000 C 
ATOM     34  H   UNL     1      40.812   0.755  20.473  0.00  0.00    +0.000 HD
BRANCH  33  35
ATOM     35  O   UNL     1      43.050   0.139  20.813  0.00  0.00    +0.000 OA
ATOM     36  C   UNL     1      42.620  -1.119  21.266  0.00  0.00    +0.000 C 
ENDBRANCH  33  35
ENDBRANCH  28  29
ENDBRANCH  20  28
ENDBRANCH   3  23
BRANCH   1  37
ATOM     37  C   UNL     1      37.833  -5.651  16.577  0.00  0.00    +0.000 C 
ATOM     38  C   UNL     1      36.505  -5.719  15.842  0.00  0.00    +0.000 C 
ATOM     39  C   UNL     1      37.894  -6.391  17.898  0.00  0.00    +0.000 C 
ENDBRANCH   1  37
TORSDOF 8
ENDMDL
MODEL 4
REMARK VINA RESULT:      -5.9      3.227      7.220
REMARK  Name = 50922675_Encorafenib.pdbqt.pdb
REMARK  8 active torsions:
REMARK  status: ('A' for Active; 'I' for Inactive)
REMARK    1  A    between atoms: N_1  and  C_37
REMARK    2  A    between atoms: C_3  and  C_23
REMARK    3  A    between atoms: C_4  and  C_8
REMARK    4  A    between atoms: C_11  and  N_14
REMARK    5  A    between atoms: N_14  and  S_16
REMARK    6  A    between atoms: N_20  and  C_28
REMARK    7  A    between atoms: C_28  and  C_29
REMARK    8  A    between atoms: C_33  and  O_35
REMARK                            x       y       z     vdW  Elec       q    Type
REMARK                         _______ _______ _______ _____ _____    ______ ____
ROOT
ATOM      1  N   UNL     1      37.854  -5.031  16.133  0.00  0.00    +0.000 N 
ATOM      2  N   UNL     1      38.007  -3.719  15.733  0.00  0.00    +0.000 NA
ATOM      3  C   UNL     1      39.742  -4.269  17.110  0.00  0.00    +0.000 A 
ATOM      4  C   UNL     1      39.143  -3.273  16.290  0.00  0.00    +0.000 A 
ATOM      5  C   UNL     1      38.904  -5.351  16.984  0.00  0.00    +0.000 A 
ENDROOT
BRANCH   4   8
ATOM      6 CL   UNL     1      40.668   0.270  12.878  0.00  0.00    +0.000 Cl
ATOM      7  F   UNL     1      39.417  -1.305  18.346  0.00  0.00    +0.000 F 
ATOM      8  C   UNL     1      39.560  -1.900  16.038  0.00  0.00    +0.000 A 
ATOM      9  C   UNL     1      39.703  -0.971  17.077  0.00  0.00    +0.000 A 
ATOM     10  C   UNL     1      39.884  -1.508  14.738  0.00  0.00    +0.000 A 
ATOM     11  C   UNL     1      40.137   0.334  16.821  0.00  0.00    +0.000 A 
ATOM     12  C   UNL     1      40.320  -0.212  14.484  0.00  0.00    +0.000 A 
ATOM     13  C   UNL     1      40.464   0.705  15.518  0.00  0.00    +0.000 A 
BRANCH  11  14
ATOM     14  N   UNL     1      40.372   1.236  17.913  0.00  0.00    +0.000 N 
ATOM     15  H   UNL     1      40.737   0.769  18.749  0.00  0.00    +0.000 HD
BRANCH  14  16
ATOM     16  S   UNL     1      39.115   2.235  18.390  0.00  0.00    +0.000 S 
ATOM     17  O   UNL     1      37.846   1.744  17.923  0.00  0.00    +0.000 OA
ATOM     18  O   UNL     1      39.346   2.925  19.640  0.00  0.00    +0.000 OA
ATOM     19  C   UNL     1      39.215   3.646  17.331  0.00  0.00    +0.000 C 
ENDBRANCH  14  16
ENDBRANCH  11  14
ENDBRANCH   4   8
BRANCH   3  23
ATOM     20  N   UNL     1      44.491  -4.314  17.291  0.00  0.00    +0.000 N 
ATOM     21  N   UNL     1      42.119  -4.295  17.234  0.00  0.00    +0.000 NA
ATOM     22  N   UNL     1      43.293  -4.357  19.281  0.00  0.00    +0.000 NA
ATOM     23  C   UNL     1      40.955  -4.299  17.910  0.00  0.00    +0.000 A 
ATOM     24  C   UNL     1      43.259  -4.323  17.945  0.00  0.00    +0.000 A 
ATOM     25  C   UNL     1      40.888  -4.337  19.285  0.00  0.00    +0.000 A 
ATOM     26  C   UNL     1      42.107  -4.363  19.915  0.00  0.00    +0.000 A 
ATOM     27  H   UNL     1      45.209  -4.576  17.957  0.00  0.00    +0.000 HD
BRANCH  20  28
ATOM     28  C   UNL     1      44.533  -4.897  15.955  0.00  0.00    +0.000 C 
BRANCH  28  29
ATOM     29  C   UNL     1      44.555  -5.579  14.712  0.00  0.00    +0.000 C 
ATOM     30  C   UNL     1      45.229  -6.917  14.659  0.00  0.00    +0.000 C 
ATOM     31  O   UNL     1      43.093  -3.147  14.244  0.00  0.00    +0.000 OA
ATOM     32  N   UNL     1      43.837  -5.227  13.620  0.00  0.00    +0.000 N 
ATOM     33  C   UNL     1      43.119  -4.074  13.441  0.00  0.00    +0.000 C 
ATOM     34  H   UNL     1      43.814  -5.922  12.879  0.00  0.00    +0.000 HD
BRANCH  33  35
ATOM     35  O   UNL     1      42.458  -4.120  12.236  0.00  0.00    +0.000 OA
ATOM     36  C   UNL     1      41.354  -3.270  12.049  0.00  0.00    +0.000 C 
ENDBRANCH  33  35
ENDBRANCH  28  29
ENDBRANCH  20  28
ENDBRANCH   3  23
BRANCH   1  37
ATOM     37  C   UNL     1      36.824  -5.938  15.780  0.00  0.00    +0.000 C 
ATOM     38  C   UNL     1      37.018  -7.443  15.845  0.00  0.00    +0.000 C 
ATOM     39  C   UNL     1      35.454  -5.469  15.333  0.00  0.00    +0.000 C 
ENDBRANCH   1  37
TORSDOF 8
ENDMDL
MODEL 5
REMARK VINA RESULT:      -5.7      3.347      5.752
REMARK  Name = 50922675_Encorafenib.pdbqt.pdb
REMARK  8 active torsions:
REMARK  status: ('A' for Active; 'I' for Inactive)
REMARK    1  A    between atoms: N_1  and  C_37
REMARK    2  A    between atoms: C_3  and  C_23
REMARK    3  A    between atoms: C_4  and  C_8
REMARK    4  A    between atoms: C_11  and  N_14
REMARK    5  A    between atoms: N_14  and  S_16
REMARK    6  A    between atoms: N_20  and  C_28
REMARK    7  A    between atoms: C_28  and  C_29
REMARK    8  A    between atoms: C_33  and  O_35
REMARK                            x       y       z     vdW  Elec       q    Type
REMARK                         _______ _______ _______ _____ _____    ______ ____
ROOT
ATOM      1  N   UNL     1      40.041  -5.122  18.784  0.00  0.00    +0.000 N 
ATOM      2  N   UNL     1      40.574  -5.414  17.545  0.00  0.00    +0.000 NA
ATOM      3  C   UNL     1      40.716  -3.162  17.890  0.00  0.00    +0.000 A 
ATOM      4  C   UNL     1      41.001  -4.253  17.024  0.00  0.00    +0.000 A 
ATOM      5  C   UNL     1      40.115  -3.749  18.978  0.00  0.00    +0.000 A 
ENDROOT
BRANCH   4   8
ATOM      6 CL   UNL     1      44.922  -5.746  14.037  0.00  0.00    +0.000 Cl
ATOM      7  F   UNL     1      39.884  -2.910  14.760  0.00  0.00    +0.000 F 
ATOM      8  C   UNL     1      41.616  -4.257  15.702  0.00  0.00    +0.000 A 
ATOM      9  C   UNL     1      41.047  -3.569  14.623  0.00  0.00    +0.000 A 
ATOM     10  C   UNL     1      42.833  -4.913  15.513  0.00  0.00    +0.000 A 
ATOM     11  C   UNL     1      41.669  -3.555  13.370  0.00  0.00    +0.000 A 
ATOM     12  C   UNL     1      43.453  -4.896  14.268  0.00  0.00    +0.000 A 
ATOM     13  C   UNL     1      42.887  -4.208  13.202  0.00  0.00    +0.000 A 
BRANCH  11  14
ATOM     14  N   UNL     1      41.119  -2.759  12.309  0.00  0.00    +0.000 N 
ATOM     15  H   UNL     1      41.239  -3.184  11.384  0.00  0.00    +0.000 HD
BRANCH  14  16
ATOM     16  S   UNL     1      41.595  -1.156  12.202  0.00  0.00    +0.000 S 
ATOM     17  O   UNL     1      42.481  -0.797  13.277  0.00  0.00    +0.000 OA
ATOM     18  O   UNL     1      41.652  -0.642  10.852  0.00  0.00    +0.000 OA
ATOM     19  C   UNL     1      40.195  -0.220  12.741  0.00  0.00    +0.000 C 
ENDBRANCH  14  16
ENDBRANCH  11  14
ENDBRANCH   4   8
BRANCH   3  23
ATOM     20  N   UNL     1      43.560   0.525  18.841  0.00  0.00    +0.000 N 
ATOM     21  N   UNL     1      42.117  -1.294  18.353  0.00  0.00    +0.000 NA
ATOM     22  N   UNL     1      41.564   0.911  17.718  0.00  0.00    +0.000 NA
ATOM     23  C   UNL     1      40.969  -1.732  17.804  0.00  0.00    +0.000 A 
ATOM     24  C   UNL     1      42.380   0.022  18.292  0.00  0.00    +0.000 A 
ATOM     25  C   UNL     1      40.063  -0.895  17.195  0.00  0.00    +0.000 A 
ATOM     26  C   UNL     1      40.426   0.428  17.185  0.00  0.00    +0.000 A 
ATOM     27  H   UNL     1      43.475   1.533  18.913  0.00  0.00    +0.000 HD
BRANCH  20  28
ATOM     28  C   UNL     1      44.131  -0.209  19.964  0.00  0.00    +0.000 C 
BRANCH  28  29
ATOM     29  C   UNL     1      44.803  -0.896  21.007  0.00  0.00    +0.000 C 
ATOM     30  C   UNL     1      44.770  -0.291  22.378  0.00  0.00    +0.000 C 
ATOM     31  O   UNL     1      45.129  -2.525  18.660  0.00  0.00    +0.000 OA
ATOM     32  N   UNL     1      45.290  -2.156  20.920  0.00  0.00    +0.000 N 
ATOM     33  C   UNL     1      45.398  -2.922  19.788  0.00  0.00    +0.000 C 
ATOM     34  H   UNL     1      45.568  -2.571  21.805  0.00  0.00    +0.000 HD
BRANCH  33  35
ATOM     35  O   UNL     1      45.861  -4.175  20.118  0.00  0.00    +0.000 OA
ATOM     36  C   UNL     1      46.161  -4.439  21.465  0.00  0.00    +0.000 C 
ENDBRANCH  33  35
ENDBRANCH  28  29
ENDBRANCH  20  28
ENDBRANCH   3  23
BRANCH   1  37
ATOM     37  C   UNL     1      39.491  -6.021  19.731  0.00  0.00    +0.000 C 
ATOM     38  C   UNL     1      40.114  -6.230  21.100  0.00  0.00    +0.000 C 
ATOM     39  C   UNL     1      38.235  -6.821  19.450  0.00  0.00    +0.000 C 
ENDBRANCH   1  37
TORSDOF 8
ENDMDL
MODEL 6
REMARK VINA RESULT:      -5.7     19.334     24.235
REMARK  Name = 50922675_Encorafenib.pdbqt.pdb
REMARK  8 active torsions:
REMARK  status: ('A' for Active; 'I' for Inactive)
REMARK    1  A    between atoms: N_1  and  C_37
REMARK    2  A    between atoms: C_3  and  C_23
REMARK    3  A    between atoms: C_4  and  C_8
REMARK    4  A    between atoms: C_11  and  N_14
REMARK    5  A    between atoms: N_14  and  S_16
REMARK    6  A    between atoms: N_20  and  C_28
REMARK    7  A    between atoms: C_28  and  C_29
REMARK    8  A    between atoms: C_33  and  O_35
REMARK                            x       y       z     vdW  Elec       q    Type
REMARK                         _______ _______ _______ _____ _____    ______ ____
ROOT
ATOM      1  N   UNL     1      32.988  20.024  18.702  0.00  0.00    +0.000 N 
ATOM      2  N   UNL     1      33.268  21.034  19.601  0.00  0.00    +0.000 NA
ATOM      3  C   UNL     1      35.168  19.817  19.253  0.00  0.00    +0.000 A 
ATOM      4  C   UNL     1      34.570  20.929  19.908  0.00  0.00    +0.000 A 
ATOM      5  C   UNL     1      34.144  19.278  18.511  0.00  0.00    +0.000 A 
ENDROOT
BRANCH   4   8
ATOM      6 CL   UNL     1      35.207  22.381  24.808  0.00  0.00    +0.000 Cl
ATOM      7  F   UNL     1      36.107  23.205  19.111  0.00  0.00    +0.000 F 
ATOM      8  C   UNL     1      35.151  21.878  20.850  0.00  0.00    +0.000 A 
ATOM      9  C   UNL     1      35.880  22.992  20.418  0.00  0.00    +0.000 A 
ATOM     10  C   UNL     1      34.930  21.709  22.218  0.00  0.00    +0.000 A 
ATOM     11  C   UNL     1      36.401  23.911  21.335  0.00  0.00    +0.000 A 
ATOM     12  C   UNL     1      35.445  22.625  23.129  0.00  0.00    +0.000 A 
ATOM     13  C   UNL     1      36.164  23.732  22.695  0.00  0.00    +0.000 A 
BRANCH  11  14
ATOM     14  N   UNL     1      37.057  25.098  20.862  0.00  0.00    +0.000 N 
ATOM     15  H   UNL     1      36.700  25.423  19.959  0.00  0.00    +0.000 HD
BRANCH  14  16
ATOM     16  S   UNL     1      38.730  25.090  20.780  0.00  0.00    +0.000 S 
ATOM     17  O   UNL     1      39.198  25.588  19.514  0.00  0.00    +0.000 OA
ATOM     18  O   UNL     1      39.388  25.271  22.055  0.00  0.00    +0.000 OA
ATOM     19  C   UNL     1      39.175  23.397  20.535  0.00  0.00    +0.000 C 
ENDBRANCH  14  16
ENDBRANCH  11  14
ENDBRANCH   4   8
BRANCH   3  23
ATOM     20  N   UNL     1      38.047  16.051  19.593  0.00  0.00    +0.000 N 
ATOM     21  N   UNL     1      36.637  17.951  19.421  0.00  0.00    +0.000 NA
ATOM     22  N   UNL     1      38.982  18.149  19.244  0.00  0.00    +0.000 NA
ATOM     23  C   UNL     1      36.519  19.280  19.241  0.00  0.00    +0.000 A 
ATOM     24  C   UNL     1      37.873  17.424  19.416  0.00  0.00    +0.000 A 
ATOM     25  C   UNL     1      37.602  20.110  19.060  0.00  0.00    +0.000 A 
ATOM     26  C   UNL     1      38.817  19.473  19.072  0.00  0.00    +0.000 A 
ATOM     27  H   UNL     1      39.026  15.876  19.796  0.00  0.00    +0.000 HD
BRANCH  20  28
ATOM     28  C   UNL     1      37.036  15.352  20.377  0.00  0.00    +0.000 C 
BRANCH  28  29
ATOM     29  C   UNL     1      36.109  14.562  21.103  0.00  0.00    +0.000 C 
ATOM     30  C   UNL     1      36.016  13.105  20.765  0.00  0.00    +0.000 C 
ATOM     31  O   UNL     1      35.910  17.211  22.206  0.00  0.00    +0.000 OA
ATOM     32  N   UNL     1      35.451  14.961  22.216  0.00  0.00    +0.000 N 
ATOM     33  C   UNL     1      35.407  16.228  22.738  0.00  0.00    +0.000 C 
ATOM     34  H   UNL     1      34.975  14.220  22.723  0.00  0.00    +0.000 HD
BRANCH  33  35
ATOM     35  O   UNL     1      34.708  16.217  23.923  0.00  0.00    +0.000 OA
ATOM     36  C   UNL     1      33.999  15.054  24.267  0.00  0.00    +0.000 C 
ENDBRANCH  33  35
ENDBRANCH  28  29
ENDBRANCH  20  28
ENDBRANCH   3  23
BRANCH   1  37
ATOM     37  C   UNL     1      31.755  19.740  18.064  0.00  0.00    +0.000 C 
ATOM     38  C   UNL     1      30.567  20.683  18.151  0.00  0.00    +0.000 C 
ATOM     39  C   UNL     1      31.543  18.489  17.236  0.00  0.00    +0.000 C 
ENDBRANCH   1  37
TORSDOF 8
ENDMDL
MODEL 7
REMARK VINA RESULT:      -5.6      3.289      4.983
REMARK  Name = 50922675_Encorafenib.pdbqt.pdb
REMARK  8 active torsions:
REMARK  status: ('A' for Active; 'I' for Inactive)
REMARK    1  A    between atoms: N_1  and  C_37
REMARK    2  A    between atoms: C_3  and  C_23
REMARK    3  A    between atoms: C_4  and  C_8
REMARK    4  A    between atoms: C_11  and  N_14
REMARK    5  A    between atoms: N_14  and  S_16
REMARK    6  A    between atoms: N_20  and  C_28
REMARK    7  A    between atoms: C_28  and  C_29
REMARK    8  A    between atoms: C_33  and  O_35
REMARK                            x       y       z     vdW  Elec       q    Type
REMARK                         _______ _______ _______ _____ _____    ______ ____
ROOT
ATOM      1  N   UNL     1      44.442  -2.168  19.492  0.00  0.00    +0.000 N 
ATOM      2  N   UNL     1      44.238  -3.399  18.903  0.00  0.00    +0.000 NA
ATOM      3  C   UNL     1      43.326  -1.790  17.566  0.00  0.00    +0.000 A 
ATOM      4  C   UNL     1      43.600  -3.174  17.744  0.00  0.00    +0.000 A 
ATOM      5  C   UNL     1      43.868  -1.197  18.681  0.00  0.00    +0.000 A 
ENDROOT
BRANCH   4   8
ATOM      6 CL   UNL     1      40.254  -6.933  16.649  0.00  0.00    +0.000 Cl
ATOM      7  F   UNL     1      45.256  -4.129  15.617  0.00  0.00    +0.000 F 
ATOM      8  C   UNL     1      43.250  -4.309  16.899  0.00  0.00    +0.000 A 
ATOM      9  C   UNL     1      44.099  -4.759  15.881  0.00  0.00    +0.000 A 
ATOM     10  C   UNL     1      42.066  -5.007  17.143  0.00  0.00    +0.000 A 
ATOM     11  C   UNL     1      43.762  -5.871  15.102  0.00  0.00    +0.000 A 
ATOM     12  C   UNL     1      41.733  -6.115  16.372  0.00  0.00    +0.000 A 
ATOM     13  C   UNL     1      42.581  -6.561  15.365  0.00  0.00    +0.000 A 
BRANCH  11  14
ATOM     14  N   UNL     1      44.695  -6.374  14.133  0.00  0.00    +0.000 N 
ATOM     15  H   UNL     1      44.506  -6.042  13.182  0.00  0.00    +0.000 HD
BRANCH  14  16
ATOM     16  S   UNL     1      44.935  -8.030  14.060  0.00  0.00    +0.000 S 
ATOM     17  O   UNL     1      45.396  -8.552  15.319  0.00  0.00    +0.000 OA
ATOM     18  O   UNL     1      44.068  -8.715  13.127  0.00  0.00    +0.000 OA
ATOM     19  C   UNL     1      46.444  -8.242  13.163  0.00  0.00    +0.000 C 
ENDBRANCH  14  16
ENDBRANCH  11  14
ENDBRANCH   4   8
BRANCH   3  23
ATOM     20  N   UNL     1      40.658   1.923  16.267  0.00  0.00    +0.000 N 
ATOM     21  N   UNL     1      41.991   0.059  16.883  0.00  0.00    +0.000 NA
ATOM     22  N   UNL     1      41.424   0.466  14.628  0.00  0.00    +0.000 NA
ATOM     23  C   UNL     1      42.680  -1.033  16.505  0.00  0.00    +0.000 A 
ATOM     24  C   UNL     1      41.380   0.779  15.926  0.00  0.00    +0.000 A 
ATOM     25  C   UNL     1      42.779  -1.439  15.193  0.00  0.00    +0.000 A 
ATOM     26  C   UNL     1      42.122  -0.636  14.296  0.00  0.00    +0.000 A 
ATOM     27  H   UNL     1      40.086   2.188  15.472  0.00  0.00    +0.000 HD
BRANCH  20  28
ATOM     28  C   UNL     1      40.061   1.955  17.597  0.00  0.00    +0.000 C 
BRANCH  28  29
ATOM     29  C   UNL     1      39.421   1.876  18.860  0.00  0.00    +0.000 C 
ATOM     30  C   UNL     1      39.687   2.971  19.849  0.00  0.00    +0.000 C 
ATOM     31  O   UNL     1      38.503  -0.408  17.374  0.00  0.00    +0.000 OA
ATOM     32  N   UNL     1      38.428   1.013  19.175  0.00  0.00    +0.000 N 
ATOM     33  C   UNL     1      37.987  -0.047  18.426  0.00  0.00    +0.000 C 
ATOM     34  H   UNL     1      37.948   1.211  20.049  0.00  0.00    +0.000 HD
BRANCH  33  35
ATOM     35  O   UNL     1      36.905  -0.633  19.041  0.00  0.00    +0.000 OA
ATOM     36  C   UNL     1      37.106  -1.260  20.283  0.00  0.00    +0.000 C 
ENDBRANCH  33  35
ENDBRANCH  28  29
ENDBRANCH  20  28
ENDBRANCH   3  23
BRANCH   1  37
ATOM     37  C   UNL     1      45.101  -1.883  20.713  0.00  0.00    +0.000 C 
ATOM     38  C   UNL     1      44.707  -0.703  21.585  0.00  0.00    +0.000 C 
ATOM     39  C   UNL     1      46.231  -2.744  21.241  0.00  0.00    +0.000 C 
ENDBRANCH   1  37
TORSDOF 8
ENDMDL
MODEL 8
REMARK VINA RESULT:      -5.5     20.927     23.739
REMARK  Name = 50922675_Encorafenib.pdbqt.pdb
REMARK  8 active torsions:
REMARK  status: ('A' for Active; 'I' for Inactive)
REMARK    1  A    between atoms: N_1  and  C_37
REMARK    2  A    between atoms: C_3  and  C_23
REMARK    3  A    between atoms: C_4  and  C_8
REMARK    4  A    between atoms: C_11  and  N_14
REMARK    5  A    between atoms: N_14  and  S_16
REMARK    6  A    between atoms: N_20  and  C_28
REMARK    7  A    between atoms: C_28  and  C_29
REMARK    8  A    between atoms: C_33  and  O_35
REMARK                            x       y       z     vdW  Elec       q    Type
REMARK                         _______ _______ _______ _____ _____    ______ ____
ROOT
ATOM      1  N   UNL     1      29.909   2.280  -3.486  0.00  0.00    +0.000 N 
ATOM      2  N   UNL     1      30.086   1.302  -2.528  0.00  0.00    +0.000 NA
ATOM      3  C   UNL     1      30.884   0.526  -4.521  0.00  0.00    +0.000 A 
ATOM      4  C   UNL     1      30.691   0.270  -3.135  0.00  0.00    +0.000 A 
ATOM      5  C   UNL     1      30.380   1.792  -4.698  0.00  0.00    +0.000 A 
ENDROOT
BRANCH   4   8
ATOM      6 CL   UNL     1      34.268  -3.042  -1.472  0.00  0.00    +0.000 Cl
ATOM      7  F   UNL     1      28.723  -1.279  -1.756  0.00  0.00    +0.000 F 
ATOM      8  C   UNL     1      31.006  -0.921  -2.355  0.00  0.00    +0.000 A 
ATOM      9  C   UNL     1      30.009  -1.664  -1.711  0.00  0.00    +0.000 A 
ATOM     10  C   UNL     1      32.325  -1.371  -2.292  0.00  0.00    +0.000 A 
ATOM     11  C   UNL     1      30.324  -2.824  -0.996  0.00  0.00    +0.000 A 
ATOM     12  C   UNL     1      32.639  -2.526  -1.583  0.00  0.00    +0.000 A 
ATOM     13  C   UNL     1      31.645  -3.263  -0.950  0.00  0.00    +0.000 A 
BRANCH  11  14
ATOM     14  N   UNL     1      29.274  -3.623  -0.431  0.00  0.00    +0.000 N 
ATOM     15  H   UNL     1      29.524  -4.036   0.472  0.00  0.00    +0.000 HD
BRANCH  14  16
ATOM     16  S   UNL     1      28.610  -4.832  -1.382  0.00  0.00    +0.000 S 
ATOM     17  O   UNL     1      29.163  -4.822  -2.709  0.00  0.00    +0.000 OA
ATOM     18  O   UNL     1      28.198  -6.007  -0.646  0.00  0.00    +0.000 OA
ATOM     19  C   UNL     1      26.994  -4.254  -1.806  0.00  0.00    +0.000 C 
ENDBRANCH  14  16
ENDBRANCH  11  14
ENDBRANCH   4   8
BRANCH   3  23
ATOM     20  N   UNL     1      34.093   0.246  -8.016  0.00  0.00    +0.000 N 
ATOM     21  N   UNL     1      32.479   0.355  -6.279  0.00  0.00    +0.000 NA
ATOM     22  N   UNL     1      32.687  -1.564  -7.637  0.00  0.00    +0.000 NA
ATOM     23  C   UNL     1      31.484  -0.243  -5.599  0.00  0.00    +0.000 A 
ATOM     24  C   UNL     1      33.053  -0.329  -7.284  0.00  0.00    +0.000 A 
ATOM     25  C   UNL     1      31.034  -1.511  -5.891  0.00  0.00    +0.000 A 
ATOM     26  C   UNL     1      31.687  -2.123  -6.931  0.00  0.00    +0.000 A 
ATOM     27  H   UNL     1      34.232  -0.302  -8.858  0.00  0.00    +0.000 HD
BRANCH  20  28
ATOM     28  C   UNL     1      34.101   1.700  -8.121  0.00  0.00    +0.000 C 
BRANCH  28  29
ATOM     29  C   UNL     1      34.158   3.117  -8.103  0.00  0.00    +0.000 C 
ATOM     30  C   UNL     1      32.955   3.872  -8.582  0.00  0.00    +0.000 C 
ATOM     31  O   UNL     1      36.670   2.220  -7.028  0.00  0.00    +0.000 OA
ATOM     32  N   UNL     1      35.121   3.849  -7.496  0.00  0.00    +0.000 N 
ATOM     33  C   UNL     1      36.294   3.385  -6.959  0.00  0.00    +0.000 C 
ATOM     34  H   UNL     1      34.917   4.840  -7.409  0.00  0.00    +0.000 HD
BRANCH  33  35
ATOM     35  O   UNL     1      36.970   4.420  -6.355  0.00  0.00    +0.000 OA
ATOM     36  C   UNL     1      36.868   5.701  -6.923  0.00  0.00    +0.000 C 
ENDBRANCH  33  35
ENDBRANCH  28  29
ENDBRANCH  20  28
ENDBRANCH   3  23
BRANCH   1  37
ATOM     37  C   UNL     1      29.341   3.568  -3.325  0.00  0.00    +0.000 C 
ATOM     38  C   UNL     1      28.414   4.176  -4.364  0.00  0.00    +0.000 C 
ATOM     39  C   UNL     1      29.604   4.419  -2.099  0.00  0.00    +0.000 C 
ENDBRANCH   1  37
TORSDOF 8
ENDMDL
MODEL 9
REMARK VINA RESULT:      -5.5      4.025      7.272
REMARK  Name = 50922675_Encorafenib.pdbqt.pdb
REMARK  8 active torsions:
REMARK  status: ('A' for Active; 'I' for Inactive)
REMARK    1  A    between atoms: N_1  and  C_37
REMARK    2  A    between atoms: C_3  and  C_23
REMARK    3  A    between atoms: C_4  and  C_8
REMARK    4  A    between atoms: C_11  and  N_14
REMARK    5  A    between atoms: N_14  and  S_16
REMARK    6  A    between atoms: N_20  and  C_28
REMARK    7  A    between atoms: C_28  and  C_29
REMARK    8  A    between atoms: C_33  and  O_35
REMARK                            x       y       z     vdW  Elec       q    Type
REMARK                         _______ _______ _______ _____ _____    ______ ____
ROOT
ATOM      1  N   UNL     1      41.057  -1.011  14.595  0.00  0.00    +0.000 N 
ATOM      2  N   UNL     1      40.458  -0.715  15.803  0.00  0.00    +0.000 NA
ATOM      3  C   UNL     1      42.404  -1.839  16.206  0.00  0.00    +0.000 A 
ATOM      4  C   UNL     1      41.272  -1.183  16.762  0.00  0.00    +0.000 A 
ATOM      5  C   UNL     1      42.229  -1.710  14.849  0.00  0.00    +0.000 A 
ENDROOT
BRANCH   4   8
ATOM      6 CL   UNL     1      39.269  -3.263  21.027  0.00  0.00    +0.000 Cl
ATOM      7  F   UNL     1      41.538   1.286  18.181  0.00  0.00    +0.000 F 
ATOM      8  C   UNL     1      40.887  -1.011  18.158  0.00  0.00    +0.000 A 
ATOM      9  C   UNL     1      41.014   0.221  18.811  0.00  0.00    +0.000 A 
ATOM     10  C   UNL     1      40.322  -2.083  18.851  0.00  0.00    +0.000 A 
ATOM     11  C   UNL     1      40.608   0.377  20.140  0.00  0.00    +0.000 A 
ATOM     12  C   UNL     1      39.915  -1.927  20.172  0.00  0.00    +0.000 A 
ATOM     13  C   UNL     1      40.039  -0.701  20.814  0.00  0.00    +0.000 A 
BRANCH  11  14
ATOM     14  N   UNL     1      40.655   1.674  20.755  0.00  0.00    +0.000 N 
ATOM     15  H   UNL     1      40.883   1.639  21.753  0.00  0.00    +0.000 HD
BRANCH  14  16
ATOM     16  S   UNL     1      39.327   2.679  20.568  0.00  0.00    +0.000 S 
ATOM     17  O   UNL     1      39.230   3.179  19.223  0.00  0.00    +0.000 OA
ATOM     18  O   UNL     1      38.214   2.358  21.434  0.00  0.00    +0.000 OA
ATOM     19  C   UNL     1      39.784   4.201  21.342  0.00  0.00    +0.000 C 
ENDBRANCH  14  16
ENDBRANCH  11  14
ENDBRANCH   4   8
BRANCH   3  23
ATOM     20  N   UNL     1      45.237  -2.480  19.969  0.00  0.00    +0.000 N 
ATOM     21  N   UNL     1      43.842  -2.180  18.072  0.00  0.00    +0.000 NA
ATOM     22  N   UNL     1      45.691  -3.646  18.012  0.00  0.00    +0.000 NA
ATOM     23  C   UNL     1      43.560  -2.497  16.795  0.00  0.00    +0.000 A 
ATOM     24  C   UNL     1      44.906  -2.770  18.645  0.00  0.00    +0.000 A 
ATOM     25  C   UNL     1      44.312  -3.385  16.059  0.00  0.00    +0.000 A 
ATOM     26  C   UNL     1      45.373  -3.930  16.736  0.00  0.00    +0.000 A 
ATOM     27  H   UNL     1      46.176  -2.819  20.145  0.00  0.00    +0.000 HD
BRANCH  20  28
ATOM     28  C   UNL     1      44.867  -1.161  20.468  0.00  0.00    +0.000 C 
BRANCH  28  29
ATOM     29  C   UNL     1      44.595   0.105  21.047  0.00  0.00    +0.000 C 
ATOM     30  C   UNL     1      44.225   1.230  20.128  0.00  0.00    +0.000 C 
ATOM     31  O   UNL     1      45.165  -1.655  23.248  0.00  0.00    +0.000 OA
ATOM     32  N   UNL     1      44.433   0.336  22.371  0.00  0.00    +0.000 N 
ATOM     33  C   UNL     1      44.678  -0.539  23.396  0.00  0.00    +0.000 C 
ATOM     34  H   UNL     1      44.054   1.250  22.604  0.00  0.00    +0.000 HD
BRANCH  33  35
ATOM     35  O   UNL     1      44.311   0.033  24.592  0.00  0.00    +0.000 OA
ATOM     36  C   UNL     1      44.922   1.241  24.967  0.00  0.00    +0.000 C 
ENDBRANCH  33  35
ENDBRANCH  28  29
ENDBRANCH  20  28
ENDBRANCH   3  23
BRANCH   1  37
ATOM     37  C   UNL     1      40.598  -0.693  13.292  0.00  0.00    +0.000 C 
ATOM     38  C   UNL     1      39.240  -0.057  13.050  0.00  0.00    +0.000 C 
ATOM     39  C   UNL     1      41.435  -0.950  12.056  0.00  0.00    +0.000 C 
ENDBRANCH   1  37
TORSDOF 8
ENDMDL
