MODEL 1
REMARK VINA RESULT:      -7.2      0.000      0.000
REMARK  Name = 5109870_Ethoxyphenyl.pdbqt.pdb
REMARK  6 active torsions:
REMARK  status: ('A' for Active; 'I' for Inactive)
REMARK    1  A    between atoms: N_2  and  C_22
REMARK    2  A    between atoms: C_3  and  O_11
REMARK    3  A    between atoms: C_3  and  C_13
REMARK    4  A    between atoms: C_16  and  N_19
REMARK    5  A    between atoms: C_25  and  O_28
REMARK    6  A    between atoms: O_28  and  C_29
REMARK                            x       y       z     vdW  Elec       q    Type
REMARK                         _______ _______ _______ _____ _____    ______ ____
ROOT
ATOM      1  N   UNL     1      43.810  -3.926  15.817  0.00  0.00    +0.000 N 
ATOM      2  N   UNL     1      43.981  -5.856  14.401  0.00  0.00    +0.000 N 
ATOM      3  C   UNL     1      44.044  -3.373  14.462  0.00  0.00    +0.000 C 
ATOM      4  C   UNL     1      43.963  -5.412  15.709  0.00  0.00    +0.000 C 
ATOM      5  C   UNL     1      44.005  -4.611  13.680  0.00  0.00    +0.000 C 
ATOM      6  C   UNL     1      44.569  -3.367  16.935  0.00  0.00    +0.000 C 
ATOM      7  C   UNL     1      44.506  -6.167  16.790  0.00  0.00    +0.000 C 
ATOM      8  C   UNL     1      45.377  -3.553  18.231  0.00  0.00    +0.000 C 
ATOM      9  C   UNL     1      45.267  -6.157  18.125  0.00  0.00    +0.000 C 
ATOM     10  C   UNL     1      45.727  -4.899  18.857  0.00  0.00    +0.000 C 
ENDROOT
BRANCH   3  11
ATOM     11  C   UNL     1      42.995  -2.353  14.088  0.00  0.00    +0.000 A 
ATOM     12  C   UNL     1      42.225  -2.488  12.924  0.00  0.00    +0.000 A 
ATOM     13  C   UNL     1      41.229  -1.566  12.608  0.00  0.00    +0.000 A 
ATOM     14  C   UNL     1      40.995  -0.504  13.477  0.00  0.00    +0.000 A 
ATOM     15  C   UNL     1      41.730  -0.349  14.648  0.00  0.00    +0.000 A 
ATOM     16  C   UNL     1      42.721  -1.279  14.949  0.00  0.00    +0.000 A 
BRANCH  14  17
ATOM     17  N   UNL     1      39.962   0.460  13.155  0.00  0.00    +0.000 N 
ATOM     18  O   UNL     1      40.123   1.625  13.544  0.00  0.00    +0.000 OA
ATOM     19  O   UNL     1      38.983   0.061  12.509  0.00  0.00    +0.000 OA
ENDBRANCH  14  17
ENDBRANCH   3  11
BRANCH   2  20
ATOM     20  C   UNL     1      44.323  -7.093  13.833  0.00  0.00    +0.000 A 
ATOM     21  C   UNL     1      43.409  -8.149  13.750  0.00  0.00    +0.000 A 
ATOM     22  C   UNL     1      43.751  -9.366  13.162  0.00  0.00    +0.000 A 
ATOM     23  C   UNL     1      45.025  -9.553  12.631  0.00  0.00    +0.000 A 
ATOM     24  C   UNL     1      45.948  -8.513  12.692  0.00  0.00    +0.000 A 
ATOM     25  C   UNL     1      45.595  -7.300  13.282  0.00  0.00    +0.000 A 
BRANCH  23  26
ATOM     26  O   UNL     1      45.461 -10.708  12.033  0.00  0.00    +0.000 OA
BRANCH  26  27
ATOM     27  C   UNL     1      46.113 -10.533  10.886  0.00  0.00    +0.000 C 
ATOM     28  C   UNL     1      46.879 -10.334   9.573  0.00  0.00    +0.000 C 
ENDBRANCH  26  27
ENDBRANCH  23  26
ENDBRANCH   2  20
BRANCH   3  29
ATOM     29  O   UNL     1      45.337  -2.803  14.307  0.00  0.00    +0.000 OA
ATOM     30  H   UNL     1      45.858  -3.150  15.050  0.00  0.00    +0.000 HD
ENDBRANCH   3  29
TORSDOF 6
ENDMDL
MODEL 2
REMARK VINA RESULT:      -7.1     18.981     22.131
REMARK  Name = 5109870_Ethoxyphenyl.pdbqt.pdb
REMARK  6 active torsions:
REMARK  status: ('A' for Active; 'I' for Inactive)
REMARK    1  A    between atoms: N_2  and  C_22
REMARK    2  A    between atoms: C_3  and  O_11
REMARK    3  A    between atoms: C_3  and  C_13
REMARK    4  A    between atoms: C_16  and  N_19
REMARK    5  A    between atoms: C_25  and  O_28
REMARK    6  A    between atoms: O_28  and  C_29
REMARK                            x       y       z     vdW  Elec       q    Type
REMARK                         _______ _______ _______ _____ _____    ______ ____
ROOT
ATOM      1  N   UNL     1      33.977  14.186  21.123  0.00  0.00    +0.000 N 
ATOM      2  N   UNL     1      35.117  12.419  22.280  0.00  0.00    +0.000 N 
ATOM      3  C   UNL     1      34.928  14.883  22.023  0.00  0.00    +0.000 C 
ATOM      4  C   UNL     1      34.040  12.732  21.474  0.00  0.00    +0.000 C 
ATOM      5  C   UNL     1      35.642  13.727  22.572  0.00  0.00    +0.000 C 
ATOM      6  C   UNL     1      32.604  14.682  21.047  0.00  0.00    +0.000 C 
ATOM      7  C   UNL     1      32.876  11.912  21.388  0.00  0.00    +0.000 C 
ATOM      8  C   UNL     1      31.089  14.425  20.991  0.00  0.00    +0.000 C 
ATOM      9  C   UNL     1      31.347  11.843  21.250  0.00  0.00    +0.000 C 
ATOM     10  C   UNL     1      30.432  13.051  21.071  0.00  0.00    +0.000 C 
ENDROOT
BRANCH   3  11
ATOM     11  C   UNL     1      35.794  15.862  21.266  0.00  0.00    +0.000 A 
ATOM     12  C   UNL     1      35.557  17.243  21.320  0.00  0.00    +0.000 A 
ATOM     13  C   UNL     1      36.386  18.142  20.654  0.00  0.00    +0.000 A 
ATOM     14  C   UNL     1      37.473  17.652  19.937  0.00  0.00    +0.000 A 
ATOM     15  C   UNL     1      37.747  16.289  19.875  0.00  0.00    +0.000 A 
ATOM     16  C   UNL     1      36.908  15.404  20.546  0.00  0.00    +0.000 A 
BRANCH  14  17
ATOM     17  N   UNL     1      38.339  18.582  19.240  0.00  0.00    +0.000 N 
ATOM     18  O   UNL     1      39.563  18.422  19.354  0.00  0.00    +0.000 OA
ATOM     19  O   UNL     1      37.804  19.478  18.572  0.00  0.00    +0.000 OA
ENDBRANCH  14  17
ENDBRANCH   3  11
BRANCH   2  20
ATOM     20  C   UNL     1      35.438  11.269  23.019  0.00  0.00    +0.000 A 
ATOM     21  C   UNL     1      35.465   9.998  22.437  0.00  0.00    +0.000 A 
ATOM     22  C   UNL     1      35.808   8.864  23.173  0.00  0.00    +0.000 A 
ATOM     23  C   UNL     1      36.142   8.980  24.521  0.00  0.00    +0.000 A 
ATOM     24  C   UNL     1      36.132  10.236  25.119  0.00  0.00    +0.000 A 
ATOM     25  C   UNL     1      35.788  11.364  24.373  0.00  0.00    +0.000 A 
BRANCH  23  26
ATOM     26  O   UNL     1      36.493   7.932  25.331  0.00  0.00    +0.000 OA
BRANCH  26  27
ATOM     27  C   UNL     1      37.596   8.125  26.051  0.00  0.00    +0.000 C 
ATOM     28  C   UNL     1      38.875   8.349  26.866  0.00  0.00    +0.000 C 
ENDBRANCH  26  27
ENDBRANCH  23  26
ENDBRANCH   2  20
BRANCH   3  29
ATOM     29  O   UNL     1      34.288  15.551  23.103  0.00  0.00    +0.000 OA
ATOM     30  H   UNL     1      33.345  15.342  23.006  0.00  0.00    +0.000 HD
ENDBRANCH   3  29
TORSDOF 6
ENDMDL
MODEL 3
REMARK VINA RESULT:      -6.9     21.736     24.088
REMARK  Name = 5109870_Ethoxyphenyl.pdbqt.pdb
REMARK  6 active torsions:
REMARK  status: ('A' for Active; 'I' for Inactive)
REMARK    1  A    between atoms: N_2  and  C_22
REMARK    2  A    between atoms: C_3  and  O_11
REMARK    3  A    between atoms: C_3  and  C_13
REMARK    4  A    between atoms: C_16  and  N_19
REMARK    5  A    between atoms: C_25  and  O_28
REMARK    6  A    between atoms: O_28  and  C_29
REMARK                            x       y       z     vdW  Elec       q    Type
REMARK                         _______ _______ _______ _____ _____    ______ ____
ROOT
ATOM      1  N   UNL     1      52.338  16.188  13.445  0.00  0.00    +0.000 N 
ATOM      2  N   UNL     1      51.374  17.440  15.251  0.00  0.00    +0.000 N 
ATOM      3  C   UNL     1      50.896  16.272  13.112  0.00  0.00    +0.000 C 
ATOM      4  C   UNL     1      52.496  16.760  14.820  0.00  0.00    +0.000 C 
ATOM      5  C   UNL     1      50.442  17.148  14.194  0.00  0.00    +0.000 C 
ATOM      6  C   UNL     1      53.009  14.898  13.297  0.00  0.00    +0.000 C 
ATOM      7  C   UNL     1      53.476  16.239  15.715  0.00  0.00    +0.000 C 
ATOM      8  C   UNL     1      53.985  13.829  13.819  0.00  0.00    +0.000 C 
ATOM      9  C   UNL     1      54.462  15.106  16.042  0.00  0.00    +0.000 C 
ATOM     10  C   UNL     1      54.729  13.898  15.148  0.00  0.00    +0.000 C 
ENDROOT
BRANCH   3  11
ATOM     11  C   UNL     1      50.678  16.818  11.720  0.00  0.00    +0.000 A 
ATOM     12  C   UNL     1      51.708  17.453  11.012  0.00  0.00    +0.000 A 
ATOM     13  C   UNL     1      51.511  17.915   9.714  0.00  0.00    +0.000 A 
ATOM     14  C   UNL     1      50.270  17.726   9.113  0.00  0.00    +0.000 A 
ATOM     15  C   UNL     1      49.230  17.086   9.780  0.00  0.00    +0.000 A 
ATOM     16  C   UNL     1      49.444  16.630  11.078  0.00  0.00    +0.000 A 
BRANCH  14  17
ATOM     17  N   UNL     1      50.057  18.205   7.761  0.00  0.00    +0.000 N 
ATOM     18  O   UNL     1      50.915  18.955   7.276  0.00  0.00    +0.000 OA
ATOM     19  O   UNL     1      49.030  17.835   7.174  0.00  0.00    +0.000 OA
ENDBRANCH  14  17
ENDBRANCH   3  11
BRANCH   2  20
ATOM     20  C   UNL     1      50.995  17.926  16.512  0.00  0.00    +0.000 A 
ATOM     21  C   UNL     1      51.836  18.739  17.278  0.00  0.00    +0.000 A 
ATOM     22  C   UNL     1      51.441  19.235  18.520  0.00  0.00    +0.000 A 
ATOM     23  C   UNL     1      50.178  18.932  19.025  0.00  0.00    +0.000 A 
ATOM     24  C   UNL     1      49.319  18.134  18.276  0.00  0.00    +0.000 A 
ATOM     25  C   UNL     1      49.725  17.643  17.035  0.00  0.00    +0.000 A 
BRANCH  23  26
ATOM     26  O   UNL     1      49.694  19.369  20.231  0.00  0.00    +0.000 OA
BRANCH  26  27
ATOM     27  C   UNL     1      49.004  18.462  20.919  0.00  0.00    +0.000 C 
ATOM     28  C   UNL     1      48.202  17.429  21.720  0.00  0.00    +0.000 C 
ENDBRANCH  26  27
ENDBRANCH  23  26
ENDBRANCH   2  20
BRANCH   3  29
ATOM     29  O   UNL     1      50.218  15.030  13.246  0.00  0.00    +0.000 OA
ATOM     30  H   UNL     1      50.150  14.880  14.203  0.00  0.00    +0.000 HD
ENDBRANCH   3  29
TORSDOF 6
ENDMDL
MODEL 4
REMARK VINA RESULT:      -6.7      4.358      6.694
REMARK  Name = 5109870_Ethoxyphenyl.pdbqt.pdb
REMARK  6 active torsions:
REMARK  status: ('A' for Active; 'I' for Inactive)
REMARK    1  A    between atoms: N_2  and  C_22
REMARK    2  A    between atoms: C_3  and  O_11
REMARK    3  A    between atoms: C_3  and  C_13
REMARK    4  A    between atoms: C_16  and  N_19
REMARK    5  A    between atoms: C_25  and  O_28
REMARK    6  A    between atoms: O_28  and  C_29
REMARK                            x       y       z     vdW  Elec       q    Type
REMARK                         _______ _______ _______ _____ _____    ______ ____
ROOT
ATOM      1  N   UNL     1      41.678   0.171  16.435  0.00  0.00    +0.000 N 
ATOM      2  N   UNL     1      42.699  -1.952  15.976  0.00  0.00    +0.000 N 
ATOM      3  C   UNL     1      41.549  -0.587  17.703  0.00  0.00    +0.000 C 
ATOM      4  C   UNL     1      42.217  -0.785  15.416  0.00  0.00    +0.000 C 
ATOM      5  C   UNL     1      42.304  -1.792  17.350  0.00  0.00    +0.000 C 
ATOM      6  C   UNL     1      40.514   0.908  15.947  0.00  0.00    +0.000 C 
ATOM      7  C   UNL     1      41.823  -0.688  14.049  0.00  0.00    +0.000 C 
ATOM      8  C   UNL     1      39.592   1.344  14.796  0.00  0.00    +0.000 C 
ATOM      9  C   UNL     1      40.846  -0.097  13.021  0.00  0.00    +0.000 C 
ATOM     10  C   UNL     1      39.728   0.889  13.346  0.00  0.00    +0.000 C 
ENDROOT
BRANCH   3  11
ATOM     11  C   UNL     1      42.105   0.189  18.874  0.00  0.00    +0.000 A 
ATOM     12  C   UNL     1      43.485   0.301  19.089  0.00  0.00    +0.000 A 
ATOM     13  C   UNL     1      43.990   1.055  20.146  0.00  0.00    +0.000 A 
ATOM     14  C   UNL     1      43.100   1.714  20.989  0.00  0.00    +0.000 A 
ATOM     15  C   UNL     1      41.724   1.637  20.795  0.00  0.00    +0.000 A 
ATOM     16  C   UNL     1      41.236   0.879  19.734  0.00  0.00    +0.000 A 
BRANCH  14  17
ATOM     17  N   UNL     1      43.618   2.499  22.092  0.00  0.00    +0.000 N 
ATOM     18  O   UNL     1      44.238   1.899  22.981  0.00  0.00    +0.000 OA
ATOM     19  O   UNL     1      43.409   3.720  22.078  0.00  0.00    +0.000 OA
ENDBRANCH  14  17
ENDBRANCH   3  11
BRANCH   2  20
ATOM     20  C   UNL     1      43.073  -3.182  15.411  0.00  0.00    +0.000 A 
ATOM     21  C   UNL     1      44.295  -3.355  14.753  0.00  0.00    +0.000 A 
ATOM     22  C   UNL     1      44.668  -4.587  14.216  0.00  0.00    +0.000 A 
ATOM     23  C   UNL     1      43.821  -5.686  14.334  0.00  0.00    +0.000 A 
ATOM     24  C   UNL     1      42.605  -5.541  14.994  0.00  0.00    +0.000 A 
ATOM     25  C   UNL     1      42.242  -4.305  15.528  0.00  0.00    +0.000 A 
BRANCH  23  26
ATOM     26  O   UNL     1      44.092  -6.937  13.843  0.00  0.00    +0.000 OA
BRANCH  26  27
ATOM     27  C   UNL     1      45.300  -7.078  13.303  0.00  0.00    +0.000 C 
ATOM     28  C   UNL     1      46.699  -7.231  12.693  0.00  0.00    +0.000 C 
ENDBRANCH  26  27
ENDBRANCH  23  26
ENDBRANCH   2  20
BRANCH   3  29
ATOM     29  O   UNL     1      40.212  -0.980  17.986  0.00  0.00    +0.000 OA
ATOM     30  H   UNL     1      39.761  -0.165  18.261  0.00  0.00    +0.000 HD
ENDBRANCH   3  29
TORSDOF 6
ENDMDL
MODEL 5
REMARK VINA RESULT:      -6.6      2.010      8.148
REMARK  Name = 5109870_Ethoxyphenyl.pdbqt.pdb
REMARK  6 active torsions:
REMARK  status: ('A' for Active; 'I' for Inactive)
REMARK    1  A    between atoms: N_2  and  C_22
REMARK    2  A    between atoms: C_3  and  O_11
REMARK    3  A    between atoms: C_3  and  C_13
REMARK    4  A    between atoms: C_16  and  N_19
REMARK    5  A    between atoms: C_25  and  O_28
REMARK    6  A    between atoms: O_28  and  C_29
REMARK                            x       y       z     vdW  Elec       q    Type
REMARK                         _______ _______ _______ _____ _____    ______ ____
ROOT
ATOM      1  N   UNL     1      44.689  -5.666  15.147  0.00  0.00    +0.000 N 
ATOM      2  N   UNL     1      43.239  -4.158  13.971  0.00  0.00    +0.000 N 
ATOM      3  C   UNL     1      43.861  -6.542  14.285  0.00  0.00    +0.000 C 
ATOM      4  C   UNL     1      44.128  -4.283  15.021  0.00  0.00    +0.000 C 
ATOM      5  C   UNL     1      43.120  -5.525  13.536  0.00  0.00    +0.000 C 
ATOM      6  C   UNL     1      44.895  -6.058  16.541  0.00  0.00    +0.000 C 
ATOM      7  C   UNL     1      44.144  -3.388  16.131  0.00  0.00    +0.000 C 
ATOM      8  C   UNL     1      44.978  -5.700  18.034  0.00  0.00    +0.000 C 
ATOM      9  C   UNL     1      44.335  -3.203  17.644  0.00  0.00    +0.000 C 
ATOM     10  C   UNL     1      44.727  -4.312  18.616  0.00  0.00    +0.000 C 
ENDROOT
BRANCH   3  11
ATOM     11  C   UNL     1      44.715  -7.456  13.438  0.00  0.00    +0.000 A 
ATOM     12  C   UNL     1      45.964  -7.047  12.950  0.00  0.00    +0.000 A 
ATOM     13  C   UNL     1      46.765  -7.911  12.207  0.00  0.00    +0.000 A 
ATOM     14  C   UNL     1      46.312  -9.204  11.960  0.00  0.00    +0.000 A 
ATOM     15  C   UNL     1      45.084  -9.648  12.442  0.00  0.00    +0.000 A 
ATOM     16  C   UNL     1      44.297  -8.772  13.184  0.00  0.00    +0.000 A 
BRANCH  14  17
ATOM     17  N   UNL     1      47.139 -10.108  11.186  0.00  0.00    +0.000 N 
ATOM     18  O   UNL     1      47.792 -10.961  11.803  0.00  0.00    +0.000 OA
ATOM     19  O   UNL     1      47.141  -9.974   9.954  0.00  0.00    +0.000 OA
ENDBRANCH  14  17
ENDBRANCH   3  11
BRANCH   2  20
ATOM     20  C   UNL     1      42.329  -3.148  13.624  0.00  0.00    +0.000 A 
ATOM     21  C   UNL     1      41.017  -3.133  14.110  0.00  0.00    +0.000 A 
ATOM     22  C   UNL     1      40.127  -2.112  13.778  0.00  0.00    +0.000 A 
ATOM     23  C   UNL     1      40.536  -1.069  12.951  0.00  0.00    +0.000 A 
ATOM     24  C   UNL     1      41.839  -1.056  12.464  0.00  0.00    +0.000 A 
ATOM     25  C   UNL     1      42.721  -2.082  12.802  0.00  0.00    +0.000 A 
BRANCH  23  26
ATOM     26  O   UNL     1      39.741  -0.020  12.565  0.00  0.00    +0.000 OA
BRANCH  26  27
ATOM     27  C   UNL     1      39.587   0.933  13.483  0.00  0.00    +0.000 C 
ATOM     28  C   UNL     1      39.424   2.026  14.545  0.00  0.00    +0.000 C 
ENDBRANCH  26  27
ENDBRANCH  23  26
ENDBRANCH   2  20
BRANCH   3  29
ATOM     29  O   UNL     1      42.918  -7.316  15.016  0.00  0.00    +0.000 OA
ATOM     30  H   UNL     1      43.447  -7.822  15.654  0.00  0.00    +0.000 HD
ENDBRANCH   3  29
TORSDOF 6
ENDMDL
MODEL 6
REMARK VINA RESULT:      -6.4      2.604      8.419
REMARK  Name = 5109870_Ethoxyphenyl.pdbqt.pdb
REMARK  6 active torsions:
REMARK  status: ('A' for Active; 'I' for Inactive)
REMARK    1  A    between atoms: N_2  and  C_22
REMARK    2  A    between atoms: C_3  and  O_11
REMARK    3  A    between atoms: C_3  and  C_13
REMARK    4  A    between atoms: C_16  and  N_19
REMARK    5  A    between atoms: C_25  and  O_28
REMARK    6  A    between atoms: O_28  and  C_29
REMARK                            x       y       z     vdW  Elec       q    Type
REMARK                         _______ _______ _______ _____ _____    ______ ____
ROOT
ATOM      1  N   UNL     1      43.446  -7.154  14.931  0.00  0.00    +0.000 N 
ATOM      2  N   UNL     1      43.029  -5.048  13.859  0.00  0.00    +0.000 N 
ATOM      3  C   UNL     1      43.489  -7.459  13.481  0.00  0.00    +0.000 C 
ATOM      4  C   UNL     1      42.994  -5.732  15.058  0.00  0.00    +0.000 C 
ATOM      5  C   UNL     1      43.353  -6.106  12.938  0.00  0.00    +0.000 C 
ATOM      6  C   UNL     1      42.700  -8.056  15.807  0.00  0.00    +0.000 C 
ATOM      7  C   UNL     1      42.183  -5.323  16.158  0.00  0.00    +0.000 C 
ATOM      8  C   UNL     1      41.730  -8.287  16.979  0.00  0.00    +0.000 C 
ATOM      9  C   UNL     1      41.295  -5.741  17.340  0.00  0.00    +0.000 C 
ATOM     10  C   UNL     1      41.033  -7.183  17.766  0.00  0.00    +0.000 C 
ENDROOT
BRANCH   3  11
ATOM     11  C   UNL     1      44.767  -8.170  13.100  0.00  0.00    +0.000 A 
ATOM     12  C   UNL     1      44.859  -9.569  13.113  0.00  0.00    +0.000 A 
ATOM     13  C   UNL     1      46.026 -10.217  12.719  0.00  0.00    +0.000 A 
ATOM     14  C   UNL     1      47.110  -9.453  12.295  0.00  0.00    +0.000 A 
ATOM     15  C   UNL     1      47.049  -8.064  12.255  0.00  0.00    +0.000 A 
ATOM     16  C   UNL     1      45.874  -7.432  12.652  0.00  0.00    +0.000 A 
BRANCH  14  17
ATOM     17  N   UNL     1      48.330 -10.121  11.885  0.00  0.00    +0.000 N 
ATOM     18  O   UNL     1      48.509 -11.282  12.277  0.00  0.00    +0.000 OA
ATOM     19  O   UNL     1      49.118  -9.490  11.166  0.00  0.00    +0.000 OA
ENDBRANCH  14  17
ENDBRANCH   3  11
BRANCH   2  20
ATOM     20  C   UNL     1      42.500  -3.809  13.467  0.00  0.00    +0.000 A 
ATOM     21  C   UNL     1      42.885  -2.610  14.077  0.00  0.00    +0.000 A 
ATOM     22  C   UNL     1      42.370  -1.382  13.664  0.00  0.00    +0.000 A 
ATOM     23  C   UNL     1      41.455  -1.323  12.615  0.00  0.00    +0.000 A 
ATOM     24  C   UNL     1      41.066  -2.501  11.985  0.00  0.00    +0.000 A 
ATOM     25  C   UNL     1      41.587  -3.725  12.406  0.00  0.00    +0.000 A 
BRANCH  23  26
ATOM     26  O   UNL     1      40.891  -0.170  12.134  0.00  0.00    +0.000 OA
BRANCH  26  27
ATOM     27  C   UNL     1      40.225   0.547  13.036  0.00  0.00    +0.000 C 
ATOM     28  C   UNL     1      39.473   1.380  14.080  0.00  0.00    +0.000 C 
ENDBRANCH  26  27
ENDBRANCH  23  26
ENDBRANCH   2  20
BRANCH   3  29
ATOM     29  O   UNL     1      42.373  -8.220  13.036  0.00  0.00    +0.000 OA
ATOM     30  H   UNL     1      42.436  -9.064  13.511  0.00  0.00    +0.000 HD
ENDBRANCH   3  29
TORSDOF 6
ENDMDL
MODEL 7
REMARK VINA RESULT:      -6.2      3.365      5.493
REMARK  Name = 5109870_Ethoxyphenyl.pdbqt.pdb
REMARK  6 active torsions:
REMARK  status: ('A' for Active; 'I' for Inactive)
REMARK    1  A    between atoms: N_2  and  C_22
REMARK    2  A    between atoms: C_3  and  O_11
REMARK    3  A    between atoms: C_3  and  C_13
REMARK    4  A    between atoms: C_16  and  N_19
REMARK    5  A    between atoms: C_25  and  O_28
REMARK    6  A    between atoms: O_28  and  C_29
REMARK                            x       y       z     vdW  Elec       q    Type
REMARK                         _______ _______ _______ _____ _____    ______ ____
ROOT
ATOM      1  N   UNL     1      42.716  -1.410  15.377  0.00  0.00    +0.000 N 
ATOM      2  N   UNL     1      43.592  -3.615  15.017  0.00  0.00    +0.000 N 
ATOM      3  C   UNL     1      42.417  -2.139  16.633  0.00  0.00    +0.000 C 
ATOM      4  C   UNL     1      43.259  -2.419  14.413  0.00  0.00    +0.000 C 
ATOM      5  C   UNL     1      43.096  -3.406  16.352  0.00  0.00    +0.000 C 
ATOM      6  C   UNL     1      41.664  -0.585  14.787  0.00  0.00    +0.000 C 
ATOM      7  C   UNL     1      42.992  -2.306  13.017  0.00  0.00    +0.000 C 
ATOM      8  C   UNL     1      40.882  -0.088  13.558  0.00  0.00    +0.000 C 
ATOM      9  C   UNL     1      42.159  -1.649  11.905  0.00  0.00    +0.000 C 
ATOM     10  C   UNL     1      41.103  -0.570  12.128  0.00  0.00    +0.000 C 
ENDROOT
BRANCH   3  11
ATOM     11  C   UNL     1      42.932  -1.398  17.843  0.00  0.00    +0.000 A 
ATOM     12  C   UNL     1      42.476  -0.111  18.163  0.00  0.00    +0.000 A 
ATOM     13  C   UNL     1      42.924   0.549  19.305  0.00  0.00    +0.000 A 
ATOM     14  C   UNL     1      43.831  -0.095  20.142  0.00  0.00    +0.000 A 
ATOM     15  C   UNL     1      44.292  -1.378  19.864  0.00  0.00    +0.000 A 
ATOM     16  C   UNL     1      43.834  -2.023  18.719  0.00  0.00    +0.000 A 
BRANCH  14  17
ATOM     17  N   UNL     1      44.303   0.586  21.332  0.00  0.00    +0.000 N 
ATOM     18  O   UNL     1      43.826   1.701  21.582  0.00  0.00    +0.000 OA
ATOM     19  O   UNL     1      45.154   0.010  22.025  0.00  0.00    +0.000 OA
ENDBRANCH  14  17
ENDBRANCH   3  11
BRANCH   2  20
ATOM     20  C   UNL     1      43.910  -4.878  14.493  0.00  0.00    +0.000 A 
ATOM     21  C   UNL     1      42.944  -5.875  14.324  0.00  0.00    +0.000 A 
ATOM     22  C   UNL     1      43.265  -7.119  13.781  0.00  0.00    +0.000 A 
ATOM     23  C   UNL     1      44.572  -7.392  13.383  0.00  0.00    +0.000 A 
ATOM     24  C   UNL     1      45.548  -6.411  13.531  0.00  0.00    +0.000 A 
ATOM     25  C   UNL     1      45.216  -5.171  14.075  0.00  0.00    +0.000 A 
BRANCH  23  26
ATOM     26  O   UNL     1      44.991  -8.578  12.838  0.00  0.00    +0.000 OA
BRANCH  26  27
ATOM     27  C   UNL     1      46.072  -8.490  12.067  0.00  0.00    +0.000 C 
ATOM     28  C   UNL     1      47.324  -8.403  11.186  0.00  0.00    +0.000 C 
ENDBRANCH  26  27
ENDBRANCH  23  26
ENDBRANCH   2  20
BRANCH   3  29
ATOM     29  O   UNL     1      41.032  -2.417  16.801  0.00  0.00    +0.000 OA
ATOM     30  H   UNL     1      40.788  -2.961  16.034  0.00  0.00    +0.000 HD
ENDBRANCH   3  29
TORSDOF 6
ENDMDL
MODEL 8
REMARK VINA RESULT:      -6.1     23.383     25.505
REMARK  Name = 5109870_Ethoxyphenyl.pdbqt.pdb
REMARK  6 active torsions:
REMARK  status: ('A' for Active; 'I' for Inactive)
REMARK    1  A    between atoms: N_2  and  C_22
REMARK    2  A    between atoms: C_3  and  O_11
REMARK    3  A    between atoms: C_3  and  C_13
REMARK    4  A    between atoms: C_16  and  N_19
REMARK    5  A    between atoms: C_25  and  O_28
REMARK    6  A    between atoms: O_28  and  C_29
REMARK                            x       y       z     vdW  Elec       q    Type
REMARK                         _______ _______ _______ _____ _____    ______ ____
ROOT
ATOM      1  N   UNL     1      42.356  -1.217 -10.236  0.00  0.00    +0.000 N 
ATOM      2  N   UNL     1      40.946   0.385  -9.138  0.00  0.00    +0.000 N 
ATOM      3  C   UNL     1      42.934   0.099 -10.599  0.00  0.00    +0.000 C 
ATOM      4  C   UNL     1      41.076  -0.939  -9.510  0.00  0.00    +0.000 C 
ATOM      5  C   UNL     1      42.087   0.975  -9.787  0.00  0.00    +0.000 C 
ATOM      6  C   UNL     1      42.193  -2.218 -11.289  0.00  0.00    +0.000 C 
ATOM      7  C   UNL     1      39.962  -1.819  -9.639  0.00  0.00    +0.000 C 
ATOM      8  C   UNL     1      41.362  -3.313 -11.979  0.00  0.00    +0.000 C 
ATOM      9  C   UNL     1      39.308  -2.980 -10.406  0.00  0.00    +0.000 C 
ATOM     10  C   UNL     1      39.953  -3.728 -11.570  0.00  0.00    +0.000 C 
ENDROOT
BRANCH   3  11
ATOM     11  C   UNL     1      44.408   0.167 -10.279  0.00  0.00    +0.000 A 
ATOM     12  C   UNL     1      45.283   0.974 -11.021  0.00  0.00    +0.000 A 
ATOM     13  C   UNL     1      46.633   1.065 -10.691  0.00  0.00    +0.000 A 
ATOM     14  C   UNL     1      47.109   0.347  -9.598  0.00  0.00    +0.000 A 
ATOM     15  C   UNL     1      46.266  -0.451  -8.831  0.00  0.00    +0.000 A 
ATOM     16  C   UNL     1      44.919  -0.530  -9.173  0.00  0.00    +0.000 A 
BRANCH  14  17
ATOM     17  N   UNL     1      48.513   0.435  -9.250  0.00  0.00    +0.000 N 
ATOM     18  O   UNL     1      48.994  -0.481  -8.567  0.00  0.00    +0.000 OA
ATOM     19  O   UNL     1      49.147   1.419  -9.657  0.00  0.00    +0.000 OA
ENDBRANCH  14  17
ENDBRANCH   3  11
BRANCH   2  20
ATOM     20  C   UNL     1      39.853   1.124  -8.659  0.00  0.00    +0.000 A 
ATOM     21  C   UNL     1      39.906   1.828  -7.452  0.00  0.00    +0.000 A 
ATOM     22  C   UNL     1      38.822   2.579  -6.996  0.00  0.00    +0.000 A 
ATOM     23  C   UNL     1      37.653   2.649  -7.750  0.00  0.00    +0.000 A 
ATOM     24  C   UNL     1      37.581   1.966  -8.960  0.00  0.00    +0.000 A 
ATOM     25  C   UNL     1      38.670   1.218  -9.407  0.00  0.00    +0.000 A 
BRANCH  23  26
ATOM     26  O   UNL     1      36.535   3.357  -7.393  0.00  0.00    +0.000 OA
BRANCH  26  27
ATOM     27  C   UNL     1      35.559   2.630  -6.853  0.00  0.00    +0.000 C 
ATOM     28  C   UNL     1      34.439   1.780  -6.243  0.00  0.00    +0.000 C 
ENDBRANCH  26  27
ENDBRANCH  23  26
ENDBRANCH   2  20
BRANCH   3  29
ATOM     29  O   UNL     1      42.729   0.442 -11.964  0.00  0.00    +0.000 OA
ATOM     30  H   UNL     1      42.399  -0.371 -12.383  0.00  0.00    +0.000 HD
ENDBRANCH   3  29
TORSDOF 6
ENDMDL
MODEL 9
REMARK VINA RESULT:      -6.0     20.893     25.863
REMARK  Name = 5109870_Ethoxyphenyl.pdbqt.pdb
REMARK  6 active torsions:
REMARK  status: ('A' for Active; 'I' for Inactive)
REMARK    1  A    between atoms: N_2  and  C_22
REMARK    2  A    between atoms: C_3  and  O_11
REMARK    3  A    between atoms: C_3  and  C_13
REMARK    4  A    between atoms: C_16  and  N_19
REMARK    5  A    between atoms: C_25  and  O_28
REMARK    6  A    between atoms: O_28  and  C_29
REMARK                            x       y       z     vdW  Elec       q    Type
REMARK                         _______ _______ _______ _____ _____    ______ ____
ROOT
ATOM      1  N   UNL     1      34.693  19.698  19.490  0.00  0.00    +0.000 N 
ATOM      2  N   UNL     1      35.368  17.473  20.084  0.00  0.00    +0.000 N 
ATOM      3  C   UNL     1      35.345  19.848  20.813  0.00  0.00    +0.000 C 
ATOM      4  C   UNL     1      34.599  18.228  19.219  0.00  0.00    +0.000 C 
ATOM      5  C   UNL     1      35.819  18.477  21.012  0.00  0.00    +0.000 C 
ATOM      6  C   UNL     1      33.425  20.389  19.259  0.00  0.00    +0.000 C 
ATOM      7  C   UNL     1      33.492  17.691  18.499  0.00  0.00    +0.000 C 
ATOM      8  C   UNL     1      31.992  20.406  18.701  0.00  0.00    +0.000 C 
ATOM      9  C   UNL     1      32.077  17.912  17.943  0.00  0.00    +0.000 C 
ATOM     10  C   UNL     1      31.299  19.222  18.035  0.00  0.00    +0.000 C 
ENDROOT
BRANCH   3  11
ATOM     11  C   UNL     1      36.431  20.897  20.782  0.00  0.00    +0.000 A 
ATOM     12  C   UNL     1      36.292  22.115  21.462  0.00  0.00    +0.000 A 
ATOM     13  C   UNL     1      37.315  23.059  21.465  0.00  0.00    +0.000 A 
ATOM     14  C   UNL     1      38.498  22.772  20.789  0.00  0.00    +0.000 A 
ATOM     15  C   UNL     1      38.676  21.567  20.117  0.00  0.00    +0.000 A 
ATOM     16  C   UNL     1      37.643  20.634  20.124  0.00  0.00    +0.000 A 
BRANCH  14  17
ATOM     17  N   UNL     1      39.567  23.751  20.786  0.00  0.00    +0.000 N 
ATOM     18  O   UNL     1      40.236  23.867  19.749  0.00  0.00    +0.000 OA
ATOM     19  O   UNL     1      39.746  24.412  21.818  0.00  0.00    +0.000 OA
ENDBRANCH  14  17
ENDBRANCH   3  11
BRANCH   2  20
ATOM     20  C   UNL     1      35.411  16.095  20.345  0.00  0.00    +0.000 A 
ATOM     21  C   UNL     1      34.249  15.335  20.516  0.00  0.00    +0.000 A 
ATOM     22  C   UNL     1      34.302  13.961  20.752  0.00  0.00    +0.000 A 
ATOM     23  C   UNL     1      35.531  13.310  20.815  0.00  0.00    +0.000 A 
ATOM     24  C   UNL     1      36.701  14.042  20.637  0.00  0.00    +0.000 A 
ATOM     25  C   UNL     1      36.636  15.416  20.401  0.00  0.00    +0.000 A 
BRANCH  23  26
ATOM     26  O   UNL     1      35.693  11.967  21.041  0.00  0.00    +0.000 OA
BRANCH  26  27
ATOM     27  C   UNL     1      35.717  11.613  22.324  0.00  0.00    +0.000 C 
ATOM     28  C   UNL     1      35.755  11.218  23.805  0.00  0.00    +0.000 C 
ENDBRANCH  26  27
ENDBRANCH  23  26
ENDBRANCH   2  20
BRANCH   3  29
ATOM     29  O   UNL     1      34.427  20.145  21.857  0.00  0.00    +0.000 OA
ATOM     30  H   UNL     1      34.922  19.995  22.680  0.00  0.00    +0.000 HD
ENDBRANCH   3  29
TORSDOF 6
ENDMDL
