MODEL 1
REMARK VINA RESULT:      -7.7      0.000      0.000
REMARK  Name = 5280445_Luteolin.pdbqt.pdb
REMARK  5 active torsions:
REMARK  status: ('A' for Active; 'I' for Inactive)
REMARK    1  A    between atoms: C_5  and  C_12
REMARK    2  A    between atoms: C_8  and  O_22
REMARK    3  A    between atoms: C_10  and  O_24
REMARK    4  A    between atoms: C_15  and  O_18
REMARK    5  A    between atoms: C_17  and  O_20
REMARK                            x       y       z     vdW  Elec       q    Type
REMARK                         _______ _______ _______ _____ _____    ______ ____
ROOT
ATOM      1  O   UNL     1      41.345   0.245  15.698  0.00  0.00    +0.000 OA
ATOM      2  O   UNL     1      38.829   0.109  12.448  0.00  0.00    +0.000 OA
ATOM      3  C   UNL     1      40.828  -0.738  13.471  0.00  0.00    +0.000 A 
ATOM      4  C   UNL     1      41.629  -0.615  14.634  0.00  0.00    +0.000 A 
ATOM      5  C   UNL     1      40.200   1.049  15.632  0.00  0.00    +0.000 A 
ATOM      6  C   UNL     1      39.616   0.097  13.376  0.00  0.00    +0.000 A 
ATOM      7  C   UNL     1      39.517   0.889  14.549  0.00  0.00    +0.000 A 
ATOM      8  C   UNL     1      41.183  -1.623  12.454  0.00  0.00    +0.000 A 
ATOM      9  C   UNL     1      42.779  -1.387  14.760  0.00  0.00    +0.000 A 
ATOM     10  C   UNL     1      43.121  -2.267  13.735  0.00  0.00    +0.000 A 
ATOM     11  C   UNL     1      42.336  -2.391  12.587  0.00  0.00    +0.000 A 
ENDROOT
BRANCH   5  12
ATOM     12  C   UNL     1      39.907   1.945  16.743  0.00  0.00    +0.000 A 
ATOM     13  C   UNL     1      39.959   1.479  18.060  0.00  0.00    +0.000 A 
ATOM     14  C   UNL     1      39.570   3.285  16.512  0.00  0.00    +0.000 A 
ATOM     15  C   UNL     1      39.677   2.341  19.112  0.00  0.00    +0.000 A 
ATOM     16  C   UNL     1      39.287   4.151  17.569  0.00  0.00    +0.000 A 
ATOM     17  C   UNL     1      39.344   3.668  18.869  0.00  0.00    +0.000 A 
BRANCH  15  18
ATOM     18  O   UNL     1      39.732   1.873  20.394  0.00  0.00    +0.000 OA
ATOM     19  H   UNL     1      40.684   1.857  20.619  0.00  0.00    +0.000 HD
ENDBRANCH  15  18
BRANCH  17  20
ATOM     20  O   UNL     1      39.075   4.477  19.940  0.00  0.00    +0.000 OA
ATOM     21  H   UNL     1      38.124   4.689  19.919  0.00  0.00    +0.000 HD
ENDBRANCH  17  20
ENDBRANCH   5  12
BRANCH   8  22
ATOM     22  O   UNL     1      40.453  -1.785  11.310  0.00  0.00    +0.000 OA
ATOM     23  H   UNL     1      39.786  -2.494  11.443  0.00  0.00    +0.000 HD
ENDBRANCH   8  22
BRANCH  10  24
ATOM     24  O   UNL     1      44.255  -3.014  13.879  0.00  0.00    +0.000 OA
ATOM     25  H   UNL     1      44.511  -3.002  14.819  0.00  0.00    +0.000 HD
ENDBRANCH  10  24
TORSDOF 5
ENDMDL
MODEL 2
REMARK VINA RESULT:      -6.5     11.176     13.960
REMARK  Name = 5280445_Luteolin.pdbqt.pdb
REMARK  5 active torsions:
REMARK  status: ('A' for Active; 'I' for Inactive)
REMARK    1  A    between atoms: C_5  and  C_12
REMARK    2  A    between atoms: C_8  and  O_22
REMARK    3  A    between atoms: C_10  and  O_24
REMARK    4  A    between atoms: C_15  and  O_18
REMARK    5  A    between atoms: C_17  and  O_20
REMARK                            x       y       z     vdW  Elec       q    Type
REMARK                         _______ _______ _______ _____ _____    ______ ____
ROOT
ATOM      1  O   UNL     1      50.228   0.467   5.364  0.00  0.00    +0.000 OA
ATOM      2  O   UNL     1      51.171  -3.537   5.373  0.00  0.00    +0.000 OA
ATOM      3  C   UNL     1      50.928  -1.538   4.065  0.00  0.00    +0.000 A 
ATOM      4  C   UNL     1      50.586  -0.167   4.170  0.00  0.00    +0.000 A 
ATOM      5  C   UNL     1      50.199  -0.284   6.545  0.00  0.00    +0.000 A 
ATOM      6  C   UNL     1      50.905  -2.351   5.295  0.00  0.00    +0.000 A 
ATOM      7  C   UNL     1      50.521  -1.523   6.380  0.00  0.00    +0.000 A 
ATOM      8  C   UNL     1      51.275  -2.092   2.833  0.00  0.00    +0.000 A 
ATOM      9  C   UNL     1      50.597   0.633   3.032  0.00  0.00    +0.000 A 
ATOM     10  C   UNL     1      50.945   0.065   1.808  0.00  0.00    +0.000 A 
ATOM     11  C   UNL     1      51.283  -1.285   1.699  0.00  0.00    +0.000 A 
ENDROOT
BRANCH   5  12
ATOM     12  C   UNL     1      49.826   0.380   7.788  0.00  0.00    +0.000 A 
ATOM     13  C   UNL     1      50.013   1.757   7.939  0.00  0.00    +0.000 A 
ATOM     14  C   UNL     1      49.274  -0.349   8.851  0.00  0.00    +0.000 A 
ATOM     15  C   UNL     1      49.655   2.379   9.128  0.00  0.00    +0.000 A 
ATOM     16  C   UNL     1      48.914   0.276  10.045  0.00  0.00    +0.000 A 
ATOM     17  C   UNL     1      49.108   1.645  10.174  0.00  0.00    +0.000 A 
BRANCH  15  18
ATOM     18  O   UNL     1      49.843   3.725   9.261  0.00  0.00    +0.000 OA
ATOM     19  H   UNL     1      49.021   4.058   9.675  0.00  0.00    +0.000 HD
ENDBRANCH  15  18
BRANCH  17  20
ATOM     20  O   UNL     1      48.772   2.304  11.325  0.00  0.00    +0.000 OA
ATOM     21  H   UNL     1      49.308   3.117  11.367  0.00  0.00    +0.000 HD
ENDBRANCH  17  20
ENDBRANCH   5  12
BRANCH   8  22
ATOM     22  O   UNL     1      51.613  -3.406   2.669  0.00  0.00    +0.000 OA
ATOM     23  H   UNL     1      51.553  -3.645   1.718  0.00  0.00    +0.000 HD
ENDBRANCH   8  22
BRANCH  10  24
ATOM     24  O   UNL     1      50.948   0.867   0.703  0.00  0.00    +0.000 OA
ATOM     25  H   UNL     1      51.718   0.630   0.156  0.00  0.00    +0.000 HD
ENDBRANCH  10  24
TORSDOF 5
ENDMDL
MODEL 3
REMARK VINA RESULT:      -6.3      2.779      7.428
REMARK  Name = 5280445_Luteolin.pdbqt.pdb
REMARK  5 active torsions:
REMARK  status: ('A' for Active; 'I' for Inactive)
REMARK    1  A    between atoms: C_5  and  C_12
REMARK    2  A    between atoms: C_8  and  O_22
REMARK    3  A    between atoms: C_10  and  O_24
REMARK    4  A    between atoms: C_15  and  O_18
REMARK    5  A    between atoms: C_17  and  O_20
REMARK                            x       y       z     vdW  Elec       q    Type
REMARK                         _______ _______ _______ _____ _____    ______ ____
ROOT
ATOM      1  O   UNL     1      42.162  -2.584  15.013  0.00  0.00    +0.000 OA
ATOM      2  O   UNL     1      40.183  -2.078  11.443  0.00  0.00    +0.000 OA
ATOM      3  C   UNL     1      40.667  -1.170  13.612  0.00  0.00    +0.000 A 
ATOM      4  C   UNL     1      41.387  -1.440  14.803  0.00  0.00    +0.000 A 
ATOM      5  C   UNL     1      42.247  -3.540  13.993  0.00  0.00    +0.000 A 
ATOM      6  C   UNL     1      40.740  -2.161  12.522  0.00  0.00    +0.000 A 
ATOM      7  C   UNL     1      41.570  -3.233  12.938  0.00  0.00    +0.000 A 
ATOM      8  C   UNL     1      39.917  -0.001  13.484  0.00  0.00    +0.000 A 
ATOM      9  C   UNL     1      41.343  -0.529  15.853  0.00  0.00    +0.000 A 
ATOM     10  C   UNL     1      40.589   0.634  15.710  0.00  0.00    +0.000 A 
ATOM     11  C   UNL     1      39.878   0.905  14.540  0.00  0.00    +0.000 A 
ENDROOT
BRANCH   5  12
ATOM     12  C   UNL     1      43.056  -4.731  14.215  0.00  0.00    +0.000 A 
ATOM     13  C   UNL     1      43.612  -4.985  15.472  0.00  0.00    +0.000 A 
ATOM     14  C   UNL     1      43.290  -5.641  13.175  0.00  0.00    +0.000 A 
ATOM     15  C   UNL     1      44.383  -6.123  15.672  0.00  0.00    +0.000 A 
ATOM     16  C   UNL     1      44.064  -6.785  13.376  0.00  0.00    +0.000 A 
ATOM     17  C   UNL     1      44.607  -7.018  14.632  0.00  0.00    +0.000 A 
BRANCH  15  18
ATOM     18  O   UNL     1      44.920  -6.359  16.906  0.00  0.00    +0.000 OA
ATOM     19  H   UNL     1      44.525  -5.681  17.490  0.00  0.00    +0.000 HD
ENDBRANCH  15  18
BRANCH  17  20
ATOM     20  O   UNL     1      45.373  -8.124  14.881  0.00  0.00    +0.000 OA
ATOM     21  H   UNL     1      46.046  -7.876  15.540  0.00  0.00    +0.000 HD
ENDBRANCH  17  20
ENDBRANCH   5  12
BRANCH   8  22
ATOM     22  O   UNL     1      39.203   0.313  12.362  0.00  0.00    +0.000 OA
ATOM     23  H   UNL     1      39.104  -0.486  11.800  0.00  0.00    +0.000 HD
ENDBRANCH   8  22
BRANCH  10  24
ATOM     24  O   UNL     1      40.559   1.515  16.753  0.00  0.00    +0.000 OA
ATOM     25  H   UNL     1      41.345   2.087  16.692  0.00  0.00    +0.000 HD
ENDBRANCH  10  24
TORSDOF 5
ENDMDL
MODEL 4
REMARK VINA RESULT:      -6.3     11.021     12.974
REMARK  Name = 5280445_Luteolin.pdbqt.pdb
REMARK  5 active torsions:
REMARK  status: ('A' for Active; 'I' for Inactive)
REMARK    1  A    between atoms: C_5  and  C_12
REMARK    2  A    between atoms: C_8  and  O_22
REMARK    3  A    between atoms: C_10  and  O_24
REMARK    4  A    between atoms: C_15  and  O_18
REMARK    5  A    between atoms: C_17  and  O_20
REMARK                            x       y       z     vdW  Elec       q    Type
REMARK                         _______ _______ _______ _____ _____    ______ ____
ROOT
ATOM      1  O   UNL     1      50.170  -1.521   7.460  0.00  0.00    +0.000 OA
ATOM      2  O   UNL     1      50.604   0.137   3.721  0.00  0.00    +0.000 OA
ATOM      3  C   UNL     1      50.383  -1.879   5.006  0.00  0.00    +0.000 A 
ATOM      4  C   UNL     1      50.236  -2.348   6.335  0.00  0.00    +0.000 A 
ATOM      5  C   UNL     1      50.256  -0.135   7.286  0.00  0.00    +0.000 A 
ATOM      6  C   UNL     1      50.476  -0.422   4.795  0.00  0.00    +0.000 A 
ATOM      7  C   UNL     1      50.389   0.226   6.054  0.00  0.00    +0.000 A 
ATOM      8  C   UNL     1      50.438  -2.774   3.938  0.00  0.00    +0.000 A 
ATOM      9  C   UNL     1      50.144  -3.715   6.574  0.00  0.00    +0.000 A 
ATOM     10  C   UNL     1      50.201  -4.597   5.497  0.00  0.00    +0.000 A 
ATOM     11  C   UNL     1      50.347  -4.140   4.186  0.00  0.00    +0.000 A 
ENDROOT
BRANCH   5  12
ATOM     12  C   UNL     1      50.188   0.725   8.461  0.00  0.00    +0.000 A 
ATOM     13  C   UNL     1      49.222   1.732   8.546  0.00  0.00    +0.000 A 
ATOM     14  C   UNL     1      51.086   0.558   9.524  0.00  0.00    +0.000 A 
ATOM     15  C   UNL     1      49.166   2.546   9.670  0.00  0.00    +0.000 A 
ATOM     16  C   UNL     1      51.030   1.375  10.653  0.00  0.00    +0.000 A 
ATOM     17  C   UNL     1      50.063   2.369  10.717  0.00  0.00    +0.000 A 
BRANCH  15  18
ATOM     18  O   UNL     1      48.217   3.525   9.739  0.00  0.00    +0.000 OA
ATOM     19  H   UNL     1      48.538   4.143  10.426  0.00  0.00    +0.000 HD
ENDBRANCH  15  18
BRANCH  17  20
ATOM     20  O   UNL     1      49.966   3.197  11.802  0.00  0.00    +0.000 OA
ATOM     21  H   UNL     1      49.616   4.052  11.491  0.00  0.00    +0.000 HD
ENDBRANCH  17  20
ENDBRANCH   5  12
BRANCH   8  22
ATOM     22  O   UNL     1      50.580  -2.382   2.636  0.00  0.00    +0.000 OA
ATOM     23  H   UNL     1      49.890  -1.719   2.415  0.00  0.00    +0.000 HD
ENDBRANCH   8  22
BRANCH  10  24
ATOM     24  O   UNL     1      50.111  -5.935   5.754  0.00  0.00    +0.000 OA
ATOM     25  H   UNL     1      49.656  -6.052   6.607  0.00  0.00    +0.000 HD
ENDBRANCH  10  24
TORSDOF 5
ENDMDL
MODEL 5
REMARK VINA RESULT:      -6.2     11.558     14.026
REMARK  Name = 5280445_Luteolin.pdbqt.pdb
REMARK  5 active torsions:
REMARK  status: ('A' for Active; 'I' for Inactive)
REMARK    1  A    between atoms: C_5  and  C_12
REMARK    2  A    between atoms: C_8  and  O_22
REMARK    3  A    between atoms: C_10  and  O_24
REMARK    4  A    between atoms: C_15  and  O_18
REMARK    5  A    between atoms: C_17  and  O_20
REMARK                            x       y       z     vdW  Elec       q    Type
REMARK                         _______ _______ _______ _____ _____    ______ ____
ROOT
ATOM      1  O   UNL     1      50.252   0.373   5.688  0.00  0.00    +0.000 OA
ATOM      2  O   UNL     1      52.447   3.747   4.841  0.00  0.00    +0.000 OA
ATOM      3  C   UNL     1      51.577   1.664   4.023  0.00  0.00    +0.000 A 
ATOM      4  C   UNL     1      50.807   0.541   4.416  0.00  0.00    +0.000 A 
ATOM      5  C   UNL     1      50.459   1.366   6.653  0.00  0.00    +0.000 A 
ATOM      6  C   UNL     1      51.810   2.725   5.021  0.00  0.00    +0.000 A 
ATOM      7  C   UNL     1      51.167   2.360   6.231  0.00  0.00    +0.000 A 
ATOM      8  C   UNL     1      52.095   1.754   2.731  0.00  0.00    +0.000 A 
ATOM      9  C   UNL     1      50.566  -0.479   3.503  0.00  0.00    +0.000 A 
ATOM     10  C   UNL     1      51.090  -0.375   2.216  0.00  0.00    +0.000 A 
ATOM     11  C   UNL     1      51.850   0.728   1.824  0.00  0.00    +0.000 A 
ENDROOT
BRANCH   5  12
ATOM     12  C   UNL     1      49.878   1.188   7.978  0.00  0.00    +0.000 A 
ATOM     13  C   UNL     1      49.735   2.279   8.839  0.00  0.00    +0.000 A 
ATOM     14  C   UNL     1      49.455  -0.076   8.410  0.00  0.00    +0.000 A 
ATOM     15  C   UNL     1      49.181   2.099  10.100  0.00  0.00    +0.000 A 
ATOM     16  C   UNL     1      48.899  -0.258   9.676  0.00  0.00    +0.000 A 
ATOM     17  C   UNL     1      48.765   0.839  10.517  0.00  0.00    +0.000 A 
BRANCH  15  18
ATOM     18  O   UNL     1      49.046   3.173  10.932  0.00  0.00    +0.000 OA
ATOM     19  H   UNL     1      48.098   3.192  11.173  0.00  0.00    +0.000 HD
ENDBRANCH  15  18
BRANCH  17  20
ATOM     20  O   UNL     1      48.226   0.714  11.768  0.00  0.00    +0.000 OA
ATOM     21  H   UNL     1      47.439   0.143  11.695  0.00  0.00    +0.000 HD
ENDBRANCH  17  20
ENDBRANCH   5  12
BRANCH   8  22
ATOM     22  O   UNL     1      52.844   2.811   2.294  0.00  0.00    +0.000 OA
ATOM     23  H   UNL     1      52.253   3.557   2.055  0.00  0.00    +0.000 HD
ENDBRANCH   8  22
BRANCH  10  24
ATOM     24  O   UNL     1      50.842  -1.389   1.335  0.00  0.00    +0.000 OA
ATOM     25  H   UNL     1      51.555  -1.399   0.672  0.00  0.00    +0.000 HD
ENDBRANCH  10  24
TORSDOF 5
ENDMDL
MODEL 6
REMARK VINA RESULT:      -6.1     11.033     14.722
REMARK  Name = 5280445_Luteolin.pdbqt.pdb
REMARK  5 active torsions:
REMARK  status: ('A' for Active; 'I' for Inactive)
REMARK    1  A    between atoms: C_5  and  C_12
REMARK    2  A    between atoms: C_8  and  O_22
REMARK    3  A    between atoms: C_10  and  O_24
REMARK    4  A    between atoms: C_15  and  O_18
REMARK    5  A    between atoms: C_17  and  O_20
REMARK                            x       y       z     vdW  Elec       q    Type
REMARK                         _______ _______ _______ _____ _____    ______ ____
ROOT
ATOM      1  O   UNL     1      51.549  -0.055   7.519  0.00  0.00    +0.000 OA
ATOM      2  O   UNL     1      48.079   1.845   8.644  0.00  0.00    +0.000 OA
ATOM      3  C   UNL     1      50.244   1.058   9.322  0.00  0.00    +0.000 A 
ATOM      4  C   UNL     1      51.396   0.393   8.834  0.00  0.00    +0.000 A 
ATOM      5  C   UNL     1      50.507   0.154   6.607  0.00  0.00    +0.000 A 
ATOM      6  C   UNL     1      49.131   1.291   8.382  0.00  0.00    +0.000 A 
ATOM      7  C   UNL     1      49.488   0.763   7.115  0.00  0.00    +0.000 A 
ATOM      8  C   UNL     1      50.172   1.475  10.651  0.00  0.00    +0.000 A 
ATOM      9  C   UNL     1      52.466   0.156   9.690  0.00  0.00    +0.000 A 
ATOM     10  C   UNL     1      52.380   0.578  11.015  0.00  0.00    +0.000 A 
ATOM     11  C   UNL     1      51.247   1.233  11.501  0.00  0.00    +0.000 A 
ENDROOT
BRANCH   5  12
ATOM     12  C   UNL     1      50.669  -0.315   5.237  0.00  0.00    +0.000 A 
ATOM     13  C   UNL     1      50.538  -1.673   4.934  0.00  0.00    +0.000 A 
ATOM     14  C   UNL     1      50.958   0.585   4.202  0.00  0.00    +0.000 A 
ATOM     15  C   UNL     1      50.695  -2.110   3.625  0.00  0.00    +0.000 A 
ATOM     16  C   UNL     1      51.116   0.147   2.887  0.00  0.00    +0.000 A 
ATOM     17  C   UNL     1      50.982  -1.207   2.607  0.00  0.00    +0.000 A 
BRANCH  15  18
ATOM     18  O   UNL     1      50.564  -3.439   3.343  0.00  0.00    +0.000 OA
ATOM     19  H   UNL     1      49.913  -3.483   2.613  0.00  0.00    +0.000 HD
ENDBRANCH  15  18
BRANCH  17  20
ATOM     20  O   UNL     1      51.127  -1.687   1.334  0.00  0.00    +0.000 OA
ATOM     21  H   UNL     1      50.449  -1.262   0.779  0.00  0.00    +0.000 HD
ENDBRANCH  17  20
ENDBRANCH   5  12
BRANCH   8  22
ATOM     22  O   UNL     1      49.089   2.119  11.179  0.00  0.00    +0.000 OA
ATOM     23  H   UNL     1      48.951   2.971  10.710  0.00  0.00    +0.000 HD
ENDBRANCH   8  22
BRANCH  10  24
ATOM     24  O   UNL     1      53.441   0.334  11.839  0.00  0.00    +0.000 OA
ATOM     25  H   UNL     1      54.226   0.770  11.462  0.00  0.00    +0.000 HD
ENDBRANCH  10  24
TORSDOF 5
ENDMDL
MODEL 7
REMARK VINA RESULT:      -5.8     11.549     15.338
REMARK  Name = 5280445_Luteolin.pdbqt.pdb
REMARK  5 active torsions:
REMARK  status: ('A' for Active; 'I' for Inactive)
REMARK    1  A    between atoms: C_5  and  C_12
REMARK    2  A    between atoms: C_8  and  O_22
REMARK    3  A    between atoms: C_10  and  O_24
REMARK    4  A    between atoms: C_15  and  O_18
REMARK    5  A    between atoms: C_17  and  O_20
REMARK                            x       y       z     vdW  Elec       q    Type
REMARK                         _______ _______ _______ _____ _____    ______ ____
ROOT
ATOM      1  O   UNL     1      50.102   0.832   6.971  0.00  0.00    +0.000 OA
ATOM      2  O   UNL     1      52.076   4.425   7.311  0.00  0.00    +0.000 OA
ATOM      3  C   UNL     1      50.694   2.787   8.394  0.00  0.00    +0.000 A 
ATOM      4  C   UNL     1      50.050   1.544   8.173  0.00  0.00    +0.000 A 
ATOM      5  C   UNL     1      50.831   1.364   5.901  0.00  0.00    +0.000 A 
ATOM      6  C   UNL     1      51.469   3.370   7.282  0.00  0.00    +0.000 A 
ATOM      7  C   UNL     1      51.391   2.496   6.167  0.00  0.00    +0.000 A 
ATOM      8  C   UNL     1      50.592   3.432   9.626  0.00  0.00    +0.000 A 
ATOM      9  C   UNL     1      49.311   0.963   9.198  0.00  0.00    +0.000 A 
ATOM     10  C   UNL     1      49.219   1.619  10.424  0.00  0.00    +0.000 A 
ATOM     11  C   UNL     1      49.850   2.844  10.646  0.00  0.00    +0.000 A 
ENDROOT
BRANCH   5  12
ATOM     12  C   UNL     1      50.883   0.620   4.649  0.00  0.00    +0.000 A 
ATOM     13  C   UNL     1      51.332   1.236   3.478  0.00  0.00    +0.000 A 
ATOM     14  C   UNL     1      50.486  -0.723   4.598  0.00  0.00    +0.000 A 
ATOM     15  C   UNL     1      51.377   0.518   2.290  0.00  0.00    +0.000 A 
ATOM     16  C   UNL     1      50.531  -1.445   3.405  0.00  0.00    +0.000 A 
ATOM     17  C   UNL     1      50.980  -0.814   2.253  0.00  0.00    +0.000 A 
BRANCH  15  18
ATOM     18  O   UNL     1      51.818   1.132   1.153  0.00  0.00    +0.000 OA
ATOM     19  H   UNL     1      52.238   1.962   1.458  0.00  0.00    +0.000 HD
ENDBRANCH  15  18
BRANCH  17  20
ATOM     20  O   UNL     1      51.044  -1.478   1.058  0.00  0.00    +0.000 OA
ATOM     21  H   UNL     1      50.814  -2.410   1.225  0.00  0.00    +0.000 HD
ENDBRANCH  17  20
ENDBRANCH   5  12
BRANCH   8  22
ATOM     22  O   UNL     1      51.189   4.631   9.898  0.00  0.00    +0.000 OA
ATOM     23  H   UNL     1      51.377   5.103   9.057  0.00  0.00    +0.000 HD
ENDBRANCH   8  22
BRANCH  10  24
ATOM     24  O   UNL     1      48.487   1.031  11.416  0.00  0.00    +0.000 OA
ATOM     25  H   UNL     1      47.561   1.319  11.324  0.00  0.00    +0.000 HD
ENDBRANCH  10  24
TORSDOF 5
ENDMDL
MODEL 8
REMARK VINA RESULT:      -5.6     11.565     13.365
REMARK  Name = 5280445_Luteolin.pdbqt.pdb
REMARK  5 active torsions:
REMARK  status: ('A' for Active; 'I' for Inactive)
REMARK    1  A    between atoms: C_5  and  C_12
REMARK    2  A    between atoms: C_8  and  O_22
REMARK    3  A    between atoms: C_10  and  O_24
REMARK    4  A    between atoms: C_15  and  O_18
REMARK    5  A    between atoms: C_17  and  O_20
REMARK                            x       y       z     vdW  Elec       q    Type
REMARK                         _______ _______ _______ _____ _____    ______ ____
ROOT
ATOM      1  O   UNL     1      52.248   4.500  11.709  0.00  0.00    +0.000 OA
ATOM      2  O   UNL     1      49.735   1.342  10.918  0.00  0.00    +0.000 OA
ATOM      3  C   UNL     1      51.407   2.255  12.378  0.00  0.00    +0.000 A 
ATOM      4  C   UNL     1      52.234   3.391  12.560  0.00  0.00    +0.000 A 
ATOM      5  C   UNL     1      51.398   4.509  10.596  0.00  0.00    +0.000 A 
ATOM      6  C   UNL     1      50.503   2.239  11.213  0.00  0.00    +0.000 A 
ATOM      7  C   UNL     1      50.674   3.446  10.489  0.00  0.00    +0.000 A 
ATOM      8  C   UNL     1      51.455   1.190  13.277  0.00  0.00    +0.000 A 
ATOM      9  C   UNL     1      53.100   3.443  13.648  0.00  0.00    +0.000 A 
ATOM     10  C   UNL     1      53.136   2.371  14.537  0.00  0.00    +0.000 A 
ATOM     11  C   UNL     1      52.324   1.249  14.361  0.00  0.00    +0.000 A 
ENDROOT
BRANCH   5  12
ATOM     12  C   UNL     1      51.415   5.667   9.711  0.00  0.00    +0.000 A 
ATOM     13  C   UNL     1      51.095   6.936  10.201  0.00  0.00    +0.000 A 
ATOM     14  C   UNL     1      51.752   5.528   8.358  0.00  0.00    +0.000 A 
ATOM     15  C   UNL     1      51.113   8.033   9.348  0.00  0.00    +0.000 A 
ATOM     16  C   UNL     1      51.771   6.629   7.501  0.00  0.00    +0.000 A 
ATOM     17  C   UNL     1      51.450   7.881   8.008  0.00  0.00    +0.000 A 
BRANCH  15  18
ATOM     18  O   UNL     1      50.799   9.267   9.839  0.00  0.00    +0.000 OA
ATOM     19  H   UNL     1      51.117   9.900   9.164  0.00  0.00    +0.000 HD
ENDBRANCH  15  18
BRANCH  17  20
ATOM     20  O   UNL     1      51.453   8.993   7.209  0.00  0.00    +0.000 OA
ATOM     21  H   UNL     1      52.356   9.103   6.860  0.00  0.00    +0.000 HD
ENDBRANCH  17  20
ENDBRANCH   5  12
BRANCH   8  22
ATOM     22  O   UNL     1      50.683   0.067  13.153  0.00  0.00    +0.000 OA
ATOM     23  H   UNL     1      51.135  -0.691  13.584  0.00  0.00    +0.000 HD
ENDBRANCH   8  22
BRANCH  10  24
ATOM     24  O   UNL     1      53.994   2.442  15.597  0.00  0.00    +0.000 OA
ATOM     25  H   UNL     1      53.577   1.997  16.357  0.00  0.00    +0.000 HD
ENDBRANCH  10  24
TORSDOF 5
ENDMDL
MODEL 9
REMARK VINA RESULT:      -5.5     16.559     17.805
REMARK  Name = 5280445_Luteolin.pdbqt.pdb
REMARK  5 active torsions:
REMARK  status: ('A' for Active; 'I' for Inactive)
REMARK    1  A    between atoms: C_5  and  C_12
REMARK    2  A    between atoms: C_8  and  O_22
REMARK    3  A    between atoms: C_10  and  O_24
REMARK    4  A    between atoms: C_15  and  O_18
REMARK    5  A    between atoms: C_17  and  O_20
REMARK                            x       y       z     vdW  Elec       q    Type
REMARK                         _______ _______ _______ _____ _____    ______ ____
ROOT
ATOM      1  O   UNL     1      52.881   8.360   5.167  0.00  0.00    +0.000 OA
ATOM      2  O   UNL     1      54.108   4.899   3.315  0.00  0.00    +0.000 OA
ATOM      3  C   UNL     1      53.801   7.272   3.126  0.00  0.00    +0.000 A 
ATOM      4  C   UNL     1      53.355   8.404   3.853  0.00  0.00    +0.000 A 
ATOM      5  C   UNL     1      52.834   7.127   5.828  0.00  0.00    +0.000 A 
ATOM      6  C   UNL     1      53.762   5.961   3.800  0.00  0.00    +0.000 A 
ATOM      7  C   UNL     1      53.254   6.138   5.112  0.00  0.00    +0.000 A 
ATOM      8  C   UNL     1      54.260   7.404   1.816  0.00  0.00    +0.000 A 
ATOM      9  C   UNL     1      53.377   9.658   3.252  0.00  0.00    +0.000 A 
ATOM     10  C   UNL     1      53.838   9.774   1.942  0.00  0.00    +0.000 A 
ATOM     11  C   UNL     1      54.278   8.662   1.221  0.00  0.00    +0.000 A 
ENDROOT
BRANCH   5  12
ATOM     12  C   UNL     1      52.341   7.084   7.199  0.00  0.00    +0.000 A 
ATOM     13  C   UNL     1      51.750   8.213   7.773  0.00  0.00    +0.000 A 
ATOM     14  C   UNL     1      52.448   5.914   7.962  0.00  0.00    +0.000 A 
ATOM     15  C   UNL     1      51.283   8.162   9.080  0.00  0.00    +0.000 A 
ATOM     16  C   UNL     1      51.979   5.862   9.275  0.00  0.00    +0.000 A 
ATOM     17  C   UNL     1      51.396   6.995   9.827  0.00  0.00    +0.000 A 
BRANCH  15  18
ATOM     18  O   UNL     1      50.707   9.272   9.629  0.00  0.00    +0.000 OA
ATOM     19  H   UNL     1      51.380   9.633  10.241  0.00  0.00    +0.000 HD
ENDBRANCH  15  18
BRANCH  17  20
ATOM     20  O   UNL     1      50.920   6.995  11.110  0.00  0.00    +0.000 OA
ATOM     21  H   UNL     1      51.044   7.892  11.471  0.00  0.00    +0.000 HD
ENDBRANCH  17  20
ENDBRANCH   5  12
BRANCH   8  22
ATOM     22  O   UNL     1      54.701   6.350   1.065  0.00  0.00    +0.000 OA
ATOM     23  H   UNL     1      55.137   6.686   0.252  0.00  0.00    +0.000 HD
ENDBRANCH   8  22
BRANCH  10  24
ATOM     24  O   UNL     1      53.850  11.014   1.370  0.00  0.00    +0.000 OA
ATOM     25  H   UNL     1      53.957  10.906   0.408  0.00  0.00    +0.000 HD
ENDBRANCH  10  24
TORSDOF 5
ENDMDL
