MODEL 1
REMARK VINA RESULT:      -6.2      0.000      0.000
REMARK  Name = 5281224_Astaxanthin.pdbqt.pdb
REMARK  16 active torsions:
REMARK  status: ('A' for Active; 'I' for Inactive)
REMARK    1  A    between atoms: C_1  and  C_5
REMARK    2  A    between atoms: C_2  and  C_27
REMARK    3  A    between atoms: C_3  and  C_5
REMARK    4  A    between atoms: C_3  and  C_7
REMARK    5  A    between atoms: C_6  and  C_10
REMARK    6  A    between atoms: C_8  and  C_10
REMARK    7  A    between atoms: C_8  and  C_12
REMARK    8  A    between atoms: C_11  and  C_16
REMARK    9  A    between atoms: C_17  and  O_23
REMARK   10  A    between atoms: C_25  and  C_27
REMARK   11  A    between atoms: C_25  and  C_29
REMARK   12  A    between atoms: C_28  and  C_32
REMARK   13  A    between atoms: C_30  and  C_32
REMARK   14  A    between atoms: C_30  and  C_34
REMARK   15  A    between atoms: C_33  and  C_38
REMARK   16  A    between atoms: C_39  and  O_45
REMARK                            x       y       z     vdW  Elec       q    Type
REMARK                         _______ _______ _______ _____ _____    ______ ____
ROOT
ATOM      1  C   UNL     1      35.994  13.229  21.477  0.00  0.00    +0.000 C 
ATOM      2  C   UNL     1      35.758  12.108  21.834  0.00  0.00    +0.000 C 
ENDROOT
BRANCH   2   3
ATOM      3  C   UNL     1      35.463  10.672  22.285  0.00  0.00    +0.000 C 
BRANCH   3   4
ATOM      4  C   UNL     1      35.212   9.461  22.673  0.00  0.00    +0.000 C 
ATOM      5  C   UNL     1      34.099   8.686  22.034  0.00  0.00    +0.000 C 
BRANCH   4   7
ATOM      6  C   UNL     1      36.551   8.421  24.665  0.00  0.00    +0.000 C 
ATOM      7  C   UNL     1      35.936   8.900  23.752  0.00  0.00    +0.000 C 
BRANCH   6   8
ATOM      8  C   UNL     1      37.339   7.808  25.829  0.00  0.00    +0.000 C 
BRANCH   8   9
ATOM      9  C   UNL     1      38.008   7.283  26.808  0.00  0.00    +0.000 C 
ATOM     10  C   UNL     1      37.411   6.164  27.607  0.00  0.00    +0.000 C 
BRANCH   9  12
ATOM     11  C   UNL     1      40.493   8.007  27.210  0.00  0.00    +0.000 C 
ATOM     12  C   UNL     1      39.356   7.663  27.022  0.00  0.00    +0.000 C 
BRANCH  11  16
ATOM     13  O   UNL     1      44.873   7.379  29.318  0.00  0.00    +0.000 OA
ATOM     14  C   UNL     1      42.332   9.732  26.729  0.00  0.00    +0.000 C 
ATOM     15  C   UNL     1      43.715   9.909  27.138  0.00  0.00    +0.000 C 
ATOM     16  C   UNL     1      41.858   8.438  27.439  0.00  0.00    +0.000 C 
ATOM     17  C   UNL     1      44.645   9.260  27.944  0.00  0.00    +0.000 C 
ATOM     18  C   UNL     1      42.251   9.527  25.198  0.00  0.00    +0.000 C 
ATOM     19  C   UNL     1      41.476  10.925  27.209  0.00  0.00    +0.000 C 
ATOM     20  C   UNL     1      42.671   7.702  28.254  0.00  0.00    +0.000 C 
ATOM     21  C   UNL     1      44.135   8.031  28.591  0.00  0.00    +0.000 C 
ATOM     22  C   UNL     1      42.110   6.427  28.898  0.00  0.00    +0.000 C 
BRANCH  17  23
ATOM     23  O   UNL     1      45.925   9.713  28.121  0.00  0.00    +0.000 OA
ATOM     24  H   UNL     1      46.183   9.664  29.064  0.00  0.00    +0.000 HD
ENDBRANCH  17  23
ENDBRANCH  11  16
ENDBRANCH   9  12
ENDBRANCH   8   9
ENDBRANCH   6   8
ENDBRANCH   4   7
ENDBRANCH   3   4
ENDBRANCH   2   3
BRANCH   1  25
ATOM     25  C   UNL     1      36.301  14.657  21.013  0.00  0.00    +0.000 C 
BRANCH  25  26
ATOM     26  C   UNL     1      36.563  15.863  20.616  0.00  0.00    +0.000 C 
ATOM     27  C   UNL     1      37.936  16.434  20.817  0.00  0.00    +0.000 C 
BRANCH  26  29
ATOM     28  C   UNL     1      34.660  17.351  19.615  0.00  0.00    +0.000 C 
ATOM     29  C   UNL     1      35.535  16.669  20.075  0.00  0.00    +0.000 C 
BRANCH  28  30
ATOM     30  C   UNL     1      33.540  18.220  19.028  0.00  0.00    +0.000 C 
BRANCH  30  31
ATOM     31  C   UNL     1      32.599  18.954  18.524  0.00  0.00    +0.000 C 
ATOM     32  C   UNL     1      32.566  20.426  18.806  0.00  0.00    +0.000 C 
BRANCH  31  34
ATOM     33  C   UNL     1      30.950  17.923  16.769  0.00  0.00    +0.000 C 
ATOM     34  C   UNL     1      31.699  18.396  17.583  0.00  0.00    +0.000 C 
BRANCH  33  38
ATOM     35  O   UNL     1      27.551  14.648  15.447  0.00  0.00    +0.000 OA
ATOM     36  C   UNL     1      30.059  18.001  14.363  0.00  0.00    +0.000 C 
ATOM     37  C   UNL     1      29.088  17.239  13.596  0.00  0.00    +0.000 C 
ATOM     38  C   UNL     1      30.060  17.357  15.773  0.00  0.00    +0.000 C 
ATOM     39  C   UNL     1      28.227  16.163  13.795  0.00  0.00    +0.000 C 
ATOM     40  C   UNL     1      29.607  19.475  14.481  0.00  0.00    +0.000 C 
ATOM     41  C   UNL     1      31.462  17.862  13.733  0.00  0.00    +0.000 C 
ATOM     42  C   UNL     1      29.262  16.299  16.105  0.00  0.00    +0.000 C 
ATOM     43  C   UNL     1      28.272  15.596  15.161  0.00  0.00    +0.000 C 
ATOM     44  C   UNL     1      29.328  15.745  17.534  0.00  0.00    +0.000 C 
BRANCH  39  45
ATOM     45  O   UNL     1      27.407  15.672  12.816  0.00  0.00    +0.000 OA
ATOM     46  H   UNL     1      27.166  14.741  13.000  0.00  0.00    +0.000 HD
ENDBRANCH  39  45
ENDBRANCH  33  38
ENDBRANCH  31  34
ENDBRANCH  30  31
ENDBRANCH  28  30
ENDBRANCH  26  29
ENDBRANCH  25  26
ENDBRANCH   1  25
TORSDOF 16
ENDMDL
MODEL 2
REMARK VINA RESULT:      -5.9     10.377     13.832
REMARK  Name = 5281224_Astaxanthin.pdbqt.pdb
REMARK  16 active torsions:
REMARK  status: ('A' for Active; 'I' for Inactive)
REMARK    1  A    between atoms: C_1  and  C_5
REMARK    2  A    between atoms: C_2  and  C_27
REMARK    3  A    between atoms: C_3  and  C_5
REMARK    4  A    between atoms: C_3  and  C_7
REMARK    5  A    between atoms: C_6  and  C_10
REMARK    6  A    between atoms: C_8  and  C_10
REMARK    7  A    between atoms: C_8  and  C_12
REMARK    8  A    between atoms: C_11  and  C_16
REMARK    9  A    between atoms: C_17  and  O_23
REMARK   10  A    between atoms: C_25  and  C_27
REMARK   11  A    between atoms: C_25  and  C_29
REMARK   12  A    between atoms: C_28  and  C_32
REMARK   13  A    between atoms: C_30  and  C_32
REMARK   14  A    between atoms: C_30  and  C_34
REMARK   15  A    between atoms: C_33  and  C_38
REMARK   16  A    between atoms: C_39  and  O_45
REMARK                            x       y       z     vdW  Elec       q    Type
REMARK                         _______ _______ _______ _____ _____    ______ ____
ROOT
ATOM      1  C   UNL     1      31.416   1.978  20.921  0.00  0.00    +0.000 C 
ATOM      2  C   UNL     1      32.367   1.252  20.831  0.00  0.00    +0.000 C 
ENDROOT
BRANCH   2   3
ATOM      3  C   UNL     1      33.580   0.321  20.710  0.00  0.00    +0.000 C 
BRANCH   3   4
ATOM      4  C   UNL     1      34.607  -0.462  20.602  0.00  0.00    +0.000 C 
ATOM      5  C   UNL     1      34.652  -1.746  21.375  0.00  0.00    +0.000 C 
BRANCH   4   7
ATOM      6  C   UNL     1      36.661   0.263  19.154  0.00  0.00    +0.000 C 
ATOM      7  C   UNL     1      35.718  -0.068  19.820  0.00  0.00    +0.000 C 
BRANCH   6   8
ATOM      8  C   UNL     1      37.863   0.684  18.301  0.00  0.00    +0.000 C 
BRANCH   8   9
ATOM      9  C   UNL     1      38.885   1.040  17.586  0.00  0.00    +0.000 C 
ATOM     10  C   UNL     1      39.629   2.297  17.920  0.00  0.00    +0.000 C 
BRANCH   9  12
ATOM     11  C   UNL     1      39.832  -0.571  15.750  0.00  0.00    +0.000 C 
ATOM     12  C   UNL     1      39.386   0.166  16.590  0.00  0.00    +0.000 C 
BRANCH  11  16
ATOM     13  O   UNL     1      40.875  -1.582  11.069  0.00  0.00    +0.000 OA
ATOM     14  C   UNL     1      41.002  -2.793  15.219  0.00  0.00    +0.000 C 
ATOM     15  C   UNL     1      41.468  -3.452  14.010  0.00  0.00    +0.000 C 
ATOM     16  C   UNL     1      40.386  -1.453  14.741  0.00  0.00    +0.000 C 
ATOM     17  C   UNL     1      41.497  -3.201  12.642  0.00  0.00    +0.000 C 
ATOM     18  C   UNL     1      42.194  -2.495  16.158  0.00  0.00    +0.000 C 
ATOM     19  C   UNL     1      39.911  -3.645  15.904  0.00  0.00    +0.000 C 
ATOM     20  C   UNL     1      40.353  -1.081  13.427  0.00  0.00    +0.000 C 
ATOM     21  C   UNL     1      40.898  -1.906  12.250  0.00  0.00    +0.000 C 
ATOM     22  C   UNL     1      39.734   0.275  13.061  0.00  0.00    +0.000 C 
BRANCH  17  23
ATOM     23  O   UNL     1      42.037  -4.072  11.734  0.00  0.00    +0.000 OA
ATOM     24  H   UNL     1      41.845  -4.998  11.985  0.00  0.00    +0.000 HD
ENDBRANCH  17  23
ENDBRANCH  11  16
ENDBRANCH   9  12
ENDBRANCH   8   9
ENDBRANCH   6   8
ENDBRANCH   4   7
ENDBRANCH   3   4
ENDBRANCH   2   3
BRANCH   1  25
ATOM     25  C   UNL     1      30.196   2.900  21.027  0.00  0.00    +0.000 C 
BRANCH  25  26
ATOM     26  C   UNL     1      29.161   3.677  21.114  0.00  0.00    +0.000 C 
ATOM     27  C   UNL     1      27.892   3.311  20.406  0.00  0.00    +0.000 C 
BRANCH  26  29
ATOM     28  C   UNL     1      29.340   5.952  22.391  0.00  0.00    +0.000 C 
ATOM     29  C   UNL     1      29.257   4.907  21.804  0.00  0.00    +0.000 C 
BRANCH  28  30
ATOM     30  C   UNL     1      29.450   7.285  23.143  0.00  0.00    +0.000 C 
BRANCH  30  31
ATOM     31  C   UNL     1      29.542   8.415  23.770  0.00  0.00    +0.000 C 
ATOM     32  C   UNL     1      28.515   8.788  24.796  0.00  0.00    +0.000 C 
BRANCH  31  34
ATOM     33  C   UNL     1      31.662   9.921  23.448  0.00  0.00    +0.000 C 
ATOM     34  C   UNL     1      30.696   9.221  23.600  0.00  0.00    +0.000 C 
BRANCH  33  38
ATOM     35  O   UNL     1      34.442  13.718  24.817  0.00  0.00    +0.000 OA
ATOM     36  C   UNL     1      33.745  10.467  22.052  0.00  0.00    +0.000 C 
ATOM     37  C   UNL     1      34.795  11.471  22.112  0.00  0.00    +0.000 C 
ATOM     38  C   UNL     1      32.816  10.777  23.254  0.00  0.00    +0.000 C 
ATOM     39  C   UNL     1      35.147  12.552  22.914  0.00  0.00    +0.000 C 
ATOM     40  C   UNL     1      34.348   9.054  22.230  0.00  0.00    +0.000 C 
ATOM     41  C   UNL     1      32.949  10.607  20.736  0.00  0.00    +0.000 C 
ATOM     42  C   UNL     1      33.047  11.806  24.122  0.00  0.00    +0.000 C 
ATOM     43  C   UNL     1      34.224  12.793  24.045  0.00  0.00    +0.000 C 
ATOM     44  C   UNL     1      32.074  12.018  25.289  0.00  0.00    +0.000 C 
BRANCH  39  45
ATOM     45  O   UNL     1      36.252  13.325  22.683  0.00  0.00    +0.000 OA
ATOM     46  H   UNL     1      36.514  13.281  21.740  0.00  0.00    +0.000 HD
ENDBRANCH  39  45
ENDBRANCH  33  38
ENDBRANCH  31  34
ENDBRANCH  30  31
ENDBRANCH  28  30
ENDBRANCH  26  29
ENDBRANCH  25  26
ENDBRANCH   1  25
TORSDOF 16
ENDMDL
MODEL 3
REMARK VINA RESULT:      -5.9      5.932      8.022
REMARK  Name = 5281224_Astaxanthin.pdbqt.pdb
REMARK  16 active torsions:
REMARK  status: ('A' for Active; 'I' for Inactive)
REMARK    1  A    between atoms: C_1  and  C_5
REMARK    2  A    between atoms: C_2  and  C_27
REMARK    3  A    between atoms: C_3  and  C_5
REMARK    4  A    between atoms: C_3  and  C_7
REMARK    5  A    between atoms: C_6  and  C_10
REMARK    6  A    between atoms: C_8  and  C_10
REMARK    7  A    between atoms: C_8  and  C_12
REMARK    8  A    between atoms: C_11  and  C_16
REMARK    9  A    between atoms: C_17  and  O_23
REMARK   10  A    between atoms: C_25  and  C_27
REMARK   11  A    between atoms: C_25  and  C_29
REMARK   12  A    between atoms: C_28  and  C_32
REMARK   13  A    between atoms: C_30  and  C_32
REMARK   14  A    between atoms: C_30  and  C_34
REMARK   15  A    between atoms: C_33  and  C_38
REMARK   16  A    between atoms: C_39  and  O_45
REMARK                            x       y       z     vdW  Elec       q    Type
REMARK                         _______ _______ _______ _____ _____    ______ ____
ROOT
ATOM      1  C   UNL     1      36.035  13.464  21.657  0.00  0.00    +0.000 C 
ATOM      2  C   UNL     1      35.668  12.422  22.126  0.00  0.00    +0.000 C 
ENDROOT
BRANCH   2   3
ATOM      3  C   UNL     1      35.203  11.086  22.720  0.00  0.00    +0.000 C 
BRANCH   3   4
ATOM      4  C   UNL     1      34.807   9.961  23.226  0.00  0.00    +0.000 C 
ATOM      5  C   UNL     1      33.366   9.563  23.127  0.00  0.00    +0.000 C 
BRANCH   4   7
ATOM      6  C   UNL     1      36.495   8.459  24.545  0.00  0.00    +0.000 C 
ATOM      7  C   UNL     1      35.719   9.147  23.940  0.00  0.00    +0.000 C 
BRANCH   6   8
ATOM      8  C   UNL     1      37.488   7.583  25.317  0.00  0.00    +0.000 C 
BRANCH   8   9
ATOM      9  C   UNL     1      38.334   6.842  25.964  0.00  0.00    +0.000 C 
ATOM     10  C   UNL     1      38.051   5.383  26.161  0.00  0.00    +0.000 C 
BRANCH   9  12
ATOM     11  C   UNL     1      40.655   7.816  26.688  0.00  0.00    +0.000 C 
ATOM     12  C   UNL     1      39.588   7.377  26.347  0.00  0.00    +0.000 C 
BRANCH  11  16
ATOM     13  O   UNL     1      44.807   7.360  29.253  0.00  0.00    +0.000 OA
ATOM     14  C   UNL     1      42.375   9.718  26.565  0.00  0.00    +0.000 C 
ATOM     15  C   UNL     1      43.681   9.968  27.150  0.00  0.00    +0.000 C 
ATOM     16  C   UNL     1      41.942   8.333  27.112  0.00  0.00    +0.000 C 
ATOM     17  C   UNL     1      44.569   9.329  28.009  0.00  0.00    +0.000 C 
ATOM     18  C   UNL     1      42.486   9.640  25.024  0.00  0.00    +0.000 C 
ATOM     19  C   UNL     1      41.367  10.792  27.028  0.00  0.00    +0.000 C 
ATOM     20  C   UNL     1      42.720   7.597  27.960  0.00  0.00    +0.000 C 
ATOM     21  C   UNL     1      44.101   8.011  28.494  0.00  0.00    +0.000 C 
ATOM     22  C   UNL     1      42.205   6.231  28.432  0.00  0.00    +0.000 C 
BRANCH  17  23
ATOM     23  O   UNL     1      45.774   9.866  28.373  0.00  0.00    +0.000 OA
ATOM     24  H   UNL     1      46.212  10.288  27.606  0.00  0.00    +0.000 HD
ENDBRANCH  17  23
ENDBRANCH  11  16
ENDBRANCH   9  12
ENDBRANCH   8   9
ENDBRANCH   6   8
ENDBRANCH   4   7
ENDBRANCH   3   4
ENDBRANCH   2   3
BRANCH   1  25
ATOM     25  C   UNL     1      36.508  14.790  21.050  0.00  0.00    +0.000 C 
BRANCH  25  26
ATOM     26  C   UNL     1      36.907  15.909  20.532  0.00  0.00    +0.000 C 
ATOM     27  C   UNL     1      38.053  15.918  19.565  0.00  0.00    +0.000 C 
BRANCH  26  29
ATOM     28  C   UNL     1      35.819  18.162  21.293  0.00  0.00    +0.000 C 
ATOM     29  C   UNL     1      36.320  17.128  20.944  0.00  0.00    +0.000 C 
BRANCH  28  30
ATOM     30  C   UNL     1      35.176  19.482  21.739  0.00  0.00    +0.000 C 
BRANCH  30  31
ATOM     31  C   UNL     1      34.627  20.595  22.109  0.00  0.00    +0.000 C 
ATOM     32  C   UNL     1      33.784  21.371  21.143  0.00  0.00    +0.000 C 
BRANCH  31  34
ATOM     33  C   UNL     1      34.744  21.353  24.615  0.00  0.00    +0.000 C 
ATOM     34  C   UNL     1      34.693  20.994  23.468  0.00  0.00    +0.000 C 
BRANCH  33  38
ATOM     35  O   UNL     1      36.481  24.401  28.037  0.00  0.00    +0.000 OA
ATOM     36  C   UNL     1      33.940  21.049  27.033  0.00  0.00    +0.000 C 
ATOM     37  C   UNL     1      34.201  21.712  28.299  0.00  0.00    +0.000 C 
ATOM     38  C   UNL     1      34.805  21.804  25.992  0.00  0.00    +0.000 C 
ATOM     39  C   UNL     1      34.972  22.771  28.773  0.00  0.00    +0.000 C 
ATOM     40  C   UNL     1      32.448  21.196  26.652  0.00  0.00    +0.000 C 
ATOM     41  C   UNL     1      34.389  19.573  27.102  0.00  0.00    +0.000 C 
ATOM     42  C   UNL     1      35.603  22.863  26.320  0.00  0.00    +0.000 C 
ATOM     43  C   UNL     1      35.770  23.452  27.731  0.00  0.00    +0.000 C 
ATOM     44  C   UNL     1      36.408  23.551  25.210  0.00  0.00    +0.000 C 
BRANCH  39  45
ATOM     45  O   UNL     1      34.987  23.153  30.086  0.00  0.00    +0.000 OA
ATOM     46  H   UNL     1      34.997  22.370  30.675  0.00  0.00    +0.000 HD
ENDBRANCH  39  45
ENDBRANCH  33  38
ENDBRANCH  31  34
ENDBRANCH  30  31
ENDBRANCH  28  30
ENDBRANCH  26  29
ENDBRANCH  25  26
ENDBRANCH   1  25
TORSDOF 16
ENDMDL
MODEL 4
REMARK VINA RESULT:      -5.8      6.030      8.261
REMARK  Name = 5281224_Astaxanthin.pdbqt.pdb
REMARK  16 active torsions:
REMARK  status: ('A' for Active; 'I' for Inactive)
REMARK    1  A    between atoms: C_1  and  C_5
REMARK    2  A    between atoms: C_2  and  C_27
REMARK    3  A    between atoms: C_3  and  C_5
REMARK    4  A    between atoms: C_3  and  C_7
REMARK    5  A    between atoms: C_6  and  C_10
REMARK    6  A    between atoms: C_8  and  C_10
REMARK    7  A    between atoms: C_8  and  C_12
REMARK    8  A    between atoms: C_11  and  C_16
REMARK    9  A    between atoms: C_17  and  O_23
REMARK   10  A    between atoms: C_25  and  C_27
REMARK   11  A    between atoms: C_25  and  C_29
REMARK   12  A    between atoms: C_28  and  C_32
REMARK   13  A    between atoms: C_30  and  C_32
REMARK   14  A    between atoms: C_30  and  C_34
REMARK   15  A    between atoms: C_33  and  C_38
REMARK   16  A    between atoms: C_39  and  O_45
REMARK                            x       y       z     vdW  Elec       q    Type
REMARK                         _______ _______ _______ _____ _____    ______ ____
ROOT
ATOM      1  C   UNL     1      36.292  14.268  20.998  0.00  0.00    +0.000 C 
ATOM      2  C   UNL     1      35.876  13.218  21.403  0.00  0.00    +0.000 C 
ENDROOT
BRANCH   2   3
ATOM      3  C   UNL     1      35.351  11.871  21.916  0.00  0.00    +0.000 C 
BRANCH   3   4
ATOM      4  C   UNL     1      34.903  10.737  22.354  0.00  0.00    +0.000 C 
ATOM      5  C   UNL     1      33.728  10.089  21.686  0.00  0.00    +0.000 C 
BRANCH   4   7
ATOM      6  C   UNL     1      35.956   9.651  24.488  0.00  0.00    +0.000 C 
ATOM      7  C   UNL     1      35.471  10.150  23.510  0.00  0.00    +0.000 C 
BRANCH   6   8
ATOM      8  C   UNL     1      36.579   9.013  25.735  0.00  0.00    +0.000 C 
BRANCH   8   9
ATOM      9  C   UNL     1      37.108   8.466  26.786  0.00  0.00    +0.000 C 
ATOM     10  C   UNL     1      36.270   7.604  27.682  0.00  0.00    +0.000 C 
BRANCH   9  12
ATOM     11  C   UNL     1      39.689   8.630  27.200  0.00  0.00    +0.000 C 
ATOM     12  C   UNL     1      38.505   8.561  27.000  0.00  0.00    +0.000 C 
BRANCH  11  16
ATOM     13  O   UNL     1      43.529   8.008  30.181  0.00  0.00    +0.000 OA
ATOM     14  C   UNL     1      42.024   9.228  26.316  0.00  0.00    +0.000 C 
ATOM     15  C   UNL     1      43.372   9.194  26.855  0.00  0.00    +0.000 C 
ATOM     16  C   UNL     1      41.113   8.708  27.459  0.00  0.00    +0.000 C 
ATOM     17  C   UNL     1      44.001   8.841  28.045  0.00  0.00    +0.000 C 
ATOM     18  C   UNL     1      41.909   8.272  25.105  0.00  0.00    +0.000 C 
ATOM     19  C   UNL     1      41.626  10.678  25.961  0.00  0.00    +0.000 C 
ATOM     20  C   UNL     1      41.602   8.325  28.675  0.00  0.00    +0.000 C 
ATOM     21  C   UNL     1      43.081   8.350  29.095  0.00  0.00    +0.000 C 
ATOM     22  C   UNL     1      40.617   7.810  29.735  0.00  0.00    +0.000 C 
BRANCH  17  23
ATOM     23  O   UNL     1      45.354   8.933  28.231  0.00  0.00    +0.000 OA
ATOM     24  H   UNL     1      45.558   9.365  29.086  0.00  0.00    +0.000 HD
ENDBRANCH  17  23
ENDBRANCH  11  16
ENDBRANCH   9  12
ENDBRANCH   8   9
ENDBRANCH   6   8
ENDBRANCH   4   7
ENDBRANCH   3   4
ENDBRANCH   2   3
BRANCH   1  25
ATOM     25  C   UNL     1      36.830  15.605  20.475  0.00  0.00    +0.000 C 
BRANCH  25  26
ATOM     26  C   UNL     1      37.285  16.733  20.027  0.00  0.00    +0.000 C 
ATOM     27  C   UNL     1      38.522  16.756  19.180  0.00  0.00    +0.000 C 
BRANCH  26  29
ATOM     28  C   UNL     1      36.140  18.975  20.735  0.00  0.00    +0.000 C 
ATOM     29  C   UNL     1      36.667  17.947  20.409  0.00  0.00    +0.000 C 
BRANCH  28  30
ATOM     30  C   UNL     1      35.464  20.288  21.151  0.00  0.00    +0.000 C 
BRANCH  30  31
ATOM     31  C   UNL     1      34.893  21.394  21.511  0.00  0.00    +0.000 C 
ATOM     32  C   UNL     1      33.402  21.523  21.445  0.00  0.00    +0.000 C 
BRANCH  31  34
ATOM     33  C   UNL     1      36.312  23.283  22.645  0.00  0.00    +0.000 C 
ATOM     34  C   UNL     1      35.665  22.419  22.114  0.00  0.00    +0.000 C 
BRANCH  33  38
ATOM     35  O   UNL     1      40.511  25.730  23.279  0.00  0.00    +0.000 OA
ATOM     36  C   UNL     1      36.361  25.188  24.365  0.00  0.00    +0.000 C 
ATOM     37  C   UNL     1      37.365  26.124  24.840  0.00  0.00    +0.000 C 
ATOM     38  C   UNL     1      37.083  24.321  23.302  0.00  0.00    +0.000 C 
ATOM     39  C   UNL     1      38.704  26.415  24.599  0.00  0.00    +0.000 C 
ATOM     40  C   UNL     1      35.197  25.951  23.690  0.00  0.00    +0.000 C 
ATOM     41  C   UNL     1      35.881  24.286  25.524  0.00  0.00    +0.000 C 
ATOM     42  C   UNL     1      38.394  24.503  22.966  0.00  0.00    +0.000 C 
ATOM     43  C   UNL     1      39.335  25.557  23.572  0.00  0.00    +0.000 C 
ATOM     44  C   UNL     1      39.011  23.600  21.888  0.00  0.00    +0.000 C 
BRANCH  39  45
ATOM     45  O   UNL     1      39.381  27.410  25.250  0.00  0.00    +0.000 OA
ATOM     46  H   UNL     1      40.323  27.169  25.369  0.00  0.00    +0.000 HD
ENDBRANCH  39  45
ENDBRANCH  33  38
ENDBRANCH  31  34
ENDBRANCH  30  31
ENDBRANCH  28  30
ENDBRANCH  26  29
ENDBRANCH  25  26
ENDBRANCH   1  25
TORSDOF 16
ENDMDL
MODEL 5
REMARK VINA RESULT:      -5.6     19.294     26.267
REMARK  Name = 5281224_Astaxanthin.pdbqt.pdb
REMARK  16 active torsions:
REMARK  status: ('A' for Active; 'I' for Inactive)
REMARK    1  A    between atoms: C_1  and  C_5
REMARK    2  A    between atoms: C_2  and  C_27
REMARK    3  A    between atoms: C_3  and  C_5
REMARK    4  A    between atoms: C_3  and  C_7
REMARK    5  A    between atoms: C_6  and  C_10
REMARK    6  A    between atoms: C_8  and  C_10
REMARK    7  A    between atoms: C_8  and  C_12
REMARK    8  A    between atoms: C_11  and  C_16
REMARK    9  A    between atoms: C_17  and  O_23
REMARK   10  A    between atoms: C_25  and  C_27
REMARK   11  A    between atoms: C_25  and  C_29
REMARK   12  A    between atoms: C_28  and  C_32
REMARK   13  A    between atoms: C_30  and  C_32
REMARK   14  A    between atoms: C_30  and  C_34
REMARK   15  A    between atoms: C_33  and  C_38
REMARK   16  A    between atoms: C_39  and  O_45
REMARK                            x       y       z     vdW  Elec       q    Type
REMARK                         _______ _______ _______ _____ _____    ______ ____
ROOT
ATOM      1  C   UNL     1      23.475   2.247   1.128  0.00  0.00    +0.000 C 
ATOM      2  C   UNL     1      23.684   1.093   0.873  0.00  0.00    +0.000 C 
ENDROOT
BRANCH   2   3
ATOM      3  C   UNL     1      23.949  -0.384   0.556  0.00  0.00    +0.000 C 
BRANCH   3   4
ATOM      4  C   UNL     1      24.179  -1.631   0.289  0.00  0.00    +0.000 C 
ATOM      5  C   UNL     1      23.075  -2.638   0.409  0.00  0.00    +0.000 C 
BRANCH   4   7
ATOM      6  C   UNL     1      26.603  -2.411  -0.312  0.00  0.00    +0.000 C 
ATOM      7  C   UNL     1      25.489  -2.054  -0.038  0.00  0.00    +0.000 C 
BRANCH   6   8
ATOM      8  C   UNL     1      28.025  -2.866  -0.659  0.00  0.00    +0.000 C 
BRANCH   8   9
ATOM      9  C   UNL     1      29.231  -3.248  -0.945  0.00  0.00    +0.000 C 
ATOM     10  C   UNL     1      29.791  -4.487  -0.315  0.00  0.00    +0.000 C 
BRANCH   9  12
ATOM     11  C   UNL     1      30.556  -2.002  -2.829  0.00  0.00    +0.000 C 
ATOM     12  C   UNL     1      29.957  -2.582  -1.962  0.00  0.00    +0.000 C 
BRANCH  11  16
ATOM     13  O   UNL     1      31.549  -1.277  -7.574  0.00  0.00    +0.000 OA
ATOM     14  C   UNL     1      32.233  -0.161  -3.453  0.00  0.00    +0.000 C 
ATOM     15  C   UNL     1      32.785   0.357  -4.693  0.00  0.00    +0.000 C 
ATOM     16  C   UNL     1      31.264  -1.294  -3.879  0.00  0.00    +0.000 C 
ATOM     17  C   UNL     1      32.671   0.110  -6.058  0.00  0.00    +0.000 C 
ATOM     18  C   UNL     1      31.431   0.943  -2.724  0.00  0.00    +0.000 C 
ATOM     19  C   UNL     1      33.358  -0.749  -2.573  0.00  0.00    +0.000 C 
ATOM     20  C   UNL     1      31.055  -1.636  -5.184  0.00  0.00    +0.000 C 
ATOM     21  C   UNL     1      31.729  -0.980  -6.401  0.00  0.00    +0.000 C 
ATOM     22  C   UNL     1      30.062  -2.763  -5.500  0.00  0.00    +0.000 C 
BRANCH  17  23
ATOM     23  O   UNL     1      33.363   0.814  -7.005  0.00  0.00    +0.000 OA
ATOM     24  H   UNL     1      33.496   0.274  -7.811  0.00  0.00    +0.000 HD
ENDBRANCH  17  23
ENDBRANCH  11  16
ENDBRANCH   9  12
ENDBRANCH   8   9
ENDBRANCH   6   8
ENDBRANCH   4   7
ENDBRANCH   3   4
ENDBRANCH   2   3
BRANCH   1  25
ATOM     25  C   UNL     1      23.205   3.719   1.463  0.00  0.00    +0.000 C 
BRANCH  25  26
ATOM     26  C   UNL     1      22.981   4.962   1.750  0.00  0.00    +0.000 C 
ATOM     27  C   UNL     1      21.865   5.696   1.068  0.00  0.00    +0.000 C 
BRANCH  26  29
ATOM     28  C   UNL     1      24.572   6.234   3.390  0.00  0.00    +0.000 C 
ATOM     29  C   UNL     1      23.841   5.650   2.638  0.00  0.00    +0.000 C 
BRANCH  28  30
ATOM     30  C   UNL     1      25.509   6.981   4.349  0.00  0.00    +0.000 C 
BRANCH  30  31
ATOM     31  C   UNL     1      26.297   7.606   5.165  0.00  0.00    +0.000 C 
ATOM     32  C   UNL     1      27.740   7.211   5.263  0.00  0.00    +0.000 C 
BRANCH  31  34
ATOM     33  C   UNL     1      25.447   9.753   6.403  0.00  0.00    +0.000 C 
ATOM     34  C   UNL     1      25.834   8.761   5.843  0.00  0.00    +0.000 C 
BRANCH  33  38
ATOM     35  O   UNL     1      26.001  14.500   7.490  0.00  0.00    +0.000 OA
ATOM     36  C   UNL     1      23.671  10.877   7.876  0.00  0.00    +0.000 C 
ATOM     37  C   UNL     1      23.469  12.213   8.412  0.00  0.00    +0.000 C 
ATOM     38  C   UNL     1      24.989  10.960   7.063  0.00  0.00    +0.000 C 
ATOM     39  C   UNL     1      24.110  13.448   8.381  0.00  0.00    +0.000 C 
ATOM     40  C   UNL     1      22.511  10.505   6.922  0.00  0.00    +0.000 C 
ATOM     41  C   UNL     1      23.838   9.860   9.026  0.00  0.00    +0.000 C 
ATOM     42  C   UNL     1      25.715  12.110   6.947  0.00  0.00    +0.000 C 
ATOM     43  C   UNL     1      25.358  13.462   7.587  0.00  0.00    +0.000 C 
ATOM     44  C   UNL     1      26.999  12.089   6.106  0.00  0.00    +0.000 C 
BRANCH  39  45
ATOM     45  O   UNL     1      23.628  14.555   9.024  0.00  0.00    +0.000 OA
ATOM     46  H   UNL     1      23.975  14.603   9.939  0.00  0.00    +0.000 HD
ENDBRANCH  39  45
ENDBRANCH  33  38
ENDBRANCH  31  34
ENDBRANCH  30  31
ENDBRANCH  28  30
ENDBRANCH  26  29
ENDBRANCH  25  26
ENDBRANCH   1  25
TORSDOF 16
ENDMDL
MODEL 6
REMARK VINA RESULT:      -5.6     30.622     35.401
REMARK  Name = 5281224_Astaxanthin.pdbqt.pdb
REMARK  16 active torsions:
REMARK  status: ('A' for Active; 'I' for Inactive)
REMARK    1  A    between atoms: C_1  and  C_5
REMARK    2  A    between atoms: C_2  and  C_27
REMARK    3  A    between atoms: C_3  and  C_5
REMARK    4  A    between atoms: C_3  and  C_7
REMARK    5  A    between atoms: C_6  and  C_10
REMARK    6  A    between atoms: C_8  and  C_10
REMARK    7  A    between atoms: C_8  and  C_12
REMARK    8  A    between atoms: C_11  and  C_16
REMARK    9  A    between atoms: C_17  and  O_23
REMARK   10  A    between atoms: C_25  and  C_27
REMARK   11  A    between atoms: C_25  and  C_29
REMARK   12  A    between atoms: C_28  and  C_32
REMARK   13  A    between atoms: C_30  and  C_32
REMARK   14  A    between atoms: C_30  and  C_34
REMARK   15  A    between atoms: C_33  and  C_38
REMARK   16  A    between atoms: C_39  and  O_45
REMARK                            x       y       z     vdW  Elec       q    Type
REMARK                         _______ _______ _______ _____ _____    ______ ____
ROOT
ATOM      1  C   UNL     1      39.972   1.440  -8.511  0.00  0.00    +0.000 C 
ATOM      2  C   UNL     1      38.915   1.812  -8.082  0.00  0.00    +0.000 C 
ENDROOT
BRANCH   2   3
ATOM      3  C   UNL     1      37.567   2.296  -7.531  0.00  0.00    +0.000 C 
BRANCH   3   4
ATOM      4  C   UNL     1      36.431   2.702  -7.059  0.00  0.00    +0.000 C 
ATOM      5  C   UNL     1      36.275   4.122  -6.605  0.00  0.00    +0.000 C 
BRANCH   4   7
ATOM      6  C   UNL     1      34.461   1.007  -6.763  0.00  0.00    +0.000 C 
ATOM      7  C   UNL     1      35.364   1.787  -6.899  0.00  0.00    +0.000 C 
BRANCH   6   8
ATOM      8  C   UNL     1      33.310   0.009  -6.589  0.00  0.00    +0.000 C 
BRANCH   8   9
ATOM      9  C   UNL     1      32.334  -0.832  -6.435  0.00  0.00    +0.000 C 
ATOM     10  C   UNL     1      31.864  -1.652  -7.597  0.00  0.00    +0.000 C 
BRANCH   9  12
ATOM     11  C   UNL     1      31.403  -1.296  -4.031  0.00  0.00    +0.000 C 
ATOM     12  C   UNL     1      31.819  -1.080  -5.139  0.00  0.00    +0.000 C 
BRANCH  11  16
ATOM     13  O   UNL     1      31.563  -3.867   0.139  0.00  0.00    +0.000 OA
ATOM     14  C   UNL     1      29.771  -0.667  -2.151  0.00  0.00    +0.000 C 
ATOM     15  C   UNL     1      29.501  -1.158  -0.811  0.00  0.00    +0.000 C 
ATOM     16  C   UNL     1      30.917  -1.562  -2.691  0.00  0.00    +0.000 C 
ATOM     17  C   UNL     1      29.974  -2.151   0.041  0.00  0.00    +0.000 C 
ATOM     18  C   UNL     1      30.260   0.799  -2.094  0.00  0.00    +0.000 C 
ATOM     19  C   UNL     1      28.522  -0.837  -3.044  0.00  0.00    +0.000 C 
ATOM     20  C   UNL     1      31.476  -2.569  -1.957  0.00  0.00    +0.000 C 
ATOM     21  C   UNL     1      31.069  -2.968  -0.529  0.00  0.00    +0.000 C 
ATOM     22  C   UNL     1      32.616  -3.387  -2.578  0.00  0.00    +0.000 C 
BRANCH  17  23
ATOM     23  O   UNL     1      29.478  -2.354   1.301  0.00  0.00    +0.000 OA
ATOM     24  H   UNL     1      29.385  -1.504   1.778  0.00  0.00    +0.000 HD
ENDBRANCH  17  23
ENDBRANCH  11  16
ENDBRANCH   9  12
ENDBRANCH   8   9
ENDBRANCH   6   8
ENDBRANCH   4   7
ENDBRANCH   3   4
ENDBRANCH   2   3
BRANCH   1  25
ATOM     25  C   UNL     1      41.327   0.973  -9.055  0.00  0.00    +0.000 C 
BRANCH  25  26
ATOM     26  C   UNL     1      42.470   0.576  -9.520  0.00  0.00    +0.000 C 
ATOM     27  C   UNL     1      43.705   1.383  -9.255  0.00  0.00    +0.000 C 
BRANCH  26  29
ATOM     28  C   UNL     1      42.594  -1.540 -11.052  0.00  0.00    +0.000 C 
ATOM     29  C   UNL     1      42.538  -0.569 -10.347  0.00  0.00    +0.000 C 
BRANCH  28  30
ATOM     30  C   UNL     1      42.663  -2.780 -11.954  0.00  0.00    +0.000 C 
BRANCH  30  31
ATOM     31  C   UNL     1      42.713  -3.824 -12.719  0.00  0.00    +0.000 C 
ATOM     32  C   UNL     1      43.827  -3.970 -13.712  0.00  0.00    +0.000 C 
BRANCH  31  34
ATOM     33  C   UNL     1      41.058  -5.818 -12.337  0.00  0.00    +0.000 C 
ATOM     34  C   UNL     1      41.810  -4.895 -12.508  0.00  0.00    +0.000 C 
BRANCH  33  38
ATOM     35  O   UNL     1      39.641 -10.386 -13.408  0.00  0.00    +0.000 OA
ATOM     36  C   UNL     1      39.026  -6.782 -11.099  0.00  0.00    +0.000 C 
ATOM     37  C   UNL     1      38.307  -8.045 -11.121  0.00  0.00    +0.000 C 
ATOM     38  C   UNL     1      40.162  -6.943 -12.142  0.00  0.00    +0.000 C 
ATOM     39  C   UNL     1      38.377  -9.263 -11.790  0.00  0.00    +0.000 C 
ATOM     40  C   UNL     1      39.650  -6.548  -9.703  0.00  0.00    +0.000 C 
ATOM     41  C   UNL     1      38.093  -5.629 -11.529  0.00  0.00    +0.000 C 
ATOM     42  C   UNL     1      40.348  -8.086 -12.864  0.00  0.00    +0.000 C 
ATOM     43  C   UNL     1      39.484  -9.355 -12.767  0.00  0.00    +0.000 C 
ATOM     44  C   UNL     1      41.513  -8.148 -13.860  0.00  0.00    +0.000 C 
BRANCH  39  45
ATOM     45  O   UNL     1      37.503 -10.291 -11.562  0.00  0.00    +0.000 OA
ATOM     46  H   UNL     1      37.547 -10.950 -12.285  0.00  0.00    +0.000 HD
ENDBRANCH  39  45
ENDBRANCH  33  38
ENDBRANCH  31  34
ENDBRANCH  30  31
ENDBRANCH  28  30
ENDBRANCH  26  29
ENDBRANCH  25  26
ENDBRANCH   1  25
TORSDOF 16
ENDMDL
MODEL 7
REMARK VINA RESULT:      -5.5     24.151     28.117
REMARK  Name = 5281224_Astaxanthin.pdbqt.pdb
REMARK  16 active torsions:
REMARK  status: ('A' for Active; 'I' for Inactive)
REMARK    1  A    between atoms: C_1  and  C_5
REMARK    2  A    between atoms: C_2  and  C_27
REMARK    3  A    between atoms: C_3  and  C_5
REMARK    4  A    between atoms: C_3  and  C_7
REMARK    5  A    between atoms: C_6  and  C_10
REMARK    6  A    between atoms: C_8  and  C_10
REMARK    7  A    between atoms: C_8  and  C_12
REMARK    8  A    between atoms: C_11  and  C_16
REMARK    9  A    between atoms: C_17  and  O_23
REMARK   10  A    between atoms: C_25  and  C_27
REMARK   11  A    between atoms: C_25  and  C_29
REMARK   12  A    between atoms: C_28  and  C_32
REMARK   13  A    between atoms: C_30  and  C_32
REMARK   14  A    between atoms: C_30  and  C_34
REMARK   15  A    between atoms: C_33  and  C_38
REMARK   16  A    between atoms: C_39  and  O_45
REMARK                            x       y       z     vdW  Elec       q    Type
REMARK                         _______ _______ _______ _____ _____    ______ ____
ROOT
ATOM      1  C   UNL     1      23.784   0.667   0.862  0.00  0.00    +0.000 C 
ATOM      2  C   UNL     1      24.319  -0.403   0.952  0.00  0.00    +0.000 C 
ENDROOT
BRANCH   2   3
ATOM      3  C   UNL     1      24.996  -1.774   1.073  0.00  0.00    +0.000 C 
BRANCH   3   4
ATOM      4  C   UNL     1      25.570  -2.931   1.181  0.00  0.00    +0.000 C 
ATOM      5  C   UNL     1      25.122  -3.892   2.241  0.00  0.00    +0.000 C 
BRANCH   4   7
ATOM      6  C   UNL     1      27.606  -3.532  -0.348  0.00  0.00    +0.000 C 
ATOM      7  C   UNL     1      26.671  -3.255   0.352  0.00  0.00    +0.000 C 
BRANCH   6   8
ATOM      8  C   UNL     1      28.799  -3.890  -1.241  0.00  0.00    +0.000 C 
BRANCH   8   9
ATOM      9  C   UNL     1      29.814  -4.186  -1.993  0.00  0.00    +0.000 C 
ATOM     10  C   UNL     1      30.284  -5.606  -2.089  0.00  0.00    +0.000 C 
BRANCH   9  12
ATOM     11  C   UNL     1      30.861  -2.372  -3.566  0.00  0.00    +0.000 C 
ATOM     12  C   UNL     1      30.376  -3.196  -2.836  0.00  0.00    +0.000 C 
BRANCH  11  16
ATOM     13  O   UNL     1      32.364  -1.010  -8.028  0.00  0.00    +0.000 OA
ATOM     14  C   UNL     1      31.873  -0.029  -3.845  0.00  0.00    +0.000 C 
ATOM     15  C   UNL     1      32.421   0.733  -4.954  0.00  0.00    +0.000 C 
ATOM     16  C   UNL     1      31.451  -1.391  -4.456  0.00  0.00    +0.000 C 
ATOM     17  C   UNL     1      32.645   0.562  -6.316  0.00  0.00    +0.000 C 
ATOM     18  C   UNL     1      30.621   0.679  -3.277  0.00  0.00    +0.000 C 
ATOM     19  C   UNL     1      32.957  -0.262  -2.770  0.00  0.00    +0.000 C 
ATOM     20  C   UNL     1      31.610  -1.688  -5.779  0.00  0.00    +0.000 C 
ATOM     21  C   UNL     1      32.218  -0.755  -6.840  0.00  0.00    +0.000 C 
ATOM     22  C   UNL     1      31.145  -3.060  -6.287  0.00  0.00    +0.000 C 
BRANCH  17  23
ATOM     23  O   UNL     1      33.205   1.528  -7.109  0.00  0.00    +0.000 OA
ATOM     24  H   UNL     1      33.489   2.295  -6.572  0.00  0.00    +0.000 HD
ENDBRANCH  17  23
ENDBRANCH  11  16
ENDBRANCH   9  12
ENDBRANCH   8   9
ENDBRANCH   6   8
ENDBRANCH   4   7
ENDBRANCH   3   4
ENDBRANCH   2   3
BRANCH   1  25
ATOM     25  C   UNL     1      23.094   2.031   0.754  0.00  0.00    +0.000 C 
BRANCH  25  26
ATOM     26  C   UNL     1      22.514   3.187   0.663  0.00  0.00    +0.000 C 
ATOM     27  C   UNL     1      21.061   3.268   0.304  0.00  0.00    +0.000 C 
BRANCH  26  29
ATOM     28  C   UNL     1      23.912   5.379   0.951  0.00  0.00    +0.000 C 
ATOM     29  C   UNL     1      23.271   4.372   0.818  0.00  0.00    +0.000 C 
BRANCH  28  30
ATOM     30  C   UNL     1      24.729   6.667   1.123  0.00  0.00    +0.000 C 
BRANCH  30  31
ATOM     31  C   UNL     1      25.411   7.759   1.267  0.00  0.00    +0.000 C 
ATOM     32  C   UNL     1      25.097   8.694   2.395  0.00  0.00    +0.000 C 
BRANCH  31  34
ATOM     33  C   UNL     1      27.510   8.201  -0.238  0.00  0.00    +0.000 C 
ATOM     34  C   UNL     1      26.550   7.988   0.456  0.00  0.00    +0.000 C 
BRANCH  33  38
ATOM     35  O   UNL     1      31.209  11.111  -1.605  0.00  0.00    +0.000 OA
ATOM     36  C   UNL     1      29.046   7.404  -2.133  0.00  0.00    +0.000 C 
ATOM     37  C   UNL     1      30.210   7.944  -2.815  0.00  0.00    +0.000 C 
ATOM     38  C   UNL     1      28.657   8.475  -1.081  0.00  0.00    +0.000 C 
ATOM     39  C   UNL     1      31.000   9.088  -2.764  0.00  0.00    +0.000 C 
ATOM     40  C   UNL     1      29.416   6.090  -1.404  0.00  0.00    +0.000 C 
ATOM     41  C   UNL     1      27.883   7.217  -3.131  0.00  0.00    +0.000 C 
ATOM     42  C   UNL     1      29.349   9.641  -0.922  0.00  0.00    +0.000 C 
ATOM     43  C   UNL     1      30.581  10.068  -1.738  0.00  0.00    +0.000 C 
ATOM     44  C   UNL     1      28.890  10.629   0.159  0.00  0.00    +0.000 C 
BRANCH  39  45
ATOM     45  O   UNL     1      32.075   9.291  -3.586  0.00  0.00    +0.000 OA
ATOM     46  H   UNL     1      32.153   8.565  -4.239  0.00  0.00    +0.000 HD
ENDBRANCH  39  45
ENDBRANCH  33  38
ENDBRANCH  31  34
ENDBRANCH  30  31
ENDBRANCH  28  30
ENDBRANCH  26  29
ENDBRANCH  25  26
ENDBRANCH   1  25
TORSDOF 16
ENDMDL
MODEL 8
REMARK VINA RESULT:      -5.3     34.792     36.766
REMARK  Name = 5281224_Astaxanthin.pdbqt.pdb
REMARK  16 active torsions:
REMARK  status: ('A' for Active; 'I' for Inactive)
REMARK    1  A    between atoms: C_1  and  C_5
REMARK    2  A    between atoms: C_2  and  C_27
REMARK    3  A    between atoms: C_3  and  C_5
REMARK    4  A    between atoms: C_3  and  C_7
REMARK    5  A    between atoms: C_6  and  C_10
REMARK    6  A    between atoms: C_8  and  C_10
REMARK    7  A    between atoms: C_8  and  C_12
REMARK    8  A    between atoms: C_11  and  C_16
REMARK    9  A    between atoms: C_17  and  O_23
REMARK   10  A    between atoms: C_25  and  C_27
REMARK   11  A    between atoms: C_25  and  C_29
REMARK   12  A    between atoms: C_28  and  C_32
REMARK   13  A    between atoms: C_30  and  C_32
REMARK   14  A    between atoms: C_30  and  C_34
REMARK   15  A    between atoms: C_33  and  C_38
REMARK   16  A    between atoms: C_39  and  O_45
REMARK                            x       y       z     vdW  Elec       q    Type
REMARK                         _______ _______ _______ _____ _____    ______ ____
ROOT
ATOM      1  C   UNL     1      48.034  -7.523 -11.401  0.00  0.00    +0.000 C 
ATOM      2  C   UNL     1      48.934  -7.563 -10.609  0.00  0.00    +0.000 C 
ENDROOT
BRANCH   2   3
ATOM      3  C   UNL     1      50.088  -7.622  -9.599  0.00  0.00    +0.000 C 
BRANCH   3   4
ATOM      4  C   UNL     1      51.061  -7.665  -8.745  0.00  0.00    +0.000 C 
ATOM      5  C   UNL     1      52.429  -7.203  -9.146  0.00  0.00    +0.000 C 
BRANCH   4   7
ATOM      6  C   UNL     1      50.668  -8.696  -6.373  0.00  0.00    +0.000 C 
ATOM      7  C   UNL     1      50.850  -8.223  -7.461  0.00  0.00    +0.000 C 
BRANCH   6   8
ATOM      8  C   UNL     1      50.432  -9.303  -4.984  0.00  0.00    +0.000 C 
BRANCH   8   9
ATOM      9  C   UNL     1      50.240  -9.820  -3.811  0.00  0.00    +0.000 C 
ATOM     10  C   UNL     1      51.411 -10.125  -2.927  0.00  0.00    +0.000 C 
BRANCH   9  12
ATOM     11  C   UNL     1      47.803 -10.047  -2.877  0.00  0.00    +0.000 C 
ATOM     12  C   UNL     1      48.921  -9.955  -3.309  0.00  0.00    +0.000 C 
BRANCH  11  16
ATOM     13  O   UNL     1      43.106 -11.360  -3.366  0.00  0.00    +0.000 OA
ATOM     14  C   UNL     1      46.207  -9.607  -0.915  0.00  0.00    +0.000 C 
ATOM     15  C   UNL     1      44.795  -9.833  -0.662  0.00  0.00    +0.000 C 
ATOM     16  C   UNL     1      46.456 -10.143  -2.349  0.00  0.00    +0.000 C 
ATOM     17  C   UNL     1      43.697 -10.367  -1.330  0.00  0.00    +0.000 C 
ATOM     18  C   UNL     1      47.065 -10.418   0.084  0.00  0.00    +0.000 C 
ATOM     19  C   UNL     1      46.522  -8.095  -0.869  0.00  0.00    +0.000 C 
ATOM     20  C   UNL     1      45.468 -10.696  -3.112  0.00  0.00    +0.000 C 
ATOM     21  C   UNL     1      43.999 -10.865  -2.691  0.00  0.00    +0.000 C 
ATOM     22  C   UNL     1      45.822 -11.211  -4.514  0.00  0.00    +0.000 C 
BRANCH  17  23
ATOM     23  O   UNL     1      42.446 -10.434  -0.778  0.00  0.00    +0.000 OA
ATOM     24  H   UNL     1      41.761 -10.233  -1.447  0.00  0.00    +0.000 HD
ENDBRANCH  17  23
ENDBRANCH  11  16
ENDBRANCH   9  12
ENDBRANCH   8   9
ENDBRANCH   6   8
ENDBRANCH   4   7
ENDBRANCH   3   4
ENDBRANCH   2   3
BRANCH   1  25
ATOM     25  C   UNL     1      46.886  -7.482 -12.417  0.00  0.00    +0.000 C 
BRANCH  25  26
ATOM     26  C   UNL     1      45.919  -7.448 -13.279  0.00  0.00    +0.000 C 
ATOM     27  C   UNL     1      45.944  -8.366 -14.465  0.00  0.00    +0.000 C 
BRANCH  26  29
ATOM     28  C   UNL     1      44.011  -5.677 -13.040  0.00  0.00    +0.000 C 
ATOM     29  C   UNL     1      44.888  -6.489 -13.149  0.00  0.00    +0.000 C 
BRANCH  28  30
ATOM     30  C   UNL     1      42.888  -4.640 -12.904  0.00  0.00    +0.000 C 
BRANCH  30  31
ATOM     31  C   UNL     1      41.937  -3.767 -12.796  0.00  0.00    +0.000 C 
ATOM     32  C   UNL     1      40.580  -4.066 -13.358  0.00  0.00    +0.000 C 
BRANCH  31  34
ATOM     33  C   UNL     1      42.317  -1.626 -11.335  0.00  0.00    +0.000 C 
ATOM     34  C   UNL     1      42.135  -2.603 -12.013  0.00  0.00    +0.000 C 
BRANCH  33  38
ATOM     35  O   UNL     1      41.027   1.283  -7.608  0.00  0.00    +0.000 OA
ATOM     36  C   UNL     1      43.787   0.415 -10.821  0.00  0.00    +0.000 C 
ATOM     37  C   UNL     1      43.757   1.489  -9.843  0.00  0.00    +0.000 C 
ATOM     38  C   UNL     1      42.546  -0.459 -10.504  0.00  0.00    +0.000 C 
ATOM     39  C   UNL     1      42.958   1.897  -8.779  0.00  0.00    +0.000 C 
ATOM     40  C   UNL     1      45.066  -0.437 -10.639  0.00  0.00    +0.000 C 
ATOM     41  C   UNL     1      43.660   0.990 -12.249  0.00  0.00    +0.000 C 
ATOM     42  C   UNL     1      41.683  -0.176  -9.485  0.00  0.00    +0.000 C 
ATOM     43  C   UNL     1      41.794   1.019  -8.525  0.00  0.00    +0.000 C 
ATOM     44  C   UNL     1      40.493  -1.115  -9.245  0.00  0.00    +0.000 C 
BRANCH  39  45
ATOM     45  O   UNL     1      43.226   3.008  -8.028  0.00  0.00    +0.000 OA
ATOM     46  H   UNL     1      43.709   3.676  -8.557  0.00  0.00    +0.000 HD
ENDBRANCH  39  45
ENDBRANCH  33  38
ENDBRANCH  31  34
ENDBRANCH  30  31
ENDBRANCH  28  30
ENDBRANCH  26  29
ENDBRANCH  25  26
ENDBRANCH   1  25
TORSDOF 16
ENDMDL
MODEL 9
REMARK VINA RESULT:      -5.2     20.881     28.203
REMARK  Name = 5281224_Astaxanthin.pdbqt.pdb
REMARK  16 active torsions:
REMARK  status: ('A' for Active; 'I' for Inactive)
REMARK    1  A    between atoms: C_1  and  C_5
REMARK    2  A    between atoms: C_2  and  C_27
REMARK    3  A    between atoms: C_3  and  C_5
REMARK    4  A    between atoms: C_3  and  C_7
REMARK    5  A    between atoms: C_6  and  C_10
REMARK    6  A    between atoms: C_8  and  C_10
REMARK    7  A    between atoms: C_8  and  C_12
REMARK    8  A    between atoms: C_11  and  C_16
REMARK    9  A    between atoms: C_17  and  O_23
REMARK   10  A    between atoms: C_25  and  C_27
REMARK   11  A    between atoms: C_25  and  C_29
REMARK   12  A    between atoms: C_28  and  C_32
REMARK   13  A    between atoms: C_30  and  C_32
REMARK   14  A    between atoms: C_30  and  C_34
REMARK   15  A    between atoms: C_33  and  C_38
REMARK   16  A    between atoms: C_39  and  O_45
REMARK                            x       y       z     vdW  Elec       q    Type
REMARK                         _______ _______ _______ _____ _____    ______ ____
ROOT
ATOM      1  C   UNL     1      30.277   8.795  -3.308  0.00  0.00    +0.000 C 
ATOM      2  C   UNL     1      30.636   9.797  -3.861  0.00  0.00    +0.000 C 
ENDROOT
BRANCH   2   3
ATOM      3  C   UNL     1      31.090  11.084  -4.563  0.00  0.00    +0.000 C 
BRANCH   3   4
ATOM      4  C   UNL     1      31.479  12.169  -5.155  0.00  0.00    +0.000 C 
ATOM      5  C   UNL     1      31.338  12.301  -6.641  0.00  0.00    +0.000 C 
BRANCH   4   7
ATOM      6  C   UNL     1      32.646  14.064  -3.781  0.00  0.00    +0.000 C 
ATOM      7  C   UNL     1      32.109  13.194  -4.410  0.00  0.00    +0.000 C 
BRANCH   6   8
ATOM      8  C   UNL     1      33.334  15.176  -2.980  0.00  0.00    +0.000 C 
BRANCH   8   9
ATOM      9  C   UNL     1      33.921  16.118  -2.309  0.00  0.00    +0.000 C 
ATOM     10  C   UNL     1      35.071  16.863  -2.916  0.00  0.00    +0.000 C 
BRANCH   9  12
ATOM     11  C   UNL     1      32.918  16.877  -0.011  0.00  0.00    +0.000 C 
ATOM     12  C   UNL     1      33.380  16.540  -1.069  0.00  0.00    +0.000 C 
BRANCH  11  16
ATOM     13  O   UNL     1      32.022  20.277   3.403  0.00  0.00    +0.000 OA
ATOM     14  C   UNL     1      31.638  16.172   2.100  0.00  0.00    +0.000 C 
ATOM     15  C   UNL     1      31.187  16.843   3.306  0.00  0.00    +0.000 C 
ATOM     16  C   UNL     1      32.356  17.266   1.268  0.00  0.00    +0.000 C 
ATOM     17  C   UNL     1      31.233  18.120   3.858  0.00  0.00    +0.000 C 
ATOM     18  C   UNL     1      30.426  15.641   1.298  0.00  0.00    +0.000 C 
ATOM     19  C   UNL     1      32.643  15.054   2.456  0.00  0.00    +0.000 C 
ATOM     20  C   UNL     1      32.469  18.560   1.690  0.00  0.00    +0.000 C 
ATOM     21  C   UNL     1      31.927  19.120   3.015  0.00  0.00    +0.000 C 
ATOM     22  C   UNL     1      33.186  19.570   0.783  0.00  0.00    +0.000 C 
BRANCH  17  23
ATOM     23  O   UNL     1      30.681  18.430   5.071  0.00  0.00    +0.000 OA
ATOM     24  H   UNL     1      31.256  18.124   5.802  0.00  0.00    +0.000 HD
ENDBRANCH  17  23
ENDBRANCH  11  16
ENDBRANCH   9  12
ENDBRANCH   8   9
ENDBRANCH   6   8
ENDBRANCH   4   7
ENDBRANCH   3   4
ENDBRANCH   2   3
BRANCH   1  25
ATOM     25  C   UNL     1      29.811   7.519  -2.597  0.00  0.00    +0.000 C 
BRANCH  25  26
ATOM     26  C   UNL     1      29.413   6.440  -1.999  0.00  0.00    +0.000 C 
ATOM     27  C   UNL     1      29.235   6.435  -0.510  0.00  0.00    +0.000 C 
BRANCH  26  29
ATOM     28  C   UNL     1      29.075   4.237  -3.366  0.00  0.00    +0.000 C 
ATOM     29  C   UNL     1      29.231   5.248  -2.737  0.00  0.00    +0.000 C 
BRANCH  28  30
ATOM     30  C   UNL     1      28.874   2.946  -4.171  0.00  0.00    +0.000 C 
BRANCH  30  31
ATOM     31  C   UNL     1      28.710   1.860  -4.858  0.00  0.00    +0.000 C 
ATOM     32  C   UNL     1      28.050   1.916  -6.202  0.00  0.00    +0.000 C 
BRANCH  31  34
ATOM     33  C   UNL     1      29.808  -0.373  -4.037  0.00  0.00    +0.000 C 
ATOM     34  C   UNL     1      29.294   0.649  -4.408  0.00  0.00    +0.000 C 
BRANCH  33  38
ATOM     35  O   UNL     1      33.512  -2.730  -1.860  0.00  0.00    +0.000 OA
ATOM     36  C   UNL     1      29.703  -2.933  -3.896  0.00  0.00    +0.000 C 
ATOM     37  C   UNL     1      30.561  -3.974  -3.355  0.00  0.00    +0.000 C 
ATOM     38  C   UNL     1      30.442  -1.603  -3.603  0.00  0.00    +0.000 C 
ATOM     39  C   UNL     1      31.782  -4.068  -2.693  0.00  0.00    +0.000 C 
ATOM     40  C   UNL     1      28.342  -2.929  -3.160  0.00  0.00    +0.000 C 
ATOM     41  C   UNL     1      29.547  -3.111  -5.422  0.00  0.00    +0.000 C 
ATOM     42  C   UNL     1      31.644  -1.551  -2.958  0.00  0.00    +0.000 C 
ATOM     43  C   UNL     1      32.434  -2.764  -2.440  0.00  0.00    +0.000 C 
ATOM     44  C   UNL     1      32.286  -0.180  -2.703  0.00  0.00    +0.000 C 
BRANCH  39  45
ATOM     45  O   UNL     1      32.331  -5.259  -2.305  0.00  0.00    +0.000 OA
ATOM     46  H   UNL     1      31.915  -6.005  -2.784  0.00  0.00    +0.000 HD
ENDBRANCH  39  45
ENDBRANCH  33  38
ENDBRANCH  31  34
ENDBRANCH  30  31
ENDBRANCH  28  30
ENDBRANCH  26  29
ENDBRANCH  25  26
ENDBRANCH   1  25
TORSDOF 16
ENDMDL
