MODEL 1
REMARK VINA RESULT:      -5.9      0.000      0.000
REMARK  Name = 5281239_Fucoxanthin.pdbqt.pdb
REMARK  19 active torsions:
REMARK  status: ('A' for Active; 'I' for Inactive)
REMARK    1  A    between atoms: C_1  and  C_5
REMARK    2  A    between atoms: C_2  and  C_26
REMARK    3  A    between atoms: C_3  and  C_5
REMARK    4  A    between atoms: C_3  and  C_7
REMARK    5  A    between atoms: C_6  and  C_10
REMARK    6  A    between atoms: C_8  and  C_10
REMARK    7  A    between atoms: C_8  and  C_12
REMARK    8  A    between atoms: C_12  and  C_13
REMARK    9  A    between atoms: C_13  and  C_15
REMARK   10  A    between atoms: C_20  and  O_24
REMARK   11  A    between atoms: C_26  and  C_27
REMARK   12  A    between atoms: C_27  and  C_30
REMARK   13  A    between atoms: C_29  and  C_33
REMARK   14  A    between atoms: C_31  and  C_33
REMARK   15  A    between atoms: C_31  and  C_44
REMARK   16  A    between atoms: C_35  and  O_45
REMARK   17  A    between atoms: C_37  and  O_47
REMARK   18  A    between atoms: C_39  and  C_43
REMARK   19  A    between atoms: O_47  and  C_49
REMARK                            x       y       z     vdW  Elec       q    Type
REMARK                         _______ _______ _______ _____ _____    ______ ____
ROOT
ATOM      1  C   UNL     1      42.909  23.979  19.049  0.00  0.00    +0.000 C 
ATOM      2  C   UNL     1      44.023  23.843  18.625  0.00  0.00    +0.000 C 
ENDROOT
BRANCH   2   3
ATOM      3  C   UNL     1      45.450  23.672  18.090  0.00  0.00    +0.000 C 
BRANCH   3   4
ATOM      4  C   UNL     1      46.657  23.532  17.638  0.00  0.00    +0.000 C 
ATOM      5  C   UNL     1      47.391  24.715  17.087  0.00  0.00    +0.000 C 
BRANCH   4   7
ATOM      6  C   UNL     1      47.843  21.203  17.778  0.00  0.00    +0.000 C 
ATOM      7  C   UNL     1      47.297  22.272  17.715  0.00  0.00    +0.000 C 
BRANCH   6   8
ATOM      8  C   UNL     1      48.543  19.843  17.862  0.00  0.00    +0.000 C 
BRANCH   8   9
ATOM      9  C   UNL     1      49.145  18.696  17.931  0.00  0.00    +0.000 C 
ATOM     10  C   UNL     1      48.957  17.817  19.129  0.00  0.00    +0.000 C 
BRANCH   9  12
ATOM     11  C   UNL     1      50.864  18.014  16.076  0.00  0.00    +0.000 C 
ATOM     12  C   UNL     1      50.073  18.326  16.926  0.00  0.00    +0.000 C 
BRANCH  11  18
ATOM     13  C   UNL     1      53.244  17.586  15.418  0.00  0.00    +0.000 C 
ATOM     14  C   UNL     1      51.287  17.413  13.713  0.00  0.00    +0.000 C 
ATOM     15  C   UNL     1      53.946  16.910  14.318  0.00  0.00    +0.000 C 
ATOM     16  C   UNL     1      53.676  16.398  13.035  0.00  0.00    +0.000 C 
ATOM     17  C   UNL     1      52.312  16.738  12.925  0.00  0.00    +0.000 C 
ATOM     18  C   UNL     1      51.733  17.677  15.143  0.00  0.00    +0.000 C 
ATOM     19  C   UNL     1      53.801  19.023  15.600  0.00  0.00    +0.000 C 
ATOM     20  C   UNL     1      53.476  16.759  16.720  0.00  0.00    +0.000 C 
ATOM     21  C   UNL     1      50.825  18.707  13.037  0.00  0.00    +0.000 C 
BRANCH  14  22
ATOM     22  O   UNL     1      50.146  16.585  13.730  0.00  0.00    +0.000 OA
ATOM     23  H   UNL     1      49.788  16.730  12.835  0.00  0.00    +0.000 HD
ENDBRANCH  14  22
BRANCH  16  24
ATOM     24  O   UNL     1      54.556  16.676  11.997  0.00  0.00    +0.000 OA
BRANCH  24  26
ATOM     25  O   UNL     1      56.015  14.850  12.194  0.00  0.00    +0.000 OA
ATOM     26  C   UNL     1      55.197  15.543  11.617  0.00  0.00    +0.000 C 
ATOM     27  C   UNL     1      54.846  15.073  10.250  0.00  0.00    +0.000 C 
ENDBRANCH  24  26
ENDBRANCH  16  24
ENDBRANCH  11  18
ENDBRANCH   9  12
ENDBRANCH   8   9
ENDBRANCH   6   8
ENDBRANCH   4   7
ENDBRANCH   3   4
ENDBRANCH   2   3
BRANCH   1  28
ATOM     28  C   UNL     1      41.489  24.157  19.599  0.00  0.00    +0.000 C 
BRANCH  28  29
ATOM     29  C   UNL     1      40.291  24.318  20.064  0.00  0.00    +0.000 C 
ATOM     30  C   UNL     1      39.873  25.648  20.612  0.00  0.00    +0.000 C 
BRANCH  29  32
ATOM     31  C   UNL     1      38.641  22.288  20.106  0.00  0.00    +0.000 C 
ATOM     32  C   UNL     1      39.393  23.225  20.089  0.00  0.00    +0.000 C 
BRANCH  31  33
ATOM     33  C   UNL     1      37.693  21.083  20.121  0.00  0.00    +0.000 C 
BRANCH  33  34
ATOM     34  C   UNL     1      36.882  20.066  20.130  0.00  0.00    +0.000 C 
ATOM     35  C   UNL     1      37.016  19.077  18.990  0.00  0.00    +0.000 C 
BRANCH  34  37
ATOM     36  O   UNL     1      35.374  20.903  21.783  0.00  0.00    +0.000 OA
ATOM     37  C   UNL     1      35.848  19.932  21.201  0.00  0.00    +0.000 C 
BRANCH  37  38
ATOM     38  C   UNL     1      35.355  18.635  21.599  0.00  0.00    +0.000 C 
BRANCH  38  40
ATOM     39  O   UNL     1      35.395  17.034  23.353  0.00  0.00    +0.000 OA
ATOM     40  C   UNL     1      34.877  17.335  22.028  0.00  0.00    +0.000 C 
ATOM     41  C   UNL     1      33.985  17.236  23.284  0.00  0.00    +0.000 C 
ATOM     42  C   UNL     1      34.843  16.146  21.002  0.00  0.00    +0.000 C 
ATOM     43  C   UNL     1      33.257  16.023  23.474  0.00  0.00    +0.000 C 
ATOM     44  C   UNL     1      34.055  15.075  21.616  0.00  0.00    +0.000 C 
ATOM     45  C   UNL     1      33.223  14.833  22.726  0.00  0.00    +0.000 C 
ATOM     46  C   UNL     1      33.509  18.463  24.066  0.00  0.00    +0.000 C 
ATOM     47  C   UNL     1      34.138  16.707  19.743  0.00  0.00    +0.000 C 
ATOM     48  C   UNL     1      36.318  15.771  20.737  0.00  0.00    +0.000 C 
BRANCH  45  49
ATOM     49  O   UNL     1      32.107  14.059  22.623  0.00  0.00    +0.000 OA
ATOM     50  H   UNL     1      31.996  13.464  23.385  0.00  0.00    +0.000 HD
ENDBRANCH  45  49
ENDBRANCH  38  40
ENDBRANCH  37  38
ENDBRANCH  34  37
ENDBRANCH  33  34
ENDBRANCH  31  33
ENDBRANCH  29  32
ENDBRANCH  28  29
ENDBRANCH   1  28
TORSDOF 19
ENDMDL
MODEL 2
REMARK VINA RESULT:      -5.7     20.880     28.426
REMARK  Name = 5281239_Fucoxanthin.pdbqt.pdb
REMARK  19 active torsions:
REMARK  status: ('A' for Active; 'I' for Inactive)
REMARK    1  A    between atoms: C_1  and  C_5
REMARK    2  A    between atoms: C_2  and  C_26
REMARK    3  A    between atoms: C_3  and  C_5
REMARK    4  A    between atoms: C_3  and  C_7
REMARK    5  A    between atoms: C_6  and  C_10
REMARK    6  A    between atoms: C_8  and  C_10
REMARK    7  A    between atoms: C_8  and  C_12
REMARK    8  A    between atoms: C_12  and  C_13
REMARK    9  A    between atoms: C_13  and  C_15
REMARK   10  A    between atoms: C_20  and  O_24
REMARK   11  A    between atoms: C_26  and  C_27
REMARK   12  A    between atoms: C_27  and  C_30
REMARK   13  A    between atoms: C_29  and  C_33
REMARK   14  A    between atoms: C_31  and  C_33
REMARK   15  A    between atoms: C_31  and  C_44
REMARK   16  A    between atoms: C_35  and  O_45
REMARK   17  A    between atoms: C_37  and  O_47
REMARK   18  A    between atoms: C_39  and  C_43
REMARK   19  A    between atoms: O_47  and  C_49
REMARK                            x       y       z     vdW  Elec       q    Type
REMARK                         _______ _______ _______ _____ _____    ______ ____
ROOT
ATOM      1  C   UNL     1      53.531  -7.075  13.856  0.00  0.00    +0.000 C 
ATOM      2  C   UNL     1      53.505  -6.805  15.025  0.00  0.00    +0.000 C 
ENDROOT
BRANCH   2   3
ATOM      3  C   UNL     1      53.470  -6.452  16.517  0.00  0.00    +0.000 C 
BRANCH   3   4
ATOM      4  C   UNL     1      53.444  -6.152  17.777  0.00  0.00    +0.000 C 
ATOM      5  C   UNL     1      54.727  -5.935  18.521  0.00  0.00    +0.000 C 
BRANCH   4   7
ATOM      6  C   UNL     1      51.150  -5.829  18.993  0.00  0.00    +0.000 C 
ATOM      7  C   UNL     1      52.203  -5.979  18.436  0.00  0.00    +0.000 C 
BRANCH   6   8
ATOM      8  C   UNL     1      49.803  -5.638  19.699  0.00  0.00    +0.000 C 
BRANCH   8   9
ATOM      9  C   UNL     1      48.664  -5.466  20.295  0.00  0.00    +0.000 C 
ATOM     10  C   UNL     1      48.457  -5.975  21.688  0.00  0.00    +0.000 C 
BRANCH   9  12
ATOM     11  C   UNL     1      46.654  -4.414  18.983  0.00  0.00    +0.000 C 
ATOM     12  C   UNL     1      47.576  -4.900  19.584  0.00  0.00    +0.000 C 
BRANCH  11  18
ATOM     13  C   UNL     1      44.474  -3.180  19.048  0.00  0.00    +0.000 C 
ATOM     14  C   UNL     1      45.544  -3.981  16.815  0.00  0.00    +0.000 C 
ATOM     15  C   UNL     1      43.645  -2.422  18.101  0.00  0.00    +0.000 C 
ATOM     16  C   UNL     1      43.531  -2.210  16.713  0.00  0.00    +0.000 C 
ATOM     17  C   UNL     1      44.559  -3.061  16.258  0.00  0.00    +0.000 C 
ATOM     18  C   UNL     1      45.641  -3.881  18.330  0.00  0.00    +0.000 C 
ATOM     19  C   UNL     1      43.615  -4.257  19.761  0.00  0.00    +0.000 C 
ATOM     20  C   UNL     1      45.048  -2.180  20.097  0.00  0.00    +0.000 C 
ATOM     21  C   UNL     1      45.269  -5.423  16.380  0.00  0.00    +0.000 C 
BRANCH  14  22
ATOM     22  O   UNL     1      46.795  -3.662  16.249  0.00  0.00    +0.000 OA
ATOM     23  H   UNL     1      47.118  -2.979  16.865  0.00  0.00    +0.000 HD
ENDBRANCH  14  22
BRANCH  16  24
ATOM     24  O   UNL     1      42.274  -2.247  16.124  0.00  0.00    +0.000 OA
BRANCH  24  26
ATOM     25  O   UNL     1      42.281  -1.803  13.820  0.00  0.00    +0.000 OA
ATOM     26  C   UNL     1      42.268  -1.493  14.997  0.00  0.00    +0.000 C 
ATOM     27  C   UNL     1      42.255  -0.026  15.247  0.00  0.00    +0.000 C 
ENDBRANCH  24  26
ENDBRANCH  16  24
ENDBRANCH  11  18
ENDBRANCH   9  12
ENDBRANCH   8   9
ENDBRANCH   6   8
ENDBRANCH   4   7
ENDBRANCH   3   4
ENDBRANCH   2   3
BRANCH   1  28
ATOM     28  C   UNL     1      53.561  -7.411  12.361  0.00  0.00    +0.000 C 
BRANCH  28  29
ATOM     29  C   UNL     1      53.575  -7.698  11.098  0.00  0.00    +0.000 C 
ATOM     30  C   UNL     1      54.227  -8.962  10.624  0.00  0.00    +0.000 C 
BRANCH  29  32
ATOM     31  C   UNL     1      52.528  -6.044   9.362  0.00  0.00    +0.000 C 
ATOM     32  C   UNL     1      53.008  -6.798  10.164  0.00  0.00    +0.000 C 
BRANCH  31  33
ATOM     33  C   UNL     1      51.916  -5.092   8.327  0.00  0.00    +0.000 C 
BRANCH  33  34
ATOM     34  C   UNL     1      51.391  -4.284   7.455  0.00  0.00    +0.000 C 
ATOM     35  C   UNL     1      50.165  -4.781   6.715  0.00  0.00    +0.000 C 
BRANCH  34  37
ATOM     36  O   UNL     1      52.886  -2.475   7.904  0.00  0.00    +0.000 OA
ATOM     37  C   UNL     1      52.016  -2.953   7.183  0.00  0.00    +0.000 C 
BRANCH  37  38
ATOM     38  C   UNL     1      51.618  -2.165   6.040  0.00  0.00    +0.000 C 
BRANCH  38  40
ATOM     39  O   UNL     1      50.266  -0.333   5.364  0.00  0.00    +0.000 OA
ATOM     40  C   UNL     1      51.202  -1.352   4.914  0.00  0.00    +0.000 C 
ATOM     41  C   UNL     1      51.528   0.157   4.913  0.00  0.00    +0.000 C 
ATOM     42  C   UNL     1      50.882  -2.040   3.539  0.00  0.00    +0.000 C 
ATOM     43  C   UNL     1      51.424   0.846   3.667  0.00  0.00    +0.000 C 
ATOM     44  C   UNL     1      50.787  -0.973   2.540  0.00  0.00    +0.000 C 
ATOM     45  C   UNL     1      51.028   0.407   2.392  0.00  0.00    +0.000 C 
ATOM     46  C   UNL     1      52.346   0.833   6.017  0.00  0.00    +0.000 C 
ATOM     47  C   UNL     1      52.086  -2.968   3.251  0.00  0.00    +0.000 C 
ATOM     48  C   UNL     1      49.568  -2.824   3.752  0.00  0.00    +0.000 C 
BRANCH  45  49
ATOM     49  O   UNL     1      51.548   0.918   1.242  0.00  0.00    +0.000 OA
ATOM     50  H   UNL     1      52.398   0.506   1.003  0.00  0.00    +0.000 HD
ENDBRANCH  45  49
ENDBRANCH  38  40
ENDBRANCH  37  38
ENDBRANCH  34  37
ENDBRANCH  33  34
ENDBRANCH  31  33
ENDBRANCH  29  32
ENDBRANCH  28  29
ENDBRANCH   1  28
TORSDOF 19
ENDMDL
MODEL 3
REMARK VINA RESULT:      -5.6      4.161      5.843
REMARK  Name = 5281239_Fucoxanthin.pdbqt.pdb
REMARK  19 active torsions:
REMARK  status: ('A' for Active; 'I' for Inactive)
REMARK    1  A    between atoms: C_1  and  C_5
REMARK    2  A    between atoms: C_2  and  C_26
REMARK    3  A    between atoms: C_3  and  C_5
REMARK    4  A    between atoms: C_3  and  C_7
REMARK    5  A    between atoms: C_6  and  C_10
REMARK    6  A    between atoms: C_8  and  C_10
REMARK    7  A    between atoms: C_8  and  C_12
REMARK    8  A    between atoms: C_12  and  C_13
REMARK    9  A    between atoms: C_13  and  C_15
REMARK   10  A    between atoms: C_20  and  O_24
REMARK   11  A    between atoms: C_26  and  C_27
REMARK   12  A    between atoms: C_27  and  C_30
REMARK   13  A    between atoms: C_29  and  C_33
REMARK   14  A    between atoms: C_31  and  C_33
REMARK   15  A    between atoms: C_31  and  C_44
REMARK   16  A    between atoms: C_35  and  O_45
REMARK   17  A    between atoms: C_37  and  O_47
REMARK   18  A    between atoms: C_39  and  C_43
REMARK   19  A    between atoms: O_47  and  C_49
REMARK                            x       y       z     vdW  Elec       q    Type
REMARK                         _______ _______ _______ _____ _____    ______ ____
ROOT
ATOM      1  C   UNL     1      42.592  25.061  21.401  0.00  0.00    +0.000 C 
ATOM      2  C   UNL     1      43.552  25.196  20.695  0.00  0.00    +0.000 C 
ENDROOT
BRANCH   2   3
ATOM      3  C   UNL     1      44.778  25.375  19.791  0.00  0.00    +0.000 C 
BRANCH   3   4
ATOM      4  C   UNL     1      45.812  25.525  19.024  0.00  0.00    +0.000 C 
ATOM      5  C   UNL     1      46.289  26.902  18.673  0.00  0.00    +0.000 C 
BRANCH   4   7
ATOM      6  C   UNL     1      47.119  23.425  18.171  0.00  0.00    +0.000 C 
ATOM      7  C   UNL     1      46.519  24.390  18.561  0.00  0.00    +0.000 C 
BRANCH   6   8
ATOM      8  C   UNL     1      47.883  22.192  17.677  0.00  0.00    +0.000 C 
BRANCH   8   9
ATOM      9  C   UNL     1      48.521  21.146  17.252  0.00  0.00    +0.000 C 
ATOM     10  C   UNL     1      48.622  20.869  15.783  0.00  0.00    +0.000 C 
BRANCH   9  12
ATOM     11  C   UNL     1      49.450  19.398  18.968  0.00  0.00    +0.000 C 
ATOM     12  C   UNL     1      49.025  20.203  18.182  0.00  0.00    +0.000 C 
BRANCH  11  18
ATOM     13  C   UNL     1      49.038  17.930  20.957  0.00  0.00    +0.000 C 
ATOM     14  C   UNL     1      51.363  18.065  19.797  0.00  0.00    +0.000 C 
ATOM     15  C   UNL     1      49.683  16.767  21.581  0.00  0.00    +0.000 C 
ATOM     16  C   UNL     1      50.906  16.071  21.532  0.00  0.00    +0.000 C 
ATOM     17  C   UNL     1      51.594  16.863  20.590  0.00  0.00    +0.000 C 
ATOM     18  C   UNL     1      49.911  18.515  19.832  0.00  0.00    +0.000 C 
ATOM     19  C   UNL     1      48.795  19.036  22.019  0.00  0.00    +0.000 C 
ATOM     20  C   UNL     1      47.677  17.464  20.356  0.00  0.00    +0.000 C 
ATOM     21  C   UNL     1      52.297  19.202  20.221  0.00  0.00    +0.000 C 
BRANCH  14  22
ATOM     22  O   UNL     1      51.724  17.775  18.465  0.00  0.00    +0.000 OA
ATOM     23  H   UNL     1      51.706  16.801  18.467  0.00  0.00    +0.000 HD
ENDBRANCH  14  22
BRANCH  16  24
ATOM     24  O   UNL     1      51.521  15.698  22.720  0.00  0.00    +0.000 OA
BRANCH  24  26
ATOM     25  O   UNL     1      51.662  13.372  22.453  0.00  0.00    +0.000 OA
ATOM     26  C   UNL     1      52.123  14.492  22.572  0.00  0.00    +0.000 C 
ATOM     27  C   UNL     1      53.610  14.550  22.566  0.00  0.00    +0.000 C 
ENDBRANCH  24  26
ENDBRANCH  16  24
ENDBRANCH  11  18
ENDBRANCH   9  12
ENDBRANCH   8   9
ENDBRANCH   6   8
ENDBRANCH   4   7
ENDBRANCH   3   4
ENDBRANCH   2   3
BRANCH   1  28
ATOM     28  C   UNL     1      41.364  24.900  22.304  0.00  0.00    +0.000 C 
BRANCH  28  29
ATOM     29  C   UNL     1      40.332  24.757  23.074  0.00  0.00    +0.000 C 
ATOM     30  C   UNL     1      40.477  24.905  24.558  0.00  0.00    +0.000 C 
BRANCH  29  32
ATOM     31  C   UNL     1      38.005  24.151  22.042  0.00  0.00    +0.000 C 
ATOM     32  C   UNL     1      39.076  24.423  22.513  0.00  0.00    +0.000 C 
BRANCH  31  33
ATOM     33  C   UNL     1      36.631  23.818  21.447  0.00  0.00    +0.000 C 
BRANCH  33  34
ATOM     34  C   UNL     1      35.464  23.544  20.946  0.00  0.00    +0.000 C 
ATOM     35  C   UNL     1      34.655  24.712  20.420  0.00  0.00    +0.000 C 
BRANCH  34  37
ATOM     36  O   UNL     1      33.871  21.832  21.441  0.00  0.00    +0.000 OA
ATOM     37  C   UNL     1      34.951  22.138  20.946  0.00  0.00    +0.000 C 
BRANCH  37  38
ATOM     38  C   UNL     1      35.717  21.069  20.350  0.00  0.00    +0.000 C 
BRANCH  38  40
ATOM     39  O   UNL     1      37.028  20.400  18.486  0.00  0.00    +0.000 OA
ATOM     40  C   UNL     1      36.458  19.974  19.754  0.00  0.00    +0.000 C 
ATOM     41  C   UNL     1      37.975  20.131  19.517  0.00  0.00    +0.000 C 
ATOM     42  C   UNL     1      35.864  18.521  19.803  0.00  0.00    +0.000 C 
ATOM     43  C   UNL     1      38.723  18.942  19.265  0.00  0.00    +0.000 C 
ATOM     44  C   UNL     1      36.938  17.607  19.406  0.00  0.00    +0.000 C 
ATOM     45  C   UNL     1      38.322  17.599  19.148  0.00  0.00    +0.000 C 
ATOM     46  C   UNL     1      38.762  21.369  19.956  0.00  0.00    +0.000 C 
ATOM     47  C   UNL     1      35.453  18.292  21.278  0.00  0.00    +0.000 C 
ATOM     48  C   UNL     1      34.652  18.524  18.845  0.00  0.00    +0.000 C 
BRANCH  45  49
ATOM     49  O   UNL     1      39.111  16.558  19.533  0.00  0.00    +0.000 OA
ATOM     50  H   UNL     1      38.761  15.698  19.240  0.00  0.00    +0.000 HD
ENDBRANCH  45  49
ENDBRANCH  38  40
ENDBRANCH  37  38
ENDBRANCH  34  37
ENDBRANCH  33  34
ENDBRANCH  31  33
ENDBRANCH  29  32
ENDBRANCH  28  29
ENDBRANCH   1  28
TORSDOF 19
ENDMDL
MODEL 4
REMARK VINA RESULT:      -5.5     12.228     20.777
REMARK  Name = 5281239_Fucoxanthin.pdbqt.pdb
REMARK  19 active torsions:
REMARK  status: ('A' for Active; 'I' for Inactive)
REMARK    1  A    between atoms: C_1  and  C_5
REMARK    2  A    between atoms: C_2  and  C_26
REMARK    3  A    between atoms: C_3  and  C_5
REMARK    4  A    between atoms: C_3  and  C_7
REMARK    5  A    between atoms: C_6  and  C_10
REMARK    6  A    between atoms: C_8  and  C_10
REMARK    7  A    between atoms: C_8  and  C_12
REMARK    8  A    between atoms: C_12  and  C_13
REMARK    9  A    between atoms: C_13  and  C_15
REMARK   10  A    between atoms: C_20  and  O_24
REMARK   11  A    between atoms: C_26  and  C_27
REMARK   12  A    between atoms: C_27  and  C_30
REMARK   13  A    between atoms: C_29  and  C_33
REMARK   14  A    between atoms: C_31  and  C_33
REMARK   15  A    between atoms: C_31  and  C_44
REMARK   16  A    between atoms: C_35  and  O_45
REMARK   17  A    between atoms: C_37  and  O_47
REMARK   18  A    between atoms: C_39  and  C_43
REMARK   19  A    between atoms: O_47  and  C_49
REMARK                            x       y       z     vdW  Elec       q    Type
REMARK                         _______ _______ _______ _____ _____    ______ ____
ROOT
ATOM      1  C   UNL     1      30.572   5.378  21.770  0.00  0.00    +0.000 C 
ATOM      2  C   UNL     1      31.376   6.264  21.854  0.00  0.00    +0.000 C 
ENDROOT
BRANCH   2   3
ATOM      3  C   UNL     1      32.407   7.395  21.956  0.00  0.00    +0.000 C 
BRANCH   3   4
ATOM      4  C   UNL     1      33.275   8.353  22.042  0.00  0.00    +0.000 C 
ATOM      5  C   UNL     1      34.722   8.034  22.264  0.00  0.00    +0.000 C 
BRANCH   4   7
ATOM      6  C   UNL     1      32.509  10.836  21.735  0.00  0.00    +0.000 C 
ATOM      7  C   UNL     1      32.862   9.697  21.876  0.00  0.00    +0.000 C 
BRANCH   6   8
ATOM      8  C   UNL     1      32.054  12.289  21.558  0.00  0.00    +0.000 C 
BRANCH   8   9
ATOM      9  C   UNL     1      31.660  13.516  21.413  0.00  0.00    +0.000 C 
ATOM     10  C   UNL     1      30.213  13.867  21.572  0.00  0.00    +0.000 C 
BRANCH   9  12
ATOM     11  C   UNL     1      33.367  15.345  20.635  0.00  0.00    +0.000 C 
ATOM     12  C   UNL     1      32.582  14.506  20.990  0.00  0.00    +0.000 C 
BRANCH  11  18
ATOM     13  C   UNL     1      35.676  16.310  20.765  0.00  0.00    +0.000 C 
ATOM     14  C   UNL     1      33.809  17.387  19.310  0.00  0.00    +0.000 C 
ATOM     15  C   UNL     1      36.497  17.233  19.970  0.00  0.00    +0.000 C 
ATOM     16  C   UNL     1      36.346  18.171  18.931  0.00  0.00    +0.000 C 
ATOM     17  C   UNL     1      34.950  18.095  18.743  0.00  0.00    +0.000 C 
ATOM     18  C   UNL     1      34.226  16.268  20.251  0.00  0.00    +0.000 C 
ATOM     19  C   UNL     1      35.661  16.759  22.251  0.00  0.00    +0.000 C 
ATOM     20  C   UNL     1      36.299  14.885  20.649  0.00  0.00    +0.000 C 
ATOM     21  C   UNL     1      32.843  18.352  20.004  0.00  0.00    +0.000 C 
BRANCH  14  22
ATOM     22  O   UNL     1      33.070  16.841  18.240  0.00  0.00    +0.000 OA
ATOM     23  H   UNL     1      32.183  17.208  18.411  0.00  0.00    +0.000 HD
ENDBRANCH  14  22
BRANCH  16  24
ATOM     24  O   UNL     1      36.975  19.404  19.036  0.00  0.00    +0.000 OA
BRANCH  24  26
ATOM     25  O   UNL     1      35.963  20.180  21.005  0.00  0.00    +0.000 OA
ATOM     26  C   UNL     1      36.244  20.233  19.822  0.00  0.00    +0.000 C 
ATOM     27  C   UNL     1      35.675  21.407  19.106  0.00  0.00    +0.000 C 
ENDBRANCH  24  26
ENDBRANCH  16  24
ENDBRANCH  11  18
ENDBRANCH   9  12
ENDBRANCH   8   9
ENDBRANCH   6   8
ENDBRANCH   4   7
ENDBRANCH   3   4
ENDBRANCH   2   3
BRANCH   1  28
ATOM     28  C   UNL     1      29.548   4.243  21.653  0.00  0.00    +0.000 C 
BRANCH  28  29
ATOM     29  C   UNL     1      28.689   3.279  21.546  0.00  0.00    +0.000 C 
ATOM     30  C   UNL     1      27.952   2.793  22.757  0.00  0.00    +0.000 C 
BRANCH  29  32
ATOM     31  C   UNL     1      28.311   2.128  19.227  0.00  0.00    +0.000 C 
ATOM     32  C   UNL     1      28.478   2.661  20.290  0.00  0.00    +0.000 C 
BRANCH  31  33
ATOM     33  C   UNL     1      28.110   1.438  17.872  0.00  0.00    +0.000 C 
BRANCH  33  34
ATOM     34  C   UNL     1      27.945   0.847  16.726  0.00  0.00    +0.000 C 
ATOM     35  C   UNL     1      28.037   1.717  15.489  0.00  0.00    +0.000 C 
BRANCH  34  37
ATOM     36  O   UNL     1      26.582  -1.082  17.091  0.00  0.00    +0.000 OA
ATOM     37  C   UNL     1      27.635  -0.615  16.667  0.00  0.00    +0.000 C 
BRANCH  37  38
ATOM     38  C   UNL     1      28.574  -1.551  16.096  0.00  0.00    +0.000 C 
BRANCH  38  40
ATOM     39  O   UNL     1      28.862  -3.691  15.107  0.00  0.00    +0.000 OA
ATOM     40  C   UNL     1      29.540  -2.482  15.547  0.00  0.00    +0.000 C 
ATOM     41  C   UNL     1      29.428  -2.899  14.065  0.00  0.00    +0.000 C 
ATOM     42  C   UNL     1      30.923  -2.676  16.266  0.00  0.00    +0.000 C 
ATOM     43  C   UNL     1      30.568  -3.522  13.474  0.00  0.00    +0.000 C 
ATOM     44  C   UNL     1      31.782  -3.424  15.346  0.00  0.00    +0.000 C 
ATOM     45  C   UNL     1      31.816  -3.880  14.013  0.00  0.00    +0.000 C 
ATOM     46  C   UNL     1      28.382  -2.314  13.112  0.00  0.00    +0.000 C 
ATOM     47  C   UNL     1      31.469  -1.247  16.503  0.00  0.00    +0.000 C 
ATOM     48  C   UNL     1      30.615  -3.418  17.586  0.00  0.00    +0.000 C 
BRANCH  45  49
ATOM     49  O   UNL     1      32.966  -3.861  13.285  0.00  0.00    +0.000 OA
ATOM     50  H   UNL     1      33.078  -4.665  12.747  0.00  0.00    +0.000 HD
ENDBRANCH  45  49
ENDBRANCH  38  40
ENDBRANCH  37  38
ENDBRANCH  34  37
ENDBRANCH  33  34
ENDBRANCH  31  33
ENDBRANCH  29  32
ENDBRANCH  28  29
ENDBRANCH   1  28
TORSDOF 19
ENDMDL
MODEL 5
REMARK VINA RESULT:      -5.3     18.843     24.959
REMARK  Name = 5281239_Fucoxanthin.pdbqt.pdb
REMARK  19 active torsions:
REMARK  status: ('A' for Active; 'I' for Inactive)
REMARK    1  A    between atoms: C_1  and  C_5
REMARK    2  A    between atoms: C_2  and  C_26
REMARK    3  A    between atoms: C_3  and  C_5
REMARK    4  A    between atoms: C_3  and  C_7
REMARK    5  A    between atoms: C_6  and  C_10
REMARK    6  A    between atoms: C_8  and  C_10
REMARK    7  A    between atoms: C_8  and  C_12
REMARK    8  A    between atoms: C_12  and  C_13
REMARK    9  A    between atoms: C_13  and  C_15
REMARK   10  A    between atoms: C_20  and  O_24
REMARK   11  A    between atoms: C_26  and  C_27
REMARK   12  A    between atoms: C_27  and  C_30
REMARK   13  A    between atoms: C_29  and  C_33
REMARK   14  A    between atoms: C_31  and  C_33
REMARK   15  A    between atoms: C_31  and  C_44
REMARK   16  A    between atoms: C_35  and  O_45
REMARK   17  A    between atoms: C_37  and  O_47
REMARK   18  A    between atoms: C_39  and  C_43
REMARK   19  A    between atoms: O_47  and  C_49
REMARK                            x       y       z     vdW  Elec       q    Type
REMARK                         _______ _______ _______ _____ _____    ______ ____
ROOT
ATOM      1  C   UNL     1      55.473  -4.945  13.420  0.00  0.00    +0.000 C 
ATOM      2  C   UNL     1      55.100  -5.277  12.328  0.00  0.00    +0.000 C 
ENDROOT
BRANCH   2   3
ATOM      3  C   UNL     1      54.616  -5.696  10.935  0.00  0.00    +0.000 C 
BRANCH   3   4
ATOM      4  C   UNL     1      54.209  -6.055   9.758  0.00  0.00    +0.000 C 
ATOM      5  C   UNL     1      54.503  -7.435   9.254  0.00  0.00    +0.000 C 
BRANCH   4   7
ATOM      6  C   UNL     1      52.796  -4.397   8.308  0.00  0.00    +0.000 C 
ATOM      7  C   UNL     1      53.445  -5.159   8.973  0.00  0.00    +0.000 C 
BRANCH   6   8
ATOM      8  C   UNL     1      51.972  -3.421   7.461  0.00  0.00    +0.000 C 
BRANCH   8   9
ATOM      9  C   UNL     1      51.279  -2.587   6.750  0.00  0.00    +0.000 C 
ATOM     10  C   UNL     1      50.793  -2.980   5.389  0.00  0.00    +0.000 C 
BRANCH   9  12
ATOM     11  C   UNL     1      50.914  -0.136   7.600  0.00  0.00    +0.000 C 
ATOM     12  C   UNL     1      51.081  -1.262   7.213  0.00  0.00    +0.000 C 
BRANCH  11  18
ATOM     13  C   UNL     1      49.607   1.482   8.996  0.00  0.00    +0.000 C 
ATOM     14  C   UNL     1      51.615   2.236   7.525  0.00  0.00    +0.000 C 
ATOM     15  C   UNL     1      49.806   2.833   9.540  0.00  0.00    +0.000 C 
ATOM     16  C   UNL     1      50.670   3.933   9.375  0.00  0.00    +0.000 C 
ATOM     17  C   UNL     1      51.492   3.437   8.343  0.00  0.00    +0.000 C 
ATOM     18  C   UNL     1      50.736   1.100   8.024  0.00  0.00    +0.000 C 
ATOM     19  C   UNL     1      48.255   1.411   8.236  0.00  0.00    +0.000 C 
ATOM     20  C   UNL     1      49.597   0.477  10.188  0.00  0.00    +0.000 C 
ATOM     21  C   UNL     1      51.334   2.535   6.049  0.00  0.00    +0.000 C 
BRANCH  14  22
ATOM     22  O   UNL     1      52.964   1.828   7.562  0.00  0.00    +0.000 OA
ATOM     23  H   UNL     1      53.251   2.024   6.651  0.00  0.00    +0.000 HD
ENDBRANCH  14  22
BRANCH  16  24
ATOM     24  O   UNL     1      50.130   5.210   9.292  0.00  0.00    +0.000 OA
BRANCH  24  26
ATOM     25  O   UNL     1      51.466   7.097   9.694  0.00  0.00    +0.000 OA
ATOM     26  C   UNL     1      50.882   6.078  10.014  0.00  0.00    +0.000 C 
ATOM     27  C   UNL     1      51.025   5.711  11.449  0.00  0.00    +0.000 C 
ENDBRANCH  24  26
ENDBRANCH  16  24
ENDBRANCH  11  18
ENDBRANCH   9  12
ENDBRANCH   8   9
ENDBRANCH   6   8
ENDBRANCH   4   7
ENDBRANCH   3   4
ENDBRANCH   2   3
BRANCH   1  28
ATOM     28  C   UNL     1      55.941  -4.518  14.815  0.00  0.00    +0.000 C 
BRANCH  28  29
ATOM     29  C   UNL     1      56.347  -4.157  15.991  0.00  0.00    +0.000 C 
ATOM     30  C   UNL     1      57.074  -5.133  16.866  0.00  0.00    +0.000 C 
BRANCH  29  32
ATOM     31  C   UNL     1      55.828  -1.740  16.848  0.00  0.00    +0.000 C 
ATOM     32  C   UNL     1      56.068  -2.851  16.462  0.00  0.00    +0.000 C 
BRANCH  31  33
ATOM     33  C   UNL     1      55.519  -0.316  17.326  0.00  0.00    +0.000 C 
BRANCH  33  34
ATOM     34  C   UNL     1      55.256   0.894  17.722  0.00  0.00    +0.000 C 
ATOM     35  C   UNL     1      56.139   1.462  18.814  0.00  0.00    +0.000 C 
BRANCH  34  37
ATOM     36  O   UNL     1      53.305   2.269  17.838  0.00  0.00    +0.000 OA
ATOM     37  C   UNL     1      54.100   1.646  17.142  0.00  0.00    +0.000 C 
BRANCH  37  38
ATOM     38  C   UNL     1      53.872   1.673  15.717  0.00  0.00    +0.000 C 
BRANCH  38  40
ATOM     39  O   UNL     1      53.034   3.013  13.943  0.00  0.00    +0.000 OA
ATOM     40  C   UNL     1      53.625   1.730  14.289  0.00  0.00    +0.000 C 
ATOM     41  C   UNL     1      54.351   2.796  13.440  0.00  0.00    +0.000 C 
ATOM     42  C   UNL     1      53.045   0.469  13.553  0.00  0.00    +0.000 C 
ATOM     43  C   UNL     1      54.362   2.606  12.025  0.00  0.00    +0.000 C 
ATOM     44  C   UNL     1      53.183   0.712  12.116  0.00  0.00    +0.000 C 
ATOM     45  C   UNL     1      53.783   1.614  11.216  0.00  0.00    +0.000 C 
ATOM     46  C   UNL     1      55.389   3.758  14.023  0.00  0.00    +0.000 C 
ATOM     47  C   UNL     1      53.929  -0.718  14.007  0.00  0.00    +0.000 C 
ATOM     48  C   UNL     1      51.583   0.334  14.033  0.00  0.00    +0.000 C 
BRANCH  45  49
ATOM     49  O   UNL     1      54.351   1.187  10.054  0.00  0.00    +0.000 OA
ATOM     50  H   UNL     1      55.161   1.680   9.833  0.00  0.00    +0.000 HD
ENDBRANCH  45  49
ENDBRANCH  38  40
ENDBRANCH  37  38
ENDBRANCH  34  37
ENDBRANCH  33  34
ENDBRANCH  31  33
ENDBRANCH  29  32
ENDBRANCH  28  29
ENDBRANCH   1  28
TORSDOF 19
ENDMDL
MODEL 6
REMARK VINA RESULT:      -5.3     21.943     30.595
REMARK  Name = 5281239_Fucoxanthin.pdbqt.pdb
REMARK  19 active torsions:
REMARK  status: ('A' for Active; 'I' for Inactive)
REMARK    1  A    between atoms: C_1  and  C_5
REMARK    2  A    between atoms: C_2  and  C_26
REMARK    3  A    between atoms: C_3  and  C_5
REMARK    4  A    between atoms: C_3  and  C_7
REMARK    5  A    between atoms: C_6  and  C_10
REMARK    6  A    between atoms: C_8  and  C_10
REMARK    7  A    between atoms: C_8  and  C_12
REMARK    8  A    between atoms: C_12  and  C_13
REMARK    9  A    between atoms: C_13  and  C_15
REMARK   10  A    between atoms: C_20  and  O_24
REMARK   11  A    between atoms: C_26  and  C_27
REMARK   12  A    between atoms: C_27  and  C_30
REMARK   13  A    between atoms: C_29  and  C_33
REMARK   14  A    between atoms: C_31  and  C_33
REMARK   15  A    between atoms: C_31  and  C_44
REMARK   16  A    between atoms: C_35  and  O_45
REMARK   17  A    between atoms: C_37  and  O_47
REMARK   18  A    between atoms: C_39  and  C_43
REMARK   19  A    between atoms: O_47  and  C_49
REMARK                            x       y       z     vdW  Elec       q    Type
REMARK                         _______ _______ _______ _____ _____    ______ ____
ROOT
ATOM      1  C   UNL     1      51.956  -4.104   3.166  0.00  0.00    +0.000 C 
ATOM      2  C   UNL     1      51.570  -3.440   4.087  0.00  0.00    +0.000 C 
ENDROOT
BRANCH   2   3
ATOM      3  C   UNL     1      51.070  -2.594   5.265  0.00  0.00    +0.000 C 
BRANCH   3   4
ATOM      4  C   UNL     1      50.649  -1.883   6.262  0.00  0.00    +0.000 C 
ATOM      5  C   UNL     1      49.926  -2.541   7.398  0.00  0.00    +0.000 C 
BRANCH   4   7
ATOM      6  C   UNL     1      51.143   0.686   6.337  0.00  0.00    +0.000 C 
ATOM      7  C   UNL     1      50.917  -0.494   6.302  0.00  0.00    +0.000 C 
BRANCH   6   8
ATOM      8  C   UNL     1      51.431   2.190   6.388  0.00  0.00    +0.000 C 
BRANCH   8   9
ATOM      9  C   UNL     1      51.665   3.465   6.429  0.00  0.00    +0.000 C 
ATOM     10  C   UNL     1      52.240   4.164   5.236  0.00  0.00    +0.000 C 
BRANCH   9  12
ATOM     11  C   UNL     1      51.336   4.777   8.673  0.00  0.00    +0.000 C 
ATOM     12  C   UNL     1      51.484   4.176   7.642  0.00  0.00    +0.000 C 
BRANCH  11  18
ATOM     13  C   UNL     1      50.406   4.835  10.999  0.00  0.00    +0.000 C 
ATOM     14  C   UNL     1      51.695   6.850   9.975  0.00  0.00    +0.000 C 
ATOM     15  C   UNL     1      50.624   5.624  12.220  0.00  0.00    +0.000 C 
ATOM     16  C   UNL     1      51.249   6.821  12.620  0.00  0.00    +0.000 C 
ATOM     17  C   UNL     1      51.722   7.271  11.371  0.00  0.00    +0.000 C 
ATOM     18  C   UNL     1      51.174   5.431   9.806  0.00  0.00    +0.000 C 
ATOM     19  C   UNL     1      48.894   4.807  10.649  0.00  0.00    +0.000 C 
ATOM     20  C   UNL     1      50.917   3.386  11.262  0.00  0.00    +0.000 C 
ATOM     21  C   UNL     1      50.897   7.831   9.111  0.00  0.00    +0.000 C 
BRANCH  14  22
ATOM     22  O   UNL     1      53.014   6.920   9.481  0.00  0.00    +0.000 OA
ATOM     23  H   UNL     1      53.118   6.037   9.081  0.00  0.00    +0.000 HD
ENDBRANCH  14  22
BRANCH  16  24
ATOM     24  O   UNL     1      50.572   7.686  13.470  0.00  0.00    +0.000 OA
BRANCH  24  26
ATOM     25  O   UNL     1      50.589   7.725  15.816  0.00  0.00    +0.000 OA
ATOM     26  C   UNL     1      51.102   7.620  14.716  0.00  0.00    +0.000 C 
ATOM     27  C   UNL     1      52.571   7.388  14.742  0.00  0.00    +0.000 C 
ENDBRANCH  24  26
ENDBRANCH  16  24
ENDBRANCH  11  18
ENDBRANCH   9  12
ENDBRANCH   8   9
ENDBRANCH   6   8
ENDBRANCH   4   7
ENDBRANCH   3   4
ENDBRANCH   2   3
BRANCH   1  28
ATOM     28  C   UNL     1      52.440  -4.958   1.988  0.00  0.00    +0.000 C 
BRANCH  28  29
ATOM     29  C   UNL     1      52.852  -5.687   1.000  0.00  0.00    +0.000 C 
ATOM     30  C   UNL     1      54.290  -5.641   0.582  0.00  0.00    +0.000 C 
BRANCH  29  32
ATOM     31  C   UNL     1      51.159  -7.197  -0.304  0.00  0.00    +0.000 C 
ATOM     32  C   UNL     1      51.932  -6.498   0.292  0.00  0.00    +0.000 C 
BRANCH  31  33
ATOM     33  C   UNL     1      50.181  -8.103  -1.062  0.00  0.00    +0.000 C 
BRANCH  33  34
ATOM     34  C   UNL     1      49.348  -8.864  -1.708  0.00  0.00    +0.000 C 
ATOM     35  C   UNL     1      47.874  -8.653  -1.430  0.00  0.00    +0.000 C 
BRANCH  34  37
ATOM     36  O   UNL     1      50.974 -10.407  -2.535  0.00  0.00    +0.000 OA
ATOM     37  C   UNL     1      49.853  -9.919  -2.640  0.00  0.00    +0.000 C 
BRANCH  37  38
ATOM     38  C   UNL     1      49.029 -10.416  -3.716  0.00  0.00    +0.000 C 
BRANCH  38  40
ATOM     39  O   UNL     1      47.591 -12.190  -4.371  0.00  0.00    +0.000 OA
ATOM     40  C   UNL     1      48.217 -10.947  -4.794  0.00  0.00    +0.000 C 
ATOM     41  C   UNL     1      46.695 -11.101  -4.586  0.00  0.00    +0.000 C 
ATOM     42  C   UNL     1      48.760 -10.901  -6.267  0.00  0.00    +0.000 C 
ATOM     43  C   UNL     1      45.892 -11.285  -5.751  0.00  0.00    +0.000 C 
ATOM     44  C   UNL     1      47.634 -11.218  -7.148  0.00  0.00    +0.000 C 
ATOM     45  C   UNL     1      46.237 -11.397  -7.109  0.00  0.00    +0.000 C 
ATOM     46  C   UNL     1      45.979 -10.644  -3.312  0.00  0.00    +0.000 C 
ATOM     47  C   UNL     1      49.246  -9.447  -6.483  0.00  0.00    +0.000 C 
ATOM     48  C   UNL     1      49.915 -11.925  -6.326  0.00  0.00    +0.000 C 
BRANCH  45  49
ATOM     49  O   UNL     1      45.435 -10.946  -8.113  0.00  0.00    +0.000 OA
ATOM     50  H   UNL     1      45.275 -11.624  -8.794  0.00  0.00    +0.000 HD
ENDBRANCH  45  49
ENDBRANCH  38  40
ENDBRANCH  37  38
ENDBRANCH  34  37
ENDBRANCH  33  34
ENDBRANCH  31  33
ENDBRANCH  29  32
ENDBRANCH  28  29
ENDBRANCH   1  28
TORSDOF 19
ENDMDL
MODEL 7
REMARK VINA RESULT:      -5.2     18.220     29.533
REMARK  Name = 5281239_Fucoxanthin.pdbqt.pdb
REMARK  19 active torsions:
REMARK  status: ('A' for Active; 'I' for Inactive)
REMARK    1  A    between atoms: C_1  and  C_5
REMARK    2  A    between atoms: C_2  and  C_26
REMARK    3  A    between atoms: C_3  and  C_5
REMARK    4  A    between atoms: C_3  and  C_7
REMARK    5  A    between atoms: C_6  and  C_10
REMARK    6  A    between atoms: C_8  and  C_10
REMARK    7  A    between atoms: C_8  and  C_12
REMARK    8  A    between atoms: C_12  and  C_13
REMARK    9  A    between atoms: C_13  and  C_15
REMARK   10  A    between atoms: C_20  and  O_24
REMARK   11  A    between atoms: C_26  and  C_27
REMARK   12  A    between atoms: C_27  and  C_30
REMARK   13  A    between atoms: C_29  and  C_33
REMARK   14  A    between atoms: C_31  and  C_33
REMARK   15  A    between atoms: C_31  and  C_44
REMARK   16  A    between atoms: C_35  and  O_45
REMARK   17  A    between atoms: C_37  and  O_47
REMARK   18  A    between atoms: C_39  and  C_43
REMARK   19  A    between atoms: O_47  and  C_49
REMARK                            x       y       z     vdW  Elec       q    Type
REMARK                         _______ _______ _______ _____ _____    ______ ____
ROOT
ATOM      1  C   UNL     1      51.947  -4.297   3.301  0.00  0.00    +0.000 C 
ATOM      2  C   UNL     1      51.565  -3.620   4.216  0.00  0.00    +0.000 C 
ENDROOT
BRANCH   2   3
ATOM      3  C   UNL     1      51.071  -2.759   5.385  0.00  0.00    +0.000 C 
BRANCH   3   4
ATOM      4  C   UNL     1      50.655  -2.035   6.375  0.00  0.00    +0.000 C 
ATOM      5  C   UNL     1      49.939  -2.678   7.524  0.00  0.00    +0.000 C 
BRANCH   4   7
ATOM      6  C   UNL     1      51.147   0.535   6.413  0.00  0.00    +0.000 C 
ATOM      7  C   UNL     1      50.922  -0.645   6.394  0.00  0.00    +0.000 C 
BRANCH   6   8
ATOM      8  C   UNL     1      51.437   2.040   6.442  0.00  0.00    +0.000 C 
BRANCH   8   9
ATOM      9  C   UNL     1      51.673   3.315   6.471  0.00  0.00    +0.000 C 
ATOM     10  C   UNL     1      52.262   4.000   5.277  0.00  0.00    +0.000 C 
BRANCH   9  12
ATOM     11  C   UNL     1      51.325   4.651   8.698  0.00  0.00    +0.000 C 
ATOM     12  C   UNL     1      51.482   4.039   7.675  0.00  0.00    +0.000 C 
BRANCH  11  18
ATOM     13  C   UNL     1      50.395   4.727  11.023  0.00  0.00    +0.000 C 
ATOM     14  C   UNL     1      51.653   6.747   9.972  0.00  0.00    +0.000 C 
ATOM     15  C   UNL     1      50.601   5.535  12.233  0.00  0.00    +0.000 C 
ATOM     16  C   UNL     1      51.208   6.746  12.617  0.00  0.00    +0.000 C 
ATOM     17  C   UNL     1      51.674   7.188  11.362  0.00  0.00    +0.000 C 
ATOM     18  C   UNL     1      51.153   5.319   9.822  0.00  0.00    +0.000 C 
ATOM     19  C   UNL     1      48.884   4.670  10.674  0.00  0.00    +0.000 C 
ATOM     20  C   UNL     1      50.928   3.289  11.305  0.00  0.00    +0.000 C 
ATOM     21  C   UNL     1      50.840   7.704   9.095  0.00  0.00    +0.000 C 
BRANCH  14  22
ATOM     22  O   UNL     1      52.970   6.830   9.476  0.00  0.00    +0.000 OA
ATOM     23  H   UNL     1      53.212   5.888   9.409  0.00  0.00    +0.000 HD
ENDBRANCH  14  22
BRANCH  16  24
ATOM     24  O   UNL     1      50.519   7.613  13.455  0.00  0.00    +0.000 OA
BRANCH  24  26
ATOM     25  O   UNL     1      50.541   7.722  15.799  0.00  0.00    +0.000 OA
ATOM     26  C   UNL     1      51.048   7.570  14.703  0.00  0.00    +0.000 C 
ATOM     27  C   UNL     1      52.511   7.300  14.734  0.00  0.00    +0.000 C 
ENDBRANCH  24  26
ENDBRANCH  16  24
ENDBRANCH  11  18
ENDBRANCH   9  12
ENDBRANCH   8   9
ENDBRANCH   6   8
ENDBRANCH   4   7
ENDBRANCH   3   4
ENDBRANCH   2   3
BRANCH   1  28
ATOM     28  C   UNL     1      52.425  -5.165   2.132  0.00  0.00    +0.000 C 
BRANCH  28  29
ATOM     29  C   UNL     1      52.822  -5.893   1.137  0.00  0.00    +0.000 C 
ATOM     30  C   UNL     1      51.976  -7.033   0.656  0.00  0.00    +0.000 C 
BRANCH  29  32
ATOM     31  C   UNL     1      55.130  -5.407   0.004  0.00  0.00    +0.000 C 
ATOM     32  C   UNL     1      54.075  -5.632   0.531  0.00  0.00    +0.000 C 
BRANCH  31  33
ATOM     33  C   UNL     1      56.471  -5.117  -0.682  0.00  0.00    +0.000 C 
BRANCH  33  34
ATOM     34  C   UNL     1      57.606  -4.861  -1.261  0.00  0.00    +0.000 C 
ATOM     35  C   UNL     1      58.804  -5.665  -0.798  0.00  0.00    +0.000 C 
BRANCH  34  37
ATOM     36  O   UNL     1      58.778  -3.352  -2.695  0.00  0.00    +0.000 OA
ATOM     37  C   UNL     1      57.702  -3.788  -2.298  0.00  0.00    +0.000 C 
BRANCH  37  38
ATOM     38  C   UNL     1      56.515  -3.214  -2.885  0.00  0.00    +0.000 C 
BRANCH  38  40
ATOM     39  O   UNL     1      54.169  -3.440  -3.182  0.00  0.00    +0.000 OA
ATOM     40  C   UNL     1      55.338  -2.637  -3.506  0.00  0.00    +0.000 C 
ATOM     41  C   UNL     1      54.185  -2.132  -2.612  0.00  0.00    +0.000 C 
ATOM     42  C   UNL     1      55.428  -2.090  -4.976  0.00  0.00    +0.000 C 
ATOM     43  C   UNL     1      53.221  -1.270  -3.216  0.00  0.00    +0.000 C 
ATOM     44  C   UNL     1      54.208  -1.317  -5.219  0.00  0.00    +0.000 C 
ATOM     45  C   UNL     1      53.091  -0.801  -4.535  0.00  0.00    +0.000 C 
ATOM     46  C   UNL     1      54.253  -2.138  -1.083  0.00  0.00    +0.000 C 
ATOM     47  C   UNL     1      56.680  -1.181  -5.002  0.00  0.00    +0.000 C 
ATOM     48  C   UNL     1      55.579  -3.332  -5.882  0.00  0.00    +0.000 C 
BRANCH  45  49
ATOM     49  O   UNL     1      52.579   0.426  -4.833  0.00  0.00    +0.000 OA
ATOM     50  H   UNL     1      53.099   1.150  -4.444  0.00  0.00    +0.000 HD
ENDBRANCH  45  49
ENDBRANCH  38  40
ENDBRANCH  37  38
ENDBRANCH  34  37
ENDBRANCH  33  34
ENDBRANCH  31  33
ENDBRANCH  29  32
ENDBRANCH  28  29
ENDBRANCH   1  28
TORSDOF 19
ENDMDL
MODEL 8
REMARK VINA RESULT:      -5.2     11.846     14.132
REMARK  Name = 5281239_Fucoxanthin.pdbqt.pdb
REMARK  19 active torsions:
REMARK  status: ('A' for Active; 'I' for Inactive)
REMARK    1  A    between atoms: C_1  and  C_5
REMARK    2  A    between atoms: C_2  and  C_26
REMARK    3  A    between atoms: C_3  and  C_5
REMARK    4  A    between atoms: C_3  and  C_7
REMARK    5  A    between atoms: C_6  and  C_10
REMARK    6  A    between atoms: C_8  and  C_10
REMARK    7  A    between atoms: C_8  and  C_12
REMARK    8  A    between atoms: C_12  and  C_13
REMARK    9  A    between atoms: C_13  and  C_15
REMARK   10  A    between atoms: C_20  and  O_24
REMARK   11  A    between atoms: C_26  and  C_27
REMARK   12  A    between atoms: C_27  and  C_30
REMARK   13  A    between atoms: C_29  and  C_33
REMARK   14  A    between atoms: C_31  and  C_33
REMARK   15  A    between atoms: C_31  and  C_44
REMARK   16  A    between atoms: C_35  and  O_45
REMARK   17  A    between atoms: C_37  and  O_47
REMARK   18  A    between atoms: C_39  and  C_43
REMARK   19  A    between atoms: O_47  and  C_49
REMARK                            x       y       z     vdW  Elec       q    Type
REMARK                         _______ _______ _______ _____ _____    ______ ____
ROOT
ATOM      1  C   UNL     1      35.058  16.884  27.990  0.00  0.00    +0.000 C 
ATOM      2  C   UNL     1      35.507  16.245  28.900  0.00  0.00    +0.000 C 
ENDROOT
BRANCH   2   3
ATOM      3  C   UNL     1      36.074  15.427  30.067  0.00  0.00    +0.000 C 
BRANCH   3   4
ATOM      4  C   UNL     1      36.556  14.734  31.050  0.00  0.00    +0.000 C 
ATOM      5  C   UNL     1      35.757  14.563  32.307  0.00  0.00    +0.000 C 
BRANCH   4   7
ATOM      6  C   UNL     1      38.878  13.554  30.804  0.00  0.00    +0.000 C 
ATOM      7  C   UNL     1      37.813  14.097  30.916  0.00  0.00    +0.000 C 
BRANCH   6   8
ATOM      8  C   UNL     1      40.236  12.857  30.661  0.00  0.00    +0.000 C 
BRANCH   8   9
ATOM      9  C   UNL     1      41.382  12.261  30.548  0.00  0.00    +0.000 C 
ATOM     10  C   UNL     1      42.531  12.664  31.420  0.00  0.00    +0.000 C 
BRANCH   9  12
ATOM     11  C   UNL     1      41.755  10.499  28.646  0.00  0.00    +0.000 C 
ATOM     12  C   UNL     1      41.581  11.308  29.519  0.00  0.00    +0.000 C 
BRANCH  11  18
ATOM     13  C   UNL     1      41.804   8.101  27.920  0.00  0.00    +0.000 C 
ATOM     14  C   UNL     1      42.387  10.048  26.296  0.00  0.00    +0.000 C 
ATOM     15  C   UNL     1      41.775   7.367  26.647  0.00  0.00    +0.000 C 
ATOM     16  C   UNL     1      41.933   7.612  25.270  0.00  0.00    +0.000 C 
ATOM     17  C   UNL     1      42.222   8.992  25.305  0.00  0.00    +0.000 C 
ATOM     18  C   UNL     1      41.949   9.615  27.687  0.00  0.00    +0.000 C 
ATOM     19  C   UNL     1      42.999   7.617  28.784  0.00  0.00    +0.000 C 
ATOM     20  C   UNL     1      40.464   7.826  28.668  0.00  0.00    +0.000 C 
ATOM     21  C   UNL     1      43.824  10.576  26.316  0.00  0.00    +0.000 C 
BRANCH  14  22
ATOM     22  O   UNL     1      41.602  11.146  25.886  0.00  0.00    +0.000 OA
ATOM     23  H   UNL     1      41.709  11.109  24.917  0.00  0.00    +0.000 HD
ENDBRANCH  14  22
BRANCH  16  24
ATOM     24  O   UNL     1      42.716   6.749  24.514  0.00  0.00    +0.000 OA
BRANCH  24  26
ATOM     25  O   UNL     1      40.813   5.985  23.374  0.00  0.00    +0.000 OA
ATOM     26  C   UNL     1      41.927   5.868  23.851  0.00  0.00    +0.000 C 
ATOM     27  C   UNL     1      42.526   4.515  23.690  0.00  0.00    +0.000 C 
ENDBRANCH  24  26
ENDBRANCH  16  24
ENDBRANCH  11  18
ENDBRANCH   9  12
ENDBRANCH   8   9
ENDBRANCH   6   8
ENDBRANCH   4   7
ENDBRANCH   3   4
ENDBRANCH   2   3
BRANCH   1  28
ATOM     28  C   UNL     1      34.475  17.702  26.832  0.00  0.00    +0.000 C 
BRANCH  28  29
ATOM     29  C   UNL     1      33.980  18.383  25.847  0.00  0.00    +0.000 C 
ATOM     30  C   UNL     1      33.158  19.605  26.119  0.00  0.00    +0.000 C 
BRANCH  29  32
ATOM     31  C   UNL     1      34.373  17.588  23.385  0.00  0.00    +0.000 C 
ATOM     32  C   UNL     1      34.187  17.947  24.516  0.00  0.00    +0.000 C 
BRANCH  31  33
ATOM     33  C   UNL     1      34.622  17.140  21.940  0.00  0.00    +0.000 C 
BRANCH  33  34
ATOM     34  C   UNL     1      34.833  16.752  20.717  0.00  0.00    +0.000 C 
ATOM     35  C   UNL     1      36.173  16.107  20.427  0.00  0.00    +0.000 C 
BRANCH  34  37
ATOM     36  O   UNL     1      34.025  17.665  18.662  0.00  0.00    +0.000 OA
ATOM     37  C   UNL     1      33.802  16.986  19.660  0.00  0.00    +0.000 C 
BRANCH  37  38
ATOM     38  C   UNL     1      32.482  16.413  19.770  0.00  0.00    +0.000 C 
BRANCH  38  40
ATOM     39  O   UNL     1      30.148  16.799  19.550  0.00  0.00    +0.000 OA
ATOM     40  C   UNL     1      31.166  15.809  19.863  0.00  0.00    +0.000 C 
ATOM     41  C   UNL     1      30.278  15.740  18.603  0.00  0.00    +0.000 C 
ATOM     42  C   UNL     1      30.848  14.825  21.046  0.00  0.00    +0.000 C 
ATOM     43  C   UNL     1      29.164  14.847  18.637  0.00  0.00    +0.000 C 
ATOM     44  C   UNL     1      29.587  14.158  20.719  0.00  0.00    +0.000 C 
ATOM     45  C   UNL     1      28.676  14.009  19.655  0.00  0.00    +0.000 C 
ATOM     46  C   UNL     1      30.749  16.213  17.225  0.00  0.00    +0.000 C 
ATOM     47  C   UNL     1      32.023  13.817  21.073  0.00  0.00    +0.000 C 
ATOM     48  C   UNL     1      30.789  15.698  22.319  0.00  0.00    +0.000 C 
BRANCH  45  49
ATOM     49  O   UNL     1      28.070  12.817  19.400  0.00  0.00    +0.000 OA
ATOM     50  H   UNL     1      27.945  12.283  20.205  0.00  0.00    +0.000 HD
ENDBRANCH  45  49
ENDBRANCH  38  40
ENDBRANCH  37  38
ENDBRANCH  34  37
ENDBRANCH  33  34
ENDBRANCH  31  33
ENDBRANCH  29  32
ENDBRANCH  28  29
ENDBRANCH   1  28
TORSDOF 19
ENDMDL
MODEL 9
REMARK VINA RESULT:      -5.1     12.537     14.375
REMARK  Name = 5281239_Fucoxanthin.pdbqt.pdb
REMARK  19 active torsions:
REMARK  status: ('A' for Active; 'I' for Inactive)
REMARK    1  A    between atoms: C_1  and  C_5
REMARK    2  A    between atoms: C_2  and  C_26
REMARK    3  A    between atoms: C_3  and  C_5
REMARK    4  A    between atoms: C_3  and  C_7
REMARK    5  A    between atoms: C_6  and  C_10
REMARK    6  A    between atoms: C_8  and  C_10
REMARK    7  A    between atoms: C_8  and  C_12
REMARK    8  A    between atoms: C_12  and  C_13
REMARK    9  A    between atoms: C_13  and  C_15
REMARK   10  A    between atoms: C_20  and  O_24
REMARK   11  A    between atoms: C_26  and  C_27
REMARK   12  A    between atoms: C_27  and  C_30
REMARK   13  A    between atoms: C_29  and  C_33
REMARK   14  A    between atoms: C_31  and  C_33
REMARK   15  A    between atoms: C_31  and  C_44
REMARK   16  A    between atoms: C_35  and  O_45
REMARK   17  A    between atoms: C_37  and  O_47
REMARK   18  A    between atoms: C_39  and  C_43
REMARK   19  A    between atoms: O_47  and  C_49
REMARK                            x       y       z     vdW  Elec       q    Type
REMARK                         _______ _______ _______ _____ _____    ______ ____
ROOT
ATOM      1  C   UNL     1      35.257  17.249  28.303  0.00  0.00    +0.000 C 
ATOM      2  C   UNL     1      35.646  16.543  29.192  0.00  0.00    +0.000 C 
ENDROOT
BRANCH   2   3
ATOM      3  C   UNL     1      36.137  15.642  30.332  0.00  0.00    +0.000 C 
BRANCH   3   4
ATOM      4  C   UNL     1      36.553  14.879  31.292  0.00  0.00    +0.000 C 
ATOM      5  C   UNL     1      35.696  14.664  32.502  0.00  0.00    +0.000 C 
BRANCH   4   7
ATOM      6  C   UNL     1      38.846  13.638  31.075  0.00  0.00    +0.000 C 
ATOM      7  C   UNL     1      37.794  14.208  31.173  0.00  0.00    +0.000 C 
BRANCH   6   8
ATOM      8  C   UNL     1      40.188  12.906  30.952  0.00  0.00    +0.000 C 
BRANCH   8   9
ATOM      9  C   UNL     1      41.320  12.281  30.856  0.00  0.00    +0.000 C 
ATOM     10  C   UNL     1      42.495  12.721  31.674  0.00  0.00    +0.000 C 
BRANCH   9  12
ATOM     11  C   UNL     1      41.619  10.385  29.073  0.00  0.00    +0.000 C 
ATOM     12  C   UNL     1      41.478  11.255  29.892  0.00  0.00    +0.000 C 
BRANCH  11  18
ATOM     13  C   UNL     1      42.129   7.987  28.555  0.00  0.00    +0.000 C 
ATOM     14  C   UNL     1      41.664   9.736  26.686  0.00  0.00    +0.000 C 
ATOM     15  C   UNL     1      41.950   7.076  27.416  0.00  0.00    +0.000 C 
ATOM     16  C   UNL     1      41.640   7.131  26.044  0.00  0.00    +0.000 C 
ATOM     17  C   UNL     1      41.529   8.527  25.880  0.00  0.00    +0.000 C 
ATOM     18  C   UNL     1      41.774   9.435  28.172  0.00  0.00    +0.000 C 
ATOM     19  C   UNL     1      43.605   7.951  29.036  0.00  0.00    +0.000 C 
ATOM     20  C   UNL     1      41.186   7.517  29.704  0.00  0.00    +0.000 C 
ATOM     21  C   UNL     1      42.842  10.593  26.214  0.00  0.00    +0.000 C 
BRANCH  14  22
ATOM     22  O   UNL     1      40.521  10.531  26.459  0.00  0.00    +0.000 OA
ATOM     23  H   UNL     1      40.357  10.367  25.511  0.00  0.00    +0.000 HD
ENDBRANCH  14  22
BRANCH  16  24
ATOM     24  O   UNL     1      42.388   6.376  25.150  0.00  0.00    +0.000 OA
BRANCH  24  26
ATOM     25  O   UNL     1      41.034   6.111  23.252  0.00  0.00    +0.000 OA
ATOM     26  C   UNL     1      41.565   5.737  24.282  0.00  0.00    +0.000 C 
ATOM     27  C   UNL     1      41.248   4.334  24.664  0.00  0.00    +0.000 C 
ENDBRANCH  24  26
ENDBRANCH  16  24
ENDBRANCH  11  18
ENDBRANCH   9  12
ENDBRANCH   8   9
ENDBRANCH   6   8
ENDBRANCH   4   7
ENDBRANCH   3   4
ENDBRANCH   2   3
BRANCH   1  28
ATOM     28  C   UNL     1      34.751  18.152  27.172  0.00  0.00    +0.000 C 
BRANCH  28  29
ATOM     29  C   UNL     1      34.318  18.906  26.212  0.00  0.00    +0.000 C 
ATOM     30  C   UNL     1      34.218  20.388  26.410  0.00  0.00    +0.000 C 
BRANCH  29  32
ATOM     31  C   UNL     1      33.566  17.828  23.950  0.00  0.00    +0.000 C 
ATOM     32  C   UNL     1      33.904  18.323  24.991  0.00  0.00    +0.000 C 
BRANCH  31  33
ATOM     33  C   UNL     1      33.149  17.198  22.615  0.00  0.00    +0.000 C 
BRANCH  33  34
ATOM     34  C   UNL     1      32.790  16.659  21.488  0.00  0.00    +0.000 C 
ATOM     35  C   UNL     1      32.552  17.601  20.326  0.00  0.00    +0.000 C 
BRANCH  34  37
ATOM     36  O   UNL     1      31.630  14.688  20.795  0.00  0.00    +0.000 OA
ATOM     37  C   UNL     1      32.584  15.181  21.388  0.00  0.00    +0.000 C 
BRANCH  37  38
ATOM     38  C   UNL     1      33.517  14.259  21.991  0.00  0.00    +0.000 C 
BRANCH  38  40
ATOM     39  O   UNL     1      35.423  14.031  23.391  0.00  0.00    +0.000 OA
ATOM     40  C   UNL     1      34.461  13.319  22.566  0.00  0.00    +0.000 C 
ATOM     41  C   UNL     1      34.536  13.169  24.100  0.00  0.00    +0.000 C 
ATOM     42  C   UNL     1      35.025  12.150  21.680  0.00  0.00    +0.000 C 
ATOM     43  C   UNL     1      35.201  12.014  24.611  0.00  0.00    +0.000 C 
ATOM     44  C   UNL     1      35.696  11.215  22.585  0.00  0.00    +0.000 C 
ATOM     45  C   UNL     1      35.864  10.959  23.960  0.00  0.00    +0.000 C 
ATOM     46  C   UNL     1      33.601  13.914  25.056  0.00  0.00    +0.000 C 
ATOM     47  C   UNL     1      33.786  11.497  21.020  0.00  0.00    +0.000 C 
ATOM     48  C   UNL     1      35.963  12.814  20.649  0.00  0.00    +0.000 C 
BRANCH  45  49
ATOM     49  O   UNL     1      35.884   9.688  24.449  0.00  0.00    +0.000 OA
ATOM     50  H   UNL     1      35.590   9.642  25.376  0.00  0.00    +0.000 HD
ENDBRANCH  45  49
ENDBRANCH  38  40
ENDBRANCH  37  38
ENDBRANCH  34  37
ENDBRANCH  33  34
ENDBRANCH  31  33
ENDBRANCH  29  32
ENDBRANCH  28  29
ENDBRANCH   1  28
TORSDOF 19
ENDMDL
