MODEL 1
REMARK VINA RESULT:      -6.5      0.000      0.000
REMARK  Name = 5281698_sexangularetin.pdbqt.pdb
REMARK  6 active torsions:
REMARK  status: ('A' for Active; 'I' for Inactive)
REMARK    1  A    between atoms: C_5  and  C_12
REMARK    2  A    between atoms: C_6  and  O_20
REMARK    3  A    between atoms: C_8  and  O_22
REMARK    4  A    between atoms: C_9  and  O_24
REMARK    5  A    between atoms: C_10  and  O_26
REMARK    6  A    between atoms: C_17  and  O_18
REMARK                            x       y       z     vdW  Elec       q    Type
REMARK                         _______ _______ _______ _____ _____    ______ ____
ROOT
ATOM      1  O   UNL     1      50.566   4.495   9.086  0.00  0.00    +0.000 OA
ATOM      2  O   UNL     1      51.239   5.371  12.984  0.00  0.00    +0.000 OA
ATOM      3  C   UNL     1      51.114   6.151  10.767  0.00  0.00    +0.000 A 
ATOM      4  C   UNL     1      50.883   5.782   9.443  0.00  0.00    +0.000 A 
ATOM      5  C   UNL     1      50.526   3.500  10.057  0.00  0.00    +0.000 A 
ATOM      6  C   UNL     1      50.954   6.752   8.433  0.00  0.00    +0.000 A 
ATOM      7  C   UNL     1      51.049   5.113  11.798  0.00  0.00    +0.000 A 
ATOM      8  C   UNL     1      50.738   3.733  11.366  0.00  0.00    +0.000 A 
ATOM      9  C   UNL     1      51.391   7.483  11.092  0.00  0.00    +0.000 A 
ATOM     10  C   UNL     1      51.191   8.089   8.773  0.00  0.00    +0.000 A 
ATOM     11  C   UNL     1      51.422   8.454  10.096  0.00  0.00    +0.000 A 
ENDROOT
BRANCH   5  12
ATOM     12  C   UNL     1      50.208   2.169   9.501  0.00  0.00    +0.000 A 
ATOM     13  C   UNL     1      51.244   1.274   9.210  0.00  0.00    +0.000 A 
ATOM     14  C   UNL     1      48.890   1.738   9.317  0.00  0.00    +0.000 A 
ATOM     15  C   UNL     1      50.977  -0.005   8.726  0.00  0.00    +0.000 A 
ATOM     16  C   UNL     1      48.609   0.462   8.832  0.00  0.00    +0.000 A 
ATOM     17  C   UNL     1      49.658  -0.400   8.540  0.00  0.00    +0.000 A 
BRANCH  17  18
ATOM     18  O   UNL     1      49.363  -1.646   8.068  0.00  0.00    +0.000 OA
ATOM     19  H   UNL     1      48.817  -1.545   7.268  0.00  0.00    +0.000 HD
ENDBRANCH  17  18
ENDBRANCH   5  12
BRANCH   6  20
ATOM     20  O   UNL     1      50.702   6.435   7.120  0.00  0.00    +0.000 OA
ATOM     21  C   UNL     1      51.885   6.065   6.452  0.00  0.00    +0.000 C 
ENDBRANCH   6  20
BRANCH   8  22
ATOM     22  O   UNL     1      50.665   2.768  12.353  0.00  0.00    +0.000 OA
ATOM     23  H   UNL     1      49.868   2.236  12.146  0.00  0.00    +0.000 HD
ENDBRANCH   8  22
BRANCH   9  24
ATOM     24  O   UNL     1      51.624   7.910  12.371  0.00  0.00    +0.000 OA
ATOM     25  H   UNL     1      50.773   8.204  12.769  0.00  0.00    +0.000 HD
ENDBRANCH   9  24
BRANCH  10  26
ATOM     26  O   UNL     1      51.181   9.050   7.802  0.00  0.00    +0.000 OA
ATOM     27  H   UNL     1      50.533   8.796   7.118  0.00  0.00    +0.000 HD
ENDBRANCH  10  26
TORSDOF 6
ENDMDL
MODEL 2
REMARK VINA RESULT:      -5.9      4.436      8.178
REMARK  Name = 5281698_sexangularetin.pdbqt.pdb
REMARK  6 active torsions:
REMARK  status: ('A' for Active; 'I' for Inactive)
REMARK    1  A    between atoms: C_5  and  C_12
REMARK    2  A    between atoms: C_6  and  O_20
REMARK    3  A    between atoms: C_8  and  O_22
REMARK    4  A    between atoms: C_9  and  O_24
REMARK    5  A    between atoms: C_10  and  O_26
REMARK    6  A    between atoms: C_17  and  O_18
REMARK                            x       y       z     vdW  Elec       q    Type
REMARK                         _______ _______ _______ _____ _____    ______ ____
ROOT
ATOM      1  O   UNL     1      50.825   0.401   5.423  0.00  0.00    +0.000 OA
ATOM      2  O   UNL     1      50.605  -3.593   4.782  0.00  0.00    +0.000 OA
ATOM      3  C   UNL     1      51.094  -1.465   3.902  0.00  0.00    +0.000 A 
ATOM      4  C   UNL     1      51.137  -0.101   4.184  0.00  0.00    +0.000 A 
ATOM      5  C   UNL     1      50.392  -0.458   6.426  0.00  0.00    +0.000 A 
ATOM      6  C   UNL     1      51.532   0.798   3.184  0.00  0.00    +0.000 A 
ATOM      7  C   UNL     1      50.663  -2.379   4.962  0.00  0.00    +0.000 A 
ATOM      8  C   UNL     1      50.302  -1.793   6.272  0.00  0.00    +0.000 A 
ATOM      9  C   UNL     1      51.464  -1.939   2.639  0.00  0.00    +0.000 A 
ATOM     10  C   UNL     1      51.939   0.312   1.936  0.00  0.00    +0.000 A 
ATOM     11  C   UNL     1      51.894  -1.052   1.658  0.00  0.00    +0.000 A 
ENDROOT
BRANCH   5  12
ATOM     12  C   UNL     1      50.061   0.246   7.682  0.00  0.00    +0.000 A 
ATOM     13  C   UNL     1      48.940   1.083   7.733  0.00  0.00    +0.000 A 
ATOM     14  C   UNL     1      50.796   0.053   8.856  0.00  0.00    +0.000 A 
ATOM     15  C   UNL     1      48.574   1.728   8.912  0.00  0.00    +0.000 A 
ATOM     16  C   UNL     1      50.443   0.694  10.042  0.00  0.00    +0.000 A 
ATOM     17  C   UNL     1      49.332   1.528  10.060  0.00  0.00    +0.000 A 
BRANCH  17  18
ATOM     18  O   UNL     1      49.001   2.145  11.231  0.00  0.00    +0.000 OA
ATOM     19  H   UNL     1      49.641   1.868  11.910  0.00  0.00    +0.000 HD
ENDBRANCH  17  18
ENDBRANCH   5  12
BRANCH   6  20
ATOM     20  O   UNL     1      51.618   2.147   3.430  0.00  0.00    +0.000 OA
ATOM     21  C   UNL     1      52.880   2.488   3.955  0.00  0.00    +0.000 C 
ENDBRANCH   6  20
BRANCH   8  22
ATOM     22  O   UNL     1      49.912  -2.670   7.266  0.00  0.00    +0.000 OA
ATOM     23  H   UNL     1      49.772  -3.532   6.819  0.00  0.00    +0.000 HD
ENDBRANCH   8  22
BRANCH   9  24
ATOM     24  O   UNL     1      51.445  -3.264   2.300  0.00  0.00    +0.000 OA
ATOM     25  H   UNL     1      51.986  -3.394   1.488  0.00  0.00    +0.000 HD
ENDBRANCH   9  24
BRANCH  10  26
ATOM     26  O   UNL     1      52.401   1.178   0.986  0.00  0.00    +0.000 OA
ATOM     27  H   UNL     1      51.768   1.915   0.902  0.00  0.00    +0.000 HD
ENDBRANCH  10  26
TORSDOF 6
ENDMDL
MODEL 3
REMARK VINA RESULT:      -5.8      4.173      7.414
REMARK  Name = 5281698_sexangularetin.pdbqt.pdb
REMARK  6 active torsions:
REMARK  status: ('A' for Active; 'I' for Inactive)
REMARK    1  A    between atoms: C_5  and  C_12
REMARK    2  A    between atoms: C_6  and  O_20
REMARK    3  A    between atoms: C_8  and  O_22
REMARK    4  A    between atoms: C_9  and  O_24
REMARK    5  A    between atoms: C_10  and  O_26
REMARK    6  A    between atoms: C_17  and  O_18
REMARK                            x       y       z     vdW  Elec       q    Type
REMARK                         _______ _______ _______ _____ _____    ______ ____
ROOT
ATOM      1  O   UNL     1      50.427   0.240   5.901  0.00  0.00    +0.000 OA
ATOM      2  O   UNL     1      52.117   3.687   4.604  0.00  0.00    +0.000 OA
ATOM      3  C   UNL     1      51.507   1.467   4.113  0.00  0.00    +0.000 A 
ATOM      4  C   UNL     1      50.925   0.308   4.624  0.00  0.00    +0.000 A 
ATOM      5  C   UNL     1      50.550   1.336   6.748  0.00  0.00    +0.000 A 
ATOM      6  C   UNL     1      50.819  -0.828   3.809  0.00  0.00    +0.000 A 
ATOM      7  C   UNL     1      51.617   2.633   4.991  0.00  0.00    +0.000 A 
ATOM      8  C   UNL     1      51.099   2.507   6.371  0.00  0.00    +0.000 A 
ATOM      9  C   UNL     1      51.962   1.507   2.790  0.00  0.00    +0.000 A 
ATOM     10  C   UNL     1      51.240  -0.766   2.476  0.00  0.00    +0.000 A 
ATOM     11  C   UNL     1      51.821   0.392   1.969  0.00  0.00    +0.000 A 
ENDROOT
BRANCH   5  12
ATOM     12  C   UNL     1      49.998   1.085   8.095  0.00  0.00    +0.000 A 
ATOM     13  C   UNL     1      50.858   1.039   9.199  0.00  0.00    +0.000 A 
ATOM     14  C   UNL     1      48.624   0.959   8.321  0.00  0.00    +0.000 A 
ATOM     15  C   UNL     1      50.366   0.847  10.488  0.00  0.00    +0.000 A 
ATOM     16  C   UNL     1      48.119   0.765   9.605  0.00  0.00    +0.000 A 
ATOM     17  C   UNL     1      48.997   0.711  10.680  0.00  0.00    +0.000 A 
BRANCH  17  18
ATOM     18  O   UNL     1      48.483   0.523  11.930  0.00  0.00    +0.000 OA
ATOM     19  H   UNL     1      47.646   0.033  11.843  0.00  0.00    +0.000 HD
ENDBRANCH  17  18
ENDBRANCH   5  12
BRANCH   6  20
ATOM     20  O   UNL     1      50.224  -1.980   4.265  0.00  0.00    +0.000 OA
ATOM     21  C   UNL     1      51.170  -2.840   4.856  0.00  0.00    +0.000 C 
ENDBRANCH   6  20
BRANCH   8  22
ATOM     22  O   UNL     1      51.197   3.621   7.182  0.00  0.00    +0.000 OA
ATOM     23  H   UNL     1      50.528   3.496   7.887  0.00  0.00    +0.000 HD
ENDBRANCH   8  22
BRANCH   9  24
ATOM     24  O   UNL     1      52.540   2.612   2.229  0.00  0.00    +0.000 OA
ATOM     25  H   UNL     1      52.348   2.617   1.264  0.00  0.00    +0.000 HD
ENDBRANCH   9  24
BRANCH  10  26
ATOM     26  O   UNL     1      51.065  -1.845   1.656  0.00  0.00    +0.000 OA
ATOM     27  H   UNL     1      51.942  -2.181   1.391  0.00  0.00    +0.000 HD
ENDBRANCH  10  26
TORSDOF 6
ENDMDL
MODEL 4
REMARK VINA RESULT:      -5.6      4.551      9.059
REMARK  Name = 5281698_sexangularetin.pdbqt.pdb
REMARK  6 active torsions:
REMARK  status: ('A' for Active; 'I' for Inactive)
REMARK    1  A    between atoms: C_5  and  C_12
REMARK    2  A    between atoms: C_6  and  O_20
REMARK    3  A    between atoms: C_8  and  O_22
REMARK    4  A    between atoms: C_9  and  O_24
REMARK    5  A    between atoms: C_10  and  O_26
REMARK    6  A    between atoms: C_17  and  O_18
REMARK                            x       y       z     vdW  Elec       q    Type
REMARK                         _______ _______ _______ _____ _____    ______ ____
ROOT
ATOM      1  O   UNL     1      50.376  -1.940   7.607  0.00  0.00    +0.000 OA
ATOM      2  O   UNL     1      50.383   0.193   4.163  0.00  0.00    +0.000 OA
ATOM      3  C   UNL     1      50.371  -1.928   5.185  0.00  0.00    +0.000 A 
ATOM      4  C   UNL     1      50.380  -2.602   6.405  0.00  0.00    +0.000 A 
ATOM      5  C   UNL     1      50.421  -0.551   7.630  0.00  0.00    +0.000 A 
ATOM      6  C   UNL     1      50.374  -4.004   6.419  0.00  0.00    +0.000 A 
ATOM      7  C   UNL     1      50.393  -0.464   5.201  0.00  0.00    +0.000 A 
ATOM      8  C   UNL     1      50.422   0.210   6.519  0.00  0.00    +0.000 A 
ATOM      9  C   UNL     1      50.331  -2.641   3.982  0.00  0.00    +0.000 A 
ATOM     10  C   UNL     1      50.293  -4.708   5.212  0.00  0.00    +0.000 A 
ATOM     11  C   UNL     1      50.284  -4.031   3.996  0.00  0.00    +0.000 A 
ENDROOT
BRANCH   5  12
ATOM     12  C   UNL     1      50.448   0.000   9.000  0.00  0.00    +0.000 A 
ATOM     13  C   UNL     1      51.667   0.400   9.563  0.00  0.00    +0.000 A 
ATOM     14  C   UNL     1      49.280   0.204   9.741  0.00  0.00    +0.000 A 
ATOM     15  C   UNL     1      51.723   0.964  10.835  0.00  0.00    +0.000 A 
ATOM     16  C   UNL     1      49.322   0.765  11.016  0.00  0.00    +0.000 A 
ATOM     17  C   UNL     1      50.546   1.141  11.553  0.00  0.00    +0.000 A 
BRANCH  17  18
ATOM     18  O   UNL     1      50.567   1.690  12.802  0.00  0.00    +0.000 OA
ATOM     19  H   UNL     1      50.522   0.967  13.452  0.00  0.00    +0.000 HD
ENDBRANCH  17  18
ENDBRANCH   5  12
BRANCH   6  20
ATOM     20  O   UNL     1      50.351  -4.705   7.600  0.00  0.00    +0.000 OA
ATOM     21  C   UNL     1      51.655  -5.029   8.023  0.00  0.00    +0.000 C 
ENDBRANCH   6  20
BRANCH   8  22
ATOM     22  O   UNL     1      50.428   1.591   6.517  0.00  0.00    +0.000 OA
ATOM     23  H   UNL     1      51.029   1.856   7.245  0.00  0.00    +0.000 HD
ENDBRANCH   8  22
BRANCH   9  24
ATOM     24  O   UNL     1      50.317  -2.040   2.754  0.00  0.00    +0.000 OA
ATOM     25  H   UNL     1      50.231  -2.733   2.060  0.00  0.00    +0.000 HD
ENDBRANCH   9  24
BRANCH  10  26
ATOM     26  O   UNL     1      50.205  -6.071   5.225  0.00  0.00    +0.000 OA
ATOM     27  H   UNL     1      51.058  -6.436   5.526  0.00  0.00    +0.000 HD
ENDBRANCH  10  26
TORSDOF 6
ENDMDL
MODEL 5
REMARK VINA RESULT:      -5.4      3.161      4.739
REMARK  Name = 5281698_sexangularetin.pdbqt.pdb
REMARK  6 active torsions:
REMARK  status: ('A' for Active; 'I' for Inactive)
REMARK    1  A    between atoms: C_5  and  C_12
REMARK    2  A    between atoms: C_6  and  O_20
REMARK    3  A    between atoms: C_8  and  O_22
REMARK    4  A    between atoms: C_9  and  O_24
REMARK    5  A    between atoms: C_10  and  O_26
REMARK    6  A    between atoms: C_17  and  O_18
REMARK                            x       y       z     vdW  Elec       q    Type
REMARK                         _______ _______ _______ _____ _____    ______ ____
ROOT
ATOM      1  O   UNL     1      52.520   5.623   9.324  0.00  0.00    +0.000 OA
ATOM      2  O   UNL     1      50.667   9.201   9.746  0.00  0.00    +0.000 OA
ATOM      3  C   UNL     1      51.681   7.649   8.295  0.00  0.00    +0.000 A 
ATOM      4  C   UNL     1      52.322   6.413   8.220  0.00  0.00    +0.000 A 
ATOM      5  C   UNL     1      52.126   6.078  10.577  0.00  0.00    +0.000 A 
ATOM      6  C   UNL     1      52.766   5.941   6.977  0.00  0.00    +0.000 A 
ATOM      7  C   UNL     1      51.241   8.123   9.609  0.00  0.00    +0.000 A 
ATOM      8  C   UNL     1      51.505   7.255  10.778  0.00  0.00    +0.000 A 
ATOM      9  C   UNL     1      51.459   8.404   7.138  0.00  0.00    +0.000 A 
ATOM     10  C   UNL     1      52.505   6.684   5.820  0.00  0.00    +0.000 A 
ATOM     11  C   UNL     1      51.864   7.917   5.899  0.00  0.00    +0.000 A 
ENDROOT
BRANCH   5  12
ATOM     12  C   UNL     1      52.445   5.125  11.660  0.00  0.00    +0.000 A 
ATOM     13  C   UNL     1      53.516   5.388  12.522  0.00  0.00    +0.000 A 
ATOM     14  C   UNL     1      51.665   3.989  11.902  0.00  0.00    +0.000 A 
ATOM     15  C   UNL     1      53.817   4.533  13.580  0.00  0.00    +0.000 A 
ATOM     16  C   UNL     1      51.957   3.124  12.955  0.00  0.00    +0.000 A 
ATOM     17  C   UNL     1      53.033   3.405  13.787  0.00  0.00    +0.000 A 
BRANCH  17  18
ATOM     18  O   UNL     1      53.301   2.547  14.814  0.00  0.00    +0.000 OA
ATOM     19  H   UNL     1      52.506   2.483  15.371  0.00  0.00    +0.000 HD
ENDBRANCH  17  18
ENDBRANCH   5  12
BRANCH   6  20
ATOM     20  O   UNL     1      53.374   4.715   6.855  0.00  0.00    +0.000 OA
ATOM     21  C   UNL     1      52.422   3.691   6.684  0.00  0.00    +0.000 C 
ENDBRANCH   6  20
BRANCH   8  22
ATOM     22  O   UNL     1      51.070   7.711  12.008  0.00  0.00    +0.000 OA
ATOM     23  H   UNL     1      51.641   7.270  12.671  0.00  0.00    +0.000 HD
ENDBRANCH   8  22
BRANCH   9  24
ATOM     24  O   UNL     1      50.835   9.620   7.144  0.00  0.00    +0.000 OA
ATOM     25  H   UNL     1      51.332  10.237   6.559  0.00  0.00    +0.000 HD
ENDBRANCH   9  24
BRANCH  10  26
ATOM     26  O   UNL     1      52.864   6.189   4.598  0.00  0.00    +0.000 OA
ATOM     27  H   UNL     1      52.171   6.420   3.952  0.00  0.00    +0.000 HD
ENDBRANCH  10  26
TORSDOF 6
ENDMDL
MODEL 6
REMARK VINA RESULT:      -5.3      3.228      5.884
REMARK  Name = 5281698_sexangularetin.pdbqt.pdb
REMARK  6 active torsions:
REMARK  status: ('A' for Active; 'I' for Inactive)
REMARK    1  A    between atoms: C_5  and  C_12
REMARK    2  A    between atoms: C_6  and  O_20
REMARK    3  A    between atoms: C_8  and  O_22
REMARK    4  A    between atoms: C_9  and  O_24
REMARK    5  A    between atoms: C_10  and  O_26
REMARK    6  A    between atoms: C_17  and  O_18
REMARK                            x       y       z     vdW  Elec       q    Type
REMARK                         _______ _______ _______ _____ _____    ______ ____
ROOT
ATOM      1  O   UNL     1      51.338   3.033   6.664  0.00  0.00    +0.000 OA
ATOM      2  O   UNL     1      51.529   0.459   3.541  0.00  0.00    +0.000 OA
ATOM      3  C   UNL     1      52.013   2.606   4.377  0.00  0.00    +0.000 A 
ATOM      4  C   UNL     1      51.905   3.445   5.485  0.00  0.00    +0.000 A 
ATOM      5  C   UNL     1      50.794   1.757   6.758  0.00  0.00    +0.000 A 
ATOM      6  C   UNL     1      52.408   4.752   5.411  0.00  0.00    +0.000 A 
ATOM      7  C   UNL     1      51.465   1.252   4.478  0.00  0.00    +0.000 A 
ATOM      8  C   UNL     1      50.831   0.859   5.756  0.00  0.00    +0.000 A 
ATOM      9  C   UNL     1      52.639   3.052   3.208  0.00  0.00    +0.000 A 
ATOM     10  C   UNL     1      53.069   5.176   4.253  0.00  0.00    +0.000 A 
ATOM     11  C   UNL     1      53.174   4.335   3.148  0.00  0.00    +0.000 A 
ENDROOT
BRANCH   5  12
ATOM     12  C   UNL     1      50.191   1.486   8.079  0.00  0.00    +0.000 A 
ATOM     13  C   UNL     1      48.815   1.249   8.177  0.00  0.00    +0.000 A 
ATOM     14  C   UNL     1      50.963   1.389   9.241  0.00  0.00    +0.000 A 
ATOM     15  C   UNL     1      48.220   0.947   9.400  0.00  0.00    +0.000 A 
ATOM     16  C   UNL     1      50.381   1.091  10.472  0.00  0.00    +0.000 A 
ATOM     17  C   UNL     1      49.011   0.872  10.540  0.00  0.00    +0.000 A 
BRANCH  17  18
ATOM     18  O   UNL     1      48.460   0.579  11.754  0.00  0.00    +0.000 OA
ATOM     19  H   UNL     1      49.182   0.370  12.372  0.00  0.00    +0.000 HD
ENDBRANCH  17  18
ENDBRANCH   5  12
BRANCH   6  20
ATOM     20  O   UNL     1      52.350   5.600   6.490  0.00  0.00    +0.000 OA
ATOM     21  C   UNL     1      51.196   6.406   6.441  0.00  0.00    +0.000 C 
ENDBRANCH   6  20
BRANCH   8  22
ATOM     22  O   UNL     1      50.333  -0.427   5.839  0.00  0.00    +0.000 OA
ATOM     23  H   UNL     1      49.397  -0.368   5.554  0.00  0.00    +0.000 HD
ENDBRANCH   8  22
BRANCH   9  24
ATOM     24  O   UNL     1      52.779   2.278   2.089  0.00  0.00    +0.000 OA
ATOM     25  H   UNL     1      52.363   2.740   1.327  0.00  0.00    +0.000 HD
ENDBRANCH   9  24
BRANCH  10  26
ATOM     26  O   UNL     1      53.631   6.420   4.206  0.00  0.00    +0.000 OA
ATOM     27  H   UNL     1      52.917   7.084   4.169  0.00  0.00    +0.000 HD
ENDBRANCH  10  26
TORSDOF 6
ENDMDL
MODEL 7
REMARK VINA RESULT:      -5.3      3.192      5.244
REMARK  Name = 5281698_sexangularetin.pdbqt.pdb
REMARK  6 active torsions:
REMARK  status: ('A' for Active; 'I' for Inactive)
REMARK    1  A    between atoms: C_5  and  C_12
REMARK    2  A    between atoms: C_6  and  O_20
REMARK    3  A    between atoms: C_8  and  O_22
REMARK    4  A    between atoms: C_9  and  O_24
REMARK    5  A    between atoms: C_10  and  O_26
REMARK    6  A    between atoms: C_17  and  O_18
REMARK                            x       y       z     vdW  Elec       q    Type
REMARK                         _______ _______ _______ _____ _____    ______ ____
ROOT
ATOM      1  O   UNL     1      53.270   6.215   8.882  0.00  0.00    +0.000 OA
ATOM      2  O   UNL     1      52.340   7.972   5.351  0.00  0.00    +0.000 OA
ATOM      3  C   UNL     1      53.888   7.746   7.109  0.00  0.00    +0.000 A 
ATOM      4  C   UNL     1      54.143   7.116   8.327  0.00  0.00    +0.000 A 
ATOM      5  C   UNL     1      52.058   5.952   8.253  0.00  0.00    +0.000 A 
ATOM      6  C   UNL     1      55.338   7.388   9.008  0.00  0.00    +0.000 A 
ATOM      7  C   UNL     1      52.626   7.454   6.428  0.00  0.00    +0.000 A 
ATOM      8  C   UNL     1      51.697   6.503   7.078  0.00  0.00    +0.000 A 
ATOM      9  C   UNL     1      54.827   8.624   6.557  0.00  0.00    +0.000 A 
ATOM     10  C   UNL     1      56.288   8.237   8.428  0.00  0.00    +0.000 A 
ATOM     11  C   UNL     1      56.030   8.864   7.212  0.00  0.00    +0.000 A 
ENDROOT
BRANCH   5  12
ATOM     12  C   UNL     1      51.221   4.991   8.999  0.00  0.00    +0.000 A 
ATOM     13  C   UNL     1      50.264   5.463   9.906  0.00  0.00    +0.000 A 
ATOM     14  C   UNL     1      51.301   3.612   8.780  0.00  0.00    +0.000 A 
ATOM     15  C   UNL     1      49.429   4.586  10.594  0.00  0.00    +0.000 A 
ATOM     16  C   UNL     1      50.473   2.723   9.464  0.00  0.00    +0.000 A 
ATOM     17  C   UNL     1      49.541   3.220  10.367  0.00  0.00    +0.000 A 
BRANCH  17  18
ATOM     18  O   UNL     1      48.738   2.334  11.024  0.00  0.00    +0.000 OA
ATOM     19  H   UNL     1      49.113   2.185  11.910  0.00  0.00    +0.000 HD
ENDBRANCH  17  18
ENDBRANCH   5  12
BRANCH   6  20
ATOM     20  O   UNL     1      55.641   6.765  10.194  0.00  0.00    +0.000 OA
ATOM     21  C   UNL     1      55.098   7.467  11.289  0.00  0.00    +0.000 C 
ENDBRANCH   6  20
BRANCH   8  22
ATOM     22  O   UNL     1      50.516   6.227   6.415  0.00  0.00    +0.000 OA
ATOM     23  H   UNL     1      50.151   5.426   6.846  0.00  0.00    +0.000 HD
ENDBRANCH   8  22
BRANCH   9  24
ATOM     24  O   UNL     1      54.639   9.271   5.366  0.00  0.00    +0.000 OA
ATOM     25  H   UNL     1      55.517   9.491   4.980  0.00  0.00    +0.000 HD
ENDBRANCH   9  24
BRANCH  10  26
ATOM     26  O   UNL     1      57.487   8.441   9.050  0.00  0.00    +0.000 OA
ATOM     27  H   UNL     1      57.964   7.591   9.095  0.00  0.00    +0.000 HD
ENDBRANCH  10  26
TORSDOF 6
ENDMDL
MODEL 8
REMARK VINA RESULT:      -5.2      3.442      7.956
REMARK  Name = 5281698_sexangularetin.pdbqt.pdb
REMARK  6 active torsions:
REMARK  status: ('A' for Active; 'I' for Inactive)
REMARK    1  A    between atoms: C_5  and  C_12
REMARK    2  A    between atoms: C_6  and  O_20
REMARK    3  A    between atoms: C_8  and  O_22
REMARK    4  A    between atoms: C_9  and  O_24
REMARK    5  A    between atoms: C_10  and  O_26
REMARK    6  A    between atoms: C_17  and  O_18
REMARK                            x       y       z     vdW  Elec       q    Type
REMARK                         _______ _______ _______ _____ _____    ______ ____
ROOT
ATOM      1  O   UNL     1      51.443   4.197   6.061  0.00  0.00    +0.000 OA
ATOM      2  O   UNL     1      53.635   4.770   2.702  0.00  0.00    +0.000 OA
ATOM      3  C   UNL     1      52.366   3.285   4.016  0.00  0.00    +0.000 A 
ATOM      4  C   UNL     1      51.632   3.151   5.194  0.00  0.00    +0.000 A 
ATOM      5  C   UNL     1      52.043   5.425   5.803  0.00  0.00    +0.000 A 
ATOM      6  C   UNL     1      51.046   1.917   5.505  0.00  0.00    +0.000 A 
ATOM      7  C   UNL     1      52.979   4.582   3.724  0.00  0.00    +0.000 A 
ATOM      8  C   UNL     1      52.779   5.674   4.703  0.00  0.00    +0.000 A 
ATOM      9  C   UNL     1      52.497   2.205   3.137  0.00  0.00    +0.000 A 
ATOM     10  C   UNL     1      51.149   0.853   4.601  0.00  0.00    +0.000 A 
ATOM     11  C   UNL     1      51.882   0.991   3.425  0.00  0.00    +0.000 A 
ENDROOT
BRANCH   5  12
ATOM     12  C   UNL     1      51.770   6.429   6.851  0.00  0.00    +0.000 A 
ATOM     13  C   UNL     1      50.851   7.456   6.605  0.00  0.00    +0.000 A 
ATOM     14  C   UNL     1      52.352   6.353   8.120  0.00  0.00    +0.000 A 
ATOM     15  C   UNL     1      50.538   8.394   7.586  0.00  0.00    +0.000 A 
ATOM     16  C   UNL     1      52.050   7.287   9.110  0.00  0.00    +0.000 A 
ATOM     17  C   UNL     1      51.142   8.301   8.833  0.00  0.00    +0.000 A 
BRANCH  17  18
ATOM     18  O   UNL     1      50.858   9.205   9.816  0.00  0.00    +0.000 OA
ATOM     19  H   UNL     1      50.674   8.713  10.635  0.00  0.00    +0.000 HD
ENDBRANCH  17  18
ENDBRANCH   5  12
BRANCH   6  20
ATOM     20  O   UNL     1      50.290   1.752   6.640  0.00  0.00    +0.000 OA
ATOM     21  C   UNL     1      51.084   1.318   7.720  0.00  0.00    +0.000 C 
ENDBRANCH   6  20
BRANCH   8  22
ATOM     22  O   UNL     1      53.352   6.896   4.406  0.00  0.00    +0.000 OA
ATOM     23  H   UNL     1      53.108   7.083   3.474  0.00  0.00    +0.000 HD
ENDBRANCH   8  22
BRANCH   9  24
ATOM     24  O   UNL     1      53.200   2.272   1.965  0.00  0.00    +0.000 OA
ATOM     25  H   UNL     1      54.153   2.121   2.156  0.00  0.00    +0.000 HD
ENDBRANCH   9  24
BRANCH  10  26
ATOM     26  O   UNL     1      50.511  -0.327   4.862  0.00  0.00    +0.000 OA
ATOM     27  H   UNL     1      50.599  -0.525   5.813  0.00  0.00    +0.000 HD
ENDBRANCH  10  26
TORSDOF 6
ENDMDL
MODEL 9
REMARK VINA RESULT:      -5.1     12.756     15.300
REMARK  Name = 5281698_sexangularetin.pdbqt.pdb
REMARK  6 active torsions:
REMARK  status: ('A' for Active; 'I' for Inactive)
REMARK    1  A    between atoms: C_5  and  C_12
REMARK    2  A    between atoms: C_6  and  O_20
REMARK    3  A    between atoms: C_8  and  O_22
REMARK    4  A    between atoms: C_9  and  O_24
REMARK    5  A    between atoms: C_10  and  O_26
REMARK    6  A    between atoms: C_17  and  O_18
REMARK                            x       y       z     vdW  Elec       q    Type
REMARK                         _______ _______ _______ _____ _____    ______ ____
ROOT
ATOM      1  O   UNL     1      52.795  18.217   9.993  0.00  0.00    +0.000 OA
ATOM      2  O   UNL     1      49.245  18.034   8.049  0.00  0.00    +0.000 OA
ATOM      3  C   UNL     1      50.475  17.521   9.989  0.00  0.00    +0.000 A 
ATOM      4  C   UNL     1      51.726  17.607  10.599  0.00  0.00    +0.000 A 
ATOM      5  C   UNL     1      52.662  18.721   8.704  0.00  0.00    +0.000 A 
ATOM      6  C   UNL     1      51.906  17.074  11.883  0.00  0.00    +0.000 A 
ATOM      7  C   UNL     1      50.320  18.073   8.642  0.00  0.00    +0.000 A 
ATOM      8  C   UNL     1      51.508  18.691   8.011  0.00  0.00    +0.000 A 
ATOM      9  C   UNL     1      49.399  16.931  10.661  0.00  0.00    +0.000 A 
ATOM     10  C   UNL     1      50.814  16.521  12.563  0.00  0.00    +0.000 A 
ATOM     11  C   UNL     1      49.566  16.437  11.951  0.00  0.00    +0.000 A 
ENDROOT
BRANCH   5  12
ATOM     12  C   UNL     1      53.914  19.309   8.185  0.00  0.00    +0.000 A 
ATOM     13  C   UNL     1      54.742  18.550   7.349  0.00  0.00    +0.000 A 
ATOM     14  C   UNL     1      54.274  20.635   8.446  0.00  0.00    +0.000 A 
ATOM     15  C   UNL     1      55.907  19.088   6.808  0.00  0.00    +0.000 A 
ATOM     16  C   UNL     1      55.438  21.185   7.913  0.00  0.00    +0.000 A 
ATOM     17  C   UNL     1      56.247  20.405   7.096  0.00  0.00    +0.000 A 
BRANCH  17  18
ATOM     18  O   UNL     1      57.381  20.961   6.582  0.00  0.00    +0.000 OA
ATOM     19  H   UNL     1      57.503  20.621   5.678  0.00  0.00    +0.000 HD
ENDBRANCH  17  18
ENDBRANCH   5  12
BRANCH   6  20
ATOM     20  O   UNL     1      53.114  17.165  12.530  0.00  0.00    +0.000 OA
ATOM     21  C   UNL     1      53.919  16.041  12.263  0.00  0.00    +0.000 C 
ENDBRANCH   6  20
BRANCH   8  22
ATOM     22  O   UNL     1      51.341  19.221   6.746  0.00  0.00    +0.000 OA
ATOM     23  H   UNL     1      51.170  18.455   6.158  0.00  0.00    +0.000 HD
ENDBRANCH   8  22
BRANCH   9  24
ATOM     24  O   UNL     1      48.148  16.818  10.120  0.00  0.00    +0.000 OA
ATOM     25  H   UNL     1      47.872  15.874  10.148  0.00  0.00    +0.000 HD
ENDBRANCH   9  24
BRANCH  10  26
ATOM     26  O   UNL     1      50.967  16.074  13.845  0.00  0.00    +0.000 OA
ATOM     27  H   UNL     1      50.553  16.717  14.450  0.00  0.00    +0.000 HD
ENDBRANCH  10  26
TORSDOF 6
ENDMDL
