MODEL 1
REMARK VINA RESULT:      -5.8      0.000      0.000
REMARK  Name = 5281416_Esculetin.pdbqt.pdb
REMARK  2 active torsions:
REMARK  status: ('A' for Active; 'I' for Inactive)
REMARK    1  A    between atoms: C_7  and  O_12
REMARK    2  A    between atoms: C_8  and  O_14
REMARK                            x       y       z     vdW  Elec       q    Type
REMARK                         _______ _______ _______ _____ _____    ______ ____
ROOT
ATOM      1  O   UNL     1      41.057   0.558  14.236  0.00  0.00    +0.000 OA
ATOM      2  O   UNL     1      39.377   2.196  14.242  0.00  0.00    +0.000 OA
ATOM      3  C   UNL     1      40.459  -1.634  13.208  0.00  0.00    +0.000 A 
ATOM      4  C   UNL     1      41.405  -0.795  13.858  0.00  0.00    +0.000 A 
ATOM      5  C   UNL     1      40.785  -2.930  12.843  0.00  0.00    +0.000 A 
ATOM      6  C   UNL     1      42.686  -1.240  14.151  0.00  0.00    +0.000 A 
ATOM      7  C   UNL     1      42.072  -3.374  13.139  0.00  0.00    +0.000 A 
ATOM      8  C   UNL     1      43.003  -2.543  13.781  0.00  0.00    +0.000 A 
ATOM      9  C   UNL     1      39.201  -1.021  12.985  0.00  0.00    +0.000 A 
ATOM     10  C   UNL     1      38.933   0.097  13.304  0.00  0.00    +0.000 A 
ATOM     11  C   UNL     1      39.759   1.072  13.962  0.00  0.00    +0.000 A 
ENDROOT
BRANCH   7  12
ATOM     12  O   UNL     1      42.472  -4.643  12.811  0.00  0.00    +0.000 OA
ATOM     13  H   UNL     1      43.421  -4.720  13.021  0.00  0.00    +0.000 HD
ENDBRANCH   7  12
BRANCH   8  14
ATOM     14  O   UNL     1      44.256  -3.020  14.052  0.00  0.00    +0.000 OA
ATOM     15  H   UNL     1      44.543  -2.548  14.860  0.00  0.00    +0.000 HD
ENDBRANCH   8  14
TORSDOF 2
ENDMDL
MODEL 2
REMARK VINA RESULT:      -5.7      1.909      4.674
REMARK  Name = 5281416_Esculetin.pdbqt.pdb
REMARK  2 active torsions:
REMARK  status: ('A' for Active; 'I' for Inactive)
REMARK    1  A    between atoms: C_7  and  O_12
REMARK    2  A    between atoms: C_8  and  O_14
REMARK                            x       y       z     vdW  Elec       q    Type
REMARK                         _______ _______ _______ _____ _____    ______ ____
ROOT
ATOM      1  O   UNL     1      43.856  -2.949  13.847  0.00  0.00    +0.000 OA
ATOM      2  O   UNL     1      44.928  -4.067  15.609  0.00  0.00    +0.000 OA
ATOM      3  C   UNL     1      41.990  -1.421  14.480  0.00  0.00    +0.000 A 
ATOM      4  C   UNL     1      42.813  -2.014  13.483  0.00  0.00    +0.000 A 
ATOM      5  C   UNL     1      40.989  -0.525  14.139  0.00  0.00    +0.000 A 
ATOM      6  C   UNL     1      42.647  -1.720  12.138  0.00  0.00    +0.000 A 
ATOM      7  C   UNL     1      40.825  -0.232  12.787  0.00  0.00    +0.000 A 
ATOM      8  C   UNL     1      41.640  -0.819  11.807  0.00  0.00    +0.000 A 
ATOM      9  C   UNL     1      42.295  -1.832  15.801  0.00  0.00    +0.000 A 
ATOM     10  C   UNL     1      43.160  -2.605  16.080  0.00  0.00    +0.000 A 
ATOM     11  C   UNL     1      44.076  -3.291  15.209  0.00  0.00    +0.000 A 
ENDROOT
BRANCH   7  12
ATOM     12  O   UNL     1      39.858   0.644  12.369  0.00  0.00    +0.000 OA
ATOM     13  H   UNL     1      40.097   0.947  11.474  0.00  0.00    +0.000 HD
ENDBRANCH   7  12
BRANCH   8  14
ATOM     14  O   UNL     1      41.443  -0.502  10.491  0.00  0.00    +0.000 OA
ATOM     15  H   UNL     1      41.037   0.388  10.498  0.00  0.00    +0.000 HD
ENDBRANCH   8  14
TORSDOF 2
ENDMDL
MODEL 3
REMARK VINA RESULT:      -5.6      1.559      4.772
REMARK  Name = 5281416_Esculetin.pdbqt.pdb
REMARK  2 active torsions:
REMARK  status: ('A' for Active; 'I' for Inactive)
REMARK    1  A    between atoms: C_7  and  O_12
REMARK    2  A    between atoms: C_8  and  O_14
REMARK                            x       y       z     vdW  Elec       q    Type
REMARK                         _______ _______ _______ _____ _____    ______ ____
ROOT
ATOM      1  O   UNL     1      43.416  -3.831  14.348  0.00  0.00    +0.000 OA
ATOM      2  O   UNL     1      43.909  -6.060  13.807  0.00  0.00    +0.000 OA
ATOM      3  C   UNL     1      41.855  -2.640  12.811  0.00  0.00    +0.000 A 
ATOM      4  C   UNL     1      42.680  -2.644  13.970  0.00  0.00    +0.000 A 
ATOM      5  C   UNL     1      41.147  -1.508  12.442  0.00  0.00    +0.000 A 
ATOM      6  C   UNL     1      42.806  -1.519  14.772  0.00  0.00    +0.000 A 
ATOM      7  C   UNL     1      41.277  -0.380  13.250  0.00  0.00    +0.000 A 
ATOM      8  C   UNL     1      42.091  -0.388  14.392  0.00  0.00    +0.000 A 
ATOM      9  C   UNL     1      41.840  -3.871  12.108  0.00  0.00    +0.000 A 
ATOM     10  C   UNL     1      42.455  -4.839  12.438  0.00  0.00    +0.000 A 
ATOM     11  C   UNL     1      43.327  -5.016  13.567  0.00  0.00    +0.000 A 
ENDROOT
BRANCH   7  12
ATOM     12  O   UNL     1      40.609   0.779  12.952  0.00  0.00    +0.000 OA
ATOM     13  H   UNL     1      39.672   0.653  13.191  0.00  0.00    +0.000 HD
ENDBRANCH   7  12
BRANCH   8  14
ATOM     14  O   UNL     1      42.189   0.742  15.156  0.00  0.00    +0.000 OA
ATOM     15  H   UNL     1      42.543   0.441  16.018  0.00  0.00    +0.000 HD
ENDBRANCH   8  14
TORSDOF 2
ENDMDL
MODEL 4
REMARK VINA RESULT:      -5.3     20.148     21.190
REMARK  Name = 5281416_Esculetin.pdbqt.pdb
REMARK  2 active torsions:
REMARK  status: ('A' for Active; 'I' for Inactive)
REMARK    1  A    between atoms: C_7  and  O_12
REMARK    2  A    between atoms: C_8  and  O_14
REMARK                            x       y       z     vdW  Elec       q    Type
REMARK                         _______ _______ _______ _____ _____    ______ ____
ROOT
ATOM      1  O   UNL     1      52.051  17.102  11.250  0.00  0.00    +0.000 OA
ATOM      2  O   UNL     1      52.855  16.461  13.359  0.00  0.00    +0.000 OA
ATOM      3  C   UNL     1      49.598  16.851  10.879  0.00  0.00    +0.000 A 
ATOM      4  C   UNL     1      50.885  17.227  10.403  0.00  0.00    +0.000 A 
ATOM      5  C   UNL     1      48.477  16.968  10.073  0.00  0.00    +0.000 A 
ATOM      6  C   UNL     1      51.066  17.722   9.120  0.00  0.00    +0.000 A 
ATOM      7  C   UNL     1      48.662  17.466   8.786  0.00  0.00    +0.000 A 
ATOM      8  C   UNL     1      49.933  17.835   8.320  0.00  0.00    +0.000 A 
ATOM      9  C   UNL     1      49.593  16.366  12.210  0.00  0.00    +0.000 A 
ATOM     10  C   UNL     1      50.568  16.271  12.893  0.00  0.00    +0.000 A 
ATOM     11  C   UNL     1      51.930  16.601  12.575  0.00  0.00    +0.000 A 
ENDROOT
BRANCH   7  12
ATOM     12  O   UNL     1      47.603  17.611   7.928  0.00  0.00    +0.000 OA
ATOM     13  H   UNL     1      47.861  17.230   7.068  0.00  0.00    +0.000 HD
ENDBRANCH   7  12
BRANCH   8  14
ATOM     14  O   UNL     1      50.069  18.319   7.048  0.00  0.00    +0.000 OA
ATOM     15  H   UNL     1      50.025  17.533   6.467  0.00  0.00    +0.000 HD
ENDBRANCH   8  14
TORSDOF 2
ENDMDL
MODEL 5
REMARK VINA RESULT:      -5.2      1.641      4.356
REMARK  Name = 5281416_Esculetin.pdbqt.pdb
REMARK  2 active torsions:
REMARK  status: ('A' for Active; 'I' for Inactive)
REMARK    1  A    between atoms: C_7  and  O_12
REMARK    2  A    between atoms: C_8  and  O_14
REMARK                            x       y       z     vdW  Elec       q    Type
REMARK                         _______ _______ _______ _____ _____    ______ ____
ROOT
ATOM      1  O   UNL     1      42.553  -3.448  13.767  0.00  0.00    +0.000 OA
ATOM      2  O   UNL     1      42.204  -4.939  11.990  0.00  0.00    +0.000 OA
ATOM      3  C   UNL     1      41.365  -1.260  13.624  0.00  0.00    +0.000 A 
ATOM      4  C   UNL     1      42.237  -2.146  14.315  0.00  0.00    +0.000 A 
ATOM      5  C   UNL     1      41.059  -0.013  14.142  0.00  0.00    +0.000 A 
ATOM      6  C   UNL     1      42.812  -1.797  15.528  0.00  0.00    +0.000 A 
ATOM      7  C   UNL     1      41.637   0.335  15.361  0.00  0.00    +0.000 A 
ATOM      8  C   UNL     1      42.497  -0.542  16.039  0.00  0.00    +0.000 A 
ATOM      9  C   UNL     1      40.868  -1.775  12.401  0.00  0.00    +0.000 A 
ATOM     10  C   UNL     1      41.142  -2.853  11.967  0.00  0.00    +0.000 A 
ATOM     11  C   UNL     1      41.996  -3.864  12.527  0.00  0.00    +0.000 A 
ENDROOT
BRANCH   7  12
ATOM     12  O   UNL     1      41.383   1.551  15.939  0.00  0.00    +0.000 OA
ATOM     13  H   UNL     1      41.930   2.218  15.484  0.00  0.00    +0.000 HD
ENDBRANCH   7  12
BRANCH   8  14
ATOM     14  O   UNL     1      43.042  -0.159  17.234  0.00  0.00    +0.000 OA
ATOM     15  H   UNL     1      42.417   0.496  17.605  0.00  0.00    +0.000 HD
ENDBRANCH   8  14
TORSDOF 2
ENDMDL
MODEL 6
REMARK VINA RESULT:      -5.1      2.432      4.095
REMARK  Name = 5281416_Esculetin.pdbqt.pdb
REMARK  2 active torsions:
REMARK  status: ('A' for Active; 'I' for Inactive)
REMARK    1  A    between atoms: C_7  and  O_12
REMARK    2  A    between atoms: C_8  and  O_14
REMARK                            x       y       z     vdW  Elec       q    Type
REMARK                         _______ _______ _______ _____ _____    ______ ____
ROOT
ATOM      1  O   UNL     1      41.210  -0.031  12.659  0.00  0.00    +0.000 OA
ATOM      2  O   UNL     1      42.184  -0.655  10.617  0.00  0.00    +0.000 OA
ATOM      3  C   UNL     1      40.301  -1.883  14.060  0.00  0.00    +0.000 A 
ATOM      4  C   UNL     1      40.550  -0.497  13.859  0.00  0.00    +0.000 A 
ATOM      5  C   UNL     1      39.670  -2.336  15.207  0.00  0.00    +0.000 A 
ATOM      6  C   UNL     1      40.171   0.450  14.800  0.00  0.00    +0.000 A 
ATOM      7  C   UNL     1      39.291  -1.383  16.149  0.00  0.00    +0.000 A 
ATOM      8  C   UNL     1      39.538  -0.016  15.947  0.00  0.00    +0.000 A 
ATOM      9  C   UNL     1      40.752  -2.710  13.002  0.00  0.00    +0.000 A 
ATOM     10  C   UNL     1      41.296  -2.306  12.020  0.00  0.00    +0.000 A 
ATOM     11  C   UNL     1      41.622  -0.954  11.658  0.00  0.00    +0.000 A 
ENDROOT
BRANCH   7  12
ATOM     12  O   UNL     1      38.661  -1.751  17.309  0.00  0.00    +0.000 OA
ATOM     13  H   UNL     1      37.712  -1.856  17.114  0.00  0.00    +0.000 HD
ENDBRANCH   7  12
BRANCH   8  14
ATOM     14  O   UNL     1      39.148   0.886  16.899  0.00  0.00    +0.000 OA
ATOM     15  H   UNL     1      38.420   0.449  17.385  0.00  0.00    +0.000 HD
ENDBRANCH   8  14
TORSDOF 2
ENDMDL
MODEL 7
REMARK VINA RESULT:      -5.0      1.822      2.570
REMARK  Name = 5281416_Esculetin.pdbqt.pdb
REMARK  2 active torsions:
REMARK  status: ('A' for Active; 'I' for Inactive)
REMARK    1  A    between atoms: C_7  and  O_12
REMARK    2  A    between atoms: C_8  and  O_14
REMARK                            x       y       z     vdW  Elec       q    Type
REMARK                         _______ _______ _______ _____ _____    ______ ____
ROOT
ATOM      1  O   UNL     1      42.522  -1.161  13.879  0.00  0.00    +0.000 OA
ATOM      2  O   UNL     1      40.954   0.395  13.087  0.00  0.00    +0.000 OA
ATOM      3  C   UNL     1      42.326  -3.481  12.984  0.00  0.00    +0.000 A 
ATOM      4  C   UNL     1      42.979  -2.533  13.820  0.00  0.00    +0.000 A 
ATOM      5  C   UNL     1      42.758  -4.795  12.922  0.00  0.00    +0.000 A 
ATOM      6  C   UNL     1      44.069  -2.887  14.601  0.00  0.00    +0.000 A 
ATOM      7  C   UNL     1      43.852  -5.148  13.708  0.00  0.00    +0.000 A 
ATOM      8  C   UNL     1      44.495  -4.210  14.531  0.00  0.00    +0.000 A 
ATOM      9  C   UNL     1      41.232  -2.951  12.256  0.00  0.00    +0.000 A 
ATOM     10  C   UNL     1      40.871  -1.815  12.319  0.00  0.00    +0.000 A 
ATOM     11  C   UNL     1      41.409  -0.737  13.102  0.00  0.00    +0.000 A 
ENDROOT
BRANCH   7  12
ATOM     12  O   UNL     1      44.340  -6.428  13.702  0.00  0.00    +0.000 OA
ATOM     13  H   UNL     1      45.151  -6.441  14.244  0.00  0.00    +0.000 HD
ENDBRANCH   7  12
BRANCH   8  14
ATOM     14  O   UNL     1      45.566  -4.600  15.286  0.00  0.00    +0.000 OA
ATOM     15  H   UNL     1      45.860  -5.448  14.898  0.00  0.00    +0.000 HD
ENDBRANCH   8  14
TORSDOF 2
ENDMDL
MODEL 8
REMARK VINA RESULT:      -5.0      1.933      5.052
REMARK  Name = 5281416_Esculetin.pdbqt.pdb
REMARK  2 active torsions:
REMARK  status: ('A' for Active; 'I' for Inactive)
REMARK    1  A    between atoms: C_7  and  O_12
REMARK    2  A    between atoms: C_8  and  O_14
REMARK                            x       y       z     vdW  Elec       q    Type
REMARK                         _______ _______ _______ _____ _____    ______ ____
ROOT
ATOM      1  O   UNL     1      40.775  -1.690  13.223  0.00  0.00    +0.000 OA
ATOM      2  O   UNL     1      41.418  -3.913  12.831  0.00  0.00    +0.000 OA
ATOM      3  C   UNL     1      40.099  -1.131  15.558  0.00  0.00    +0.000 A 
ATOM      4  C   UNL     1      40.311  -0.737  14.208  0.00  0.00    +0.000 A 
ATOM      5  C   UNL     1      39.656  -0.223  16.506  0.00  0.00    +0.000 A 
ATOM      6  C   UNL     1      40.083   0.567  13.791  0.00  0.00    +0.000 A 
ATOM      7  C   UNL     1      39.428   1.084  16.083  0.00  0.00    +0.000 A 
ATOM      8  C   UNL     1      39.638   1.470  14.751  0.00  0.00    +0.000 A 
ATOM      9  C   UNL     1      40.380  -2.496  15.812  0.00  0.00    +0.000 A 
ATOM     10  C   UNL     1      40.762  -3.267  14.984  0.00  0.00    +0.000 A 
ATOM     11  C   UNL     1      41.026  -3.041  13.590  0.00  0.00    +0.000 A 
ENDROOT
BRANCH   7  12
ATOM     12  O   UNL     1      38.988   2.041  16.960  0.00  0.00    +0.000 OA
ATOM     13  H   UNL     1      38.394   1.608  17.601  0.00  0.00    +0.000 HD
ENDBRANCH   7  12
BRANCH   8  14
ATOM     14  O   UNL     1      39.401   2.765  14.380  0.00  0.00    +0.000 OA
ATOM     15  H   UNL     1      40.131   3.284  14.774  0.00  0.00    +0.000 HD
ENDBRANCH   8  14
TORSDOF 2
ENDMDL
MODEL 9
REMARK VINA RESULT:      -4.8     10.018     11.758
REMARK  Name = 5281416_Esculetin.pdbqt.pdb
REMARK  2 active torsions:
REMARK  status: ('A' for Active; 'I' for Inactive)
REMARK    1  A    between atoms: C_7  and  O_12
REMARK    2  A    between atoms: C_8  and  O_14
REMARK                            x       y       z     vdW  Elec       q    Type
REMARK                         _______ _______ _______ _____ _____    ______ ____
ROOT
ATOM      1  O   UNL     1      50.719  -1.770   6.630  0.00  0.00    +0.000 OA
ATOM      2  O   UNL     1      51.636  -2.620   4.645  0.00  0.00    +0.000 OA
ATOM      3  C   UNL     1      49.822   0.554   6.526  0.00  0.00    +0.000 A 
ATOM      4  C   UNL     1      50.082  -0.635   7.262  0.00  0.00    +0.000 A 
ATOM      5  C   UNL     1      49.212   1.645   7.124  0.00  0.00    +0.000 A 
ATOM      6  C   UNL     1      49.736  -0.748   8.601  0.00  0.00    +0.000 A 
ATOM      7  C   UNL     1      48.867   1.528   8.468  0.00  0.00    +0.000 A 
ATOM      8  C   UNL     1      49.125   0.353   9.191  0.00  0.00    +0.000 A 
ATOM      9  C   UNL     1      50.238   0.499   5.173  0.00  0.00    +0.000 A 
ATOM     10  C   UNL     1      50.762  -0.448   4.671  0.00  0.00    +0.000 A 
ATOM     11  C   UNL     1      51.096  -1.716   5.260  0.00  0.00    +0.000 A 
ENDROOT
BRANCH   7  12
ATOM     12  O   UNL     1      48.260   2.563   9.132  0.00  0.00    +0.000 OA
ATOM     13  H   UNL     1      47.646   2.996   8.511  0.00  0.00    +0.000 HD
ENDBRANCH   7  12
BRANCH   8  14
ATOM     14  O   UNL     1      48.769   0.282  10.510  0.00  0.00    +0.000 OA
ATOM     15  H   UNL     1      48.880  -0.658  10.757  0.00  0.00    +0.000 HD
ENDBRANCH   8  14
TORSDOF 2
ENDMDL
