MODEL 1
REMARK VINA RESULT:      -6.1      0.000      0.000
REMARK  Name = 5289155_Peridinin.pdbqt.pdb
REMARK  13 active torsions:
REMARK  status: ('A' for Active; 'I' for Inactive)
REMARK    1  A    between atoms: C_1  and  C_3
REMARK    2  A    between atoms: C_3  and  C_25
REMARK    3  A    between atoms: C_6  and  C_12
REMARK    4  A    between atoms: C_11  and  C_14
REMARK    5  A    between atoms: C_19  and  O_23
REMARK    6  A    between atoms: C_26  and  C_28
REMARK    7  A    between atoms: C_27  and  C_31
REMARK    8  A    between atoms: C_29  and  C_31
REMARK    9  A    between atoms: C_29  and  C_42
REMARK   10  A    between atoms: C_33  and  O_43
REMARK   11  A    between atoms: C_35  and  O_45
REMARK   12  A    between atoms: C_37  and  C_41
REMARK   13  A    between atoms: O_45  and  C_47
REMARK                            x       y       z     vdW  Elec       q    Type
REMARK                         _______ _______ _______ _____ _____    ______ ____
ROOT
ATOM      1  C   UNL     1      52.019  -4.752   6.042  0.00  0.00    +0.000 C 
ENDROOT
BRANCH   1   2
ATOM      2  C   UNL     1      52.226  -4.087   7.135  0.00  0.00    +0.000 C 
ATOM      3  C   UNL     1      52.867  -4.753   8.313  0.00  0.00    +0.000 C 
ATOM      4  O   UNL     1      50.530  -0.973   6.489  0.00  0.00    +0.000 OA
ATOM      5  O   UNL     1      49.362   1.017   6.713  0.00  0.00    +0.000 OA
ATOM      6  C   UNL     1      51.081   0.392   8.290  0.00  0.00    +0.000 C 
ATOM      7  C   UNL     1      51.846  -0.636   8.357  0.00  0.00    +0.000 C 
ATOM      8  C   UNL     1      50.214   0.237   7.099  0.00  0.00    +0.000 C 
ATOM      9  C   UNL     1      51.567  -1.466   7.274  0.00  0.00    +0.000 C 
ATOM     10  C   UNL     1      51.880  -2.719   7.206  0.00  0.00    +0.000 C 
BRANCH   6  12
ATOM     11  C   UNL     1      51.091   2.354  10.009  0.00  0.00    +0.000 C 
ATOM     12  C   UNL     1      51.090   1.448   9.221  0.00  0.00    +0.000 C 
BRANCH  11  14
ATOM     13  O   UNL     1      50.942   2.949  12.313  0.00  0.00    +0.000 OA
ATOM     14  C   UNL     1      51.089   3.458  10.956  0.00  0.00    +0.000 C 
ATOM     15  C   UNL     1      52.203   3.545  12.020  0.00  0.00    +0.000 C 
ATOM     16  C   UNL     1      50.297   4.768  10.611  0.00  0.00    +0.000 C 
ATOM     17  C   UNL     1      52.376   4.797  12.685  0.00  0.00    +0.000 C 
ATOM     18  C   UNL     1      50.721   5.791  11.571  0.00  0.00    +0.000 C 
ATOM     19  C   UNL     1      51.678   6.012  12.579  0.00  0.00    +0.000 C 
ATOM     20  C   UNL     1      53.377   2.564  12.095  0.00  0.00    +0.000 C 
ATOM     21  C   UNL     1      50.730   5.153   9.172  0.00  0.00    +0.000 C 
ATOM     22  C   UNL     1      48.797   4.414  10.709  0.00  0.00    +0.000 C 
BRANCH  19  23
ATOM     23  O   UNL     1      52.283   7.223  12.732  0.00  0.00    +0.000 OA
ATOM     24  H   UNL     1      52.565   7.607  11.882  0.00  0.00    +0.000 HD
ENDBRANCH  19  23
ENDBRANCH  11  14
ENDBRANCH   6  12
ENDBRANCH   1   2
BRANCH   1  25
ATOM     25  C   UNL     1      51.775  -5.539   4.749  0.00  0.00    +0.000 C 
ATOM     26  C   UNL     1      51.582  -6.158   3.740  0.00  0.00    +0.000 C 
BRANCH  26  28
ATOM     27  C   UNL     1      51.129  -7.576   1.450  0.00  0.00    +0.000 C 
ATOM     28  C   UNL     1      51.331  -6.955   2.456  0.00  0.00    +0.000 C 
BRANCH  27  29
ATOM     29  C   UNL     1      50.864  -8.370   0.165  0.00  0.00    +0.000 C 
BRANCH  29  30
ATOM     30  C   UNL     1      50.644  -9.050  -0.916  0.00  0.00    +0.000 C 
ATOM     31  C   UNL     1      51.788  -9.489  -1.780  0.00  0.00    +0.000 C 
BRANCH  30  33
ATOM     32  C   UNL     1      48.185  -9.574  -1.652  0.00  0.00    +0.000 C 
ATOM     33  C   UNL     1      49.313  -9.335  -1.313  0.00  0.00    +0.000 C 
BRANCH  32  39
ATOM     34  C   UNL     1      45.731  -9.122  -1.413  0.00  0.00    +0.000 C 
ATOM     35  C   UNL     1      46.654 -10.908  -3.064  0.00  0.00    +0.000 C 
ATOM     36  C   UNL     1      44.517  -9.361  -2.207  0.00  0.00    +0.000 C 
ATOM     37  C   UNL     1      44.101 -10.123  -3.317  0.00  0.00    +0.000 C 
ATOM     38  C   UNL     1      45.300 -10.810  -3.597  0.00  0.00    +0.000 C 
ATOM     39  C   UNL     1      46.949  -9.834  -2.028  0.00  0.00    +0.000 C 
ATOM     40  C   UNL     1      45.995  -7.585  -1.389  0.00  0.00    +0.000 C 
ATOM     41  C   UNL     1      45.528  -9.647   0.034  0.00  0.00    +0.000 C 
ATOM     42  C   UNL     1      46.931 -12.304  -2.499  0.00  0.00    +0.000 C 
BRANCH  35  43
ATOM     43  O   UNL     1      47.550 -10.767  -4.144  0.00  0.00    +0.000 OA
ATOM     44  H   UNL     1      47.070 -10.135  -4.711  0.00  0.00    +0.000 HD
ENDBRANCH  35  43
BRANCH  37  45
ATOM     45  O   UNL     1      42.896 -10.810  -3.251  0.00  0.00    +0.000 OA
BRANCH  45  47
ATOM     46  O   UNL     1      43.343 -12.310  -1.504  0.00  0.00    +0.000 OA
ATOM     47  C   UNL     1      42.757 -11.382  -2.030  0.00  0.00    +0.000 C 
ATOM     48  C   UNL     1      41.690 -10.773  -1.190  0.00  0.00    +0.000 C 
ENDBRANCH  45  47
ENDBRANCH  37  45
ENDBRANCH  32  39
ENDBRANCH  30  33
ENDBRANCH  29  30
ENDBRANCH  27  29
ENDBRANCH  26  28
ENDBRANCH   1  25
TORSDOF 13
ENDMDL
MODEL 2
REMARK VINA RESULT:      -6.1     18.800     23.423
REMARK  Name = 5289155_Peridinin.pdbqt.pdb
REMARK  13 active torsions:
REMARK  status: ('A' for Active; 'I' for Inactive)
REMARK    1  A    between atoms: C_1  and  C_3
REMARK    2  A    between atoms: C_3  and  C_25
REMARK    3  A    between atoms: C_6  and  C_12
REMARK    4  A    between atoms: C_11  and  C_14
REMARK    5  A    between atoms: C_19  and  O_23
REMARK    6  A    between atoms: C_26  and  C_28
REMARK    7  A    between atoms: C_27  and  C_31
REMARK    8  A    between atoms: C_29  and  C_31
REMARK    9  A    between atoms: C_29  and  C_42
REMARK   10  A    between atoms: C_33  and  O_43
REMARK   11  A    between atoms: C_35  and  O_45
REMARK   12  A    between atoms: C_37  and  C_41
REMARK   13  A    between atoms: O_45  and  C_47
REMARK                            x       y       z     vdW  Elec       q    Type
REMARK                         _______ _______ _______ _____ _____    ______ ____
ROOT
ATOM      1  C   UNL     1      34.392   1.890  -6.416  0.00  0.00    +0.000 C 
ENDROOT
BRANCH   1   2
ATOM      2  C   UNL     1      33.708   0.811  -6.201  0.00  0.00    +0.000 C 
ATOM      3  C   UNL     1      33.664  -0.271  -7.235  0.00  0.00    +0.000 C 
ATOM      4  O   UNL     1      31.970   1.580  -3.139  0.00  0.00    +0.000 OA
ATOM      5  O   UNL     1      30.414   1.677  -1.423  0.00  0.00    +0.000 OA
ATOM      6  C   UNL     1      30.928  -0.408  -2.528  0.00  0.00    +0.000 C 
ATOM      7  C   UNL     1      31.743  -0.694  -3.477  0.00  0.00    +0.000 C 
ATOM      8  C   UNL     1      31.035   1.045  -2.258  0.00  0.00    +0.000 C 
ATOM      9  C   UNL     1      32.412   0.469  -3.851  0.00  0.00    +0.000 C 
ATOM     10  C   UNL     1      33.031   0.634  -4.973  0.00  0.00    +0.000 C 
BRANCH   6  12
ATOM     11  C   UNL     1      29.360  -2.141  -1.368  0.00  0.00    +0.000 C 
ATOM     12  C   UNL     1      30.086  -1.344  -1.899  0.00  0.00    +0.000 C 
BRANCH  11  14
ATOM     13  O   UNL     1      27.470  -2.398   0.062  0.00  0.00    +0.000 OA
ATOM     14  C   UNL     1      28.472  -3.099  -0.729  0.00  0.00    +0.000 C 
ATOM     15  C   UNL     1      26.969  -3.088  -1.080  0.00  0.00    +0.000 C 
ATOM     16  C   UNL     1      29.071  -4.405  -0.100  0.00  0.00    +0.000 C 
ATOM     17  C   UNL     1      26.206  -4.241  -0.722  0.00  0.00    +0.000 C 
ATOM     18  C   UNL     1      27.947  -5.303   0.179  0.00  0.00    +0.000 C 
ATOM     19  C   UNL     1      26.564  -5.425  -0.054  0.00  0.00    +0.000 C 
ATOM     20  C   UNL     1      26.354  -2.163  -2.135  0.00  0.00    +0.000 C 
ATOM     21  C   UNL     1      29.996  -5.009  -1.190  0.00  0.00    +0.000 C 
ATOM     22  C   UNL     1      29.843  -3.971   1.165  0.00  0.00    +0.000 C 
BRANCH  19  23
ATOM     23  O   UNL     1      25.994  -6.630  -0.337  0.00  0.00    +0.000 OA
ATOM     24  H   UNL     1      26.503  -7.376   0.028  0.00  0.00    +0.000 HD
ENDBRANCH  19  23
ENDBRANCH  11  14
ENDBRANCH   6  12
ENDBRANCH   1   2
BRANCH   1  25
ATOM     25  C   UNL     1      35.201   3.167  -6.671  0.00  0.00    +0.000 C 
ATOM     26  C   UNL     1      35.833   4.167  -6.875  0.00  0.00    +0.000 C 
BRANCH  26  28
ATOM     27  C   UNL     1      37.262   6.443  -7.359  0.00  0.00    +0.000 C 
ATOM     28  C   UNL     1      36.635   5.444  -7.143  0.00  0.00    +0.000 C 
BRANCH  27  29
ATOM     29  C   UNL     1      38.066   7.719  -7.642  0.00  0.00    +0.000 C 
BRANCH  29  30
ATOM     30  C   UNL     1      38.754   8.790  -7.880  0.00  0.00    +0.000 C 
ATOM     31  C   UNL     1      38.098  10.137  -7.834  0.00  0.00    +0.000 C 
BRANCH  30  33
ATOM     32  C   UNL     1      41.281   8.599  -8.544  0.00  0.00    +0.000 C 
ATOM     33  C   UNL     1      40.121   8.686  -8.241  0.00  0.00    +0.000 C 
BRANCH  32  39
ATOM     34  C   UNL     1      43.422   9.730  -9.193  0.00  0.00    +0.000 C 
ATOM     35  C   UNL     1      43.225   7.142  -9.010  0.00  0.00    +0.000 C 
ATOM     36  C   UNL     1      44.849   9.380  -9.223  0.00  0.00    +0.000 C 
ATOM     37  C   UNL     1      45.671   8.238  -9.139  0.00  0.00    +0.000 C 
ATOM     38  C   UNL     1      44.680   7.240  -9.030  0.00  0.00    +0.000 C 
ATOM     39  C   UNL     1      42.554   8.500  -8.872  0.00  0.00    +0.000 C 
ATOM     40  C   UNL     1      43.214  10.806  -8.083  0.00  0.00    +0.000 C 
ATOM     41  C   UNL     1      42.988  10.298 -10.570  0.00  0.00    +0.000 C 
ATOM     42  C   UNL     1      42.699   6.393 -10.238  0.00  0.00    +0.000 C 
BRANCH  35  43
ATOM     43  O   UNL     1      42.867   6.335  -7.909  0.00  0.00    +0.000 OA
ATOM     44  H   UNL     1      42.137   6.853  -7.520  0.00  0.00    +0.000 HD
ENDBRANCH  35  43
BRANCH  37  45
ATOM     45  O   UNL     1      46.719   8.092 -10.039  0.00  0.00    +0.000 OA
BRANCH  45  47
ATOM     46  O   UNL     1      48.356   9.319  -8.892  0.00  0.00    +0.000 OA
ATOM     47  C   UNL     1      47.900   8.318  -9.413  0.00  0.00    +0.000 C 
ATOM     48  C   UNL     1      48.801   7.135  -9.367  0.00  0.00    +0.000 C 
ENDBRANCH  45  47
ENDBRANCH  37  45
ENDBRANCH  32  39
ENDBRANCH  30  33
ENDBRANCH  29  30
ENDBRANCH  27  29
ENDBRANCH  26  28
ENDBRANCH   1  25
TORSDOF 13
ENDMDL
MODEL 3
REMARK VINA RESULT:      -5.9     27.052     33.068
REMARK  Name = 5289155_Peridinin.pdbqt.pdb
REMARK  13 active torsions:
REMARK  status: ('A' for Active; 'I' for Inactive)
REMARK    1  A    between atoms: C_1  and  C_3
REMARK    2  A    between atoms: C_3  and  C_25
REMARK    3  A    between atoms: C_6  and  C_12
REMARK    4  A    between atoms: C_11  and  C_14
REMARK    5  A    between atoms: C_19  and  O_23
REMARK    6  A    between atoms: C_26  and  C_28
REMARK    7  A    between atoms: C_27  and  C_31
REMARK    8  A    between atoms: C_29  and  C_31
REMARK    9  A    between atoms: C_29  and  C_42
REMARK   10  A    between atoms: C_33  and  O_43
REMARK   11  A    between atoms: C_35  and  O_45
REMARK   12  A    between atoms: C_37  and  C_41
REMARK   13  A    between atoms: O_45  and  C_47
REMARK                            x       y       z     vdW  Elec       q    Type
REMARK                         _______ _______ _______ _____ _____    ______ ____
ROOT
ATOM      1  C   UNL     1      35.197  17.521  20.080  0.00  0.00    +0.000 C 
ENDROOT
BRANCH   1   2
ATOM      2  C   UNL     1      34.442  16.470  20.006  0.00  0.00    +0.000 C 
ATOM      3  C   UNL     1      33.199  16.493  19.172  0.00  0.00    +0.000 C 
ATOM      4  O   UNL     1      35.914  14.274  22.456  0.00  0.00    +0.000 OA
ATOM      5  O   UNL     1      36.253  12.654  24.079  0.00  0.00    +0.000 OA
ATOM      6  C   UNL     1      34.791  12.253  22.198  0.00  0.00    +0.000 C 
ATOM      7  C   UNL     1      34.468  12.988  21.197  0.00  0.00    +0.000 C 
ATOM      8  C   UNL     1      35.732  13.026  23.044  0.00  0.00    +0.000 C 
ATOM      9  C   UNL     1      35.146  14.199  21.298  0.00  0.00    +0.000 C 
ATOM     10  C   UNL     1      34.811  15.285  20.683  0.00  0.00    +0.000 C 
BRANCH   6  12
ATOM     11  C   UNL     1      33.887   9.842  22.612  0.00  0.00    +0.000 C 
ATOM     12  C   UNL     1      34.298  10.954  22.420  0.00  0.00    +0.000 C 
BRANCH  11  14
ATOM     13  O   UNL     1      33.626   7.674  21.656  0.00  0.00    +0.000 OA
ATOM     14  C   UNL     1      33.399   8.491  22.840  0.00  0.00    +0.000 C 
ATOM     15  C   UNL     1      34.393   7.311  22.801  0.00  0.00    +0.000 C 
ATOM     16  C   UNL     1      32.034   8.280  23.584  0.00  0.00    +0.000 C 
ATOM     17  C   UNL     1      33.961   6.074  23.370  0.00  0.00    +0.000 C 
ATOM     18  C   UNL     1      31.955   6.860  23.942  0.00  0.00    +0.000 C 
ATOM     19  C   UNL     1      32.742   5.693  23.957  0.00  0.00    +0.000 C 
ATOM     20  C   UNL     1      35.902   7.484  22.609  0.00  0.00    +0.000 C 
ATOM     21  C   UNL     1      32.111   9.162  24.858  0.00  0.00    +0.000 C 
ATOM     22  C   UNL     1      30.926   8.733  22.609  0.00  0.00    +0.000 C 
BRANCH  19  23
ATOM     23  O   UNL     1      32.667   4.798  24.981  0.00  0.00    +0.000 OA
ATOM     24  H   UNL     1      33.428   4.191  25.000  0.00  0.00    +0.000 HD
ENDBRANCH  19  23
ENDBRANCH  11  14
ENDBRANCH   6  12
ENDBRANCH   1   2
BRANCH   1  25
ATOM     25  C   UNL     1      36.090  18.763  20.167  0.00  0.00    +0.000 C 
ATOM     26  C   UNL     1      36.788  19.738  20.231  0.00  0.00    +0.000 C 
BRANCH  26  28
ATOM     27  C   UNL     1      38.369  21.961  20.358  0.00  0.00    +0.000 C 
ATOM     28  C   UNL     1      37.676  20.983  20.305  0.00  0.00    +0.000 C 
BRANCH  27  29
ATOM     29  C   UNL     1      39.253  23.213  20.420  0.00  0.00    +0.000 C 
BRANCH  29  30
ATOM     30  C   UNL     1      40.003  24.268  20.461  0.00  0.00    +0.000 C 
ATOM     31  C   UNL     1      40.098  25.081  21.717  0.00  0.00    +0.000 C 
BRANCH  30  33
ATOM     32  C   UNL     1      41.286  25.045  18.313  0.00  0.00    +0.000 C 
ATOM     33  C   UNL     1      40.696  24.690  19.298  0.00  0.00    +0.000 C 
BRANCH  32  39
ATOM     34  C   UNL     1      43.457  25.267  17.080  0.00  0.00    +0.000 C 
ATOM     35  C   UNL     1      41.208  26.116  16.085  0.00  0.00    +0.000 C 
ATOM     36  C   UNL     1      43.879  25.482  15.689  0.00  0.00    +0.000 C 
ATOM     37  C   UNL     1      43.328  25.886  14.455  0.00  0.00    +0.000 C 
ATOM     38  C   UNL     1      42.003  26.147  14.861  0.00  0.00    +0.000 C 
ATOM     39  C   UNL     1      41.934  25.430  17.231  0.00  0.00    +0.000 C 
ATOM     40  C   UNL     1      43.858  23.815  17.485  0.00  0.00    +0.000 C 
ATOM     41  C   UNL     1      44.160  26.290  18.010  0.00  0.00    +0.000 C 
ATOM     42  C   UNL     1      40.752  27.522  16.488  0.00  0.00    +0.000 C 
BRANCH  35  43
ATOM     43  O   UNL     1      40.018  25.414  15.803  0.00  0.00    +0.000 OA
ATOM     44  H   UNL     1      39.830  25.709  14.892  0.00  0.00    +0.000 HD
ENDBRANCH  35  43
BRANCH  37  45
ATOM     45  O   UNL     1      44.018  26.805  13.676  0.00  0.00    +0.000 OA
BRANCH  45  47
ATOM     46  O   UNL     1      45.922  25.789  12.759  0.00  0.00    +0.000 OA
ATOM     47  C   UNL     1      44.762  26.157  12.747  0.00  0.00    +0.000 C 
ATOM     48  C   UNL     1      44.033  25.852  11.486  0.00  0.00    +0.000 C 
ENDBRANCH  45  47
ENDBRANCH  37  45
ENDBRANCH  32  39
ENDBRANCH  30  33
ENDBRANCH  29  30
ENDBRANCH  27  29
ENDBRANCH  26  28
ENDBRANCH   1  25
TORSDOF 13
ENDMDL
MODEL 4
REMARK VINA RESULT:      -5.6     24.192     29.728
REMARK  Name = 5289155_Peridinin.pdbqt.pdb
REMARK  13 active torsions:
REMARK  status: ('A' for Active; 'I' for Inactive)
REMARK    1  A    between atoms: C_1  and  C_3
REMARK    2  A    between atoms: C_3  and  C_25
REMARK    3  A    between atoms: C_6  and  C_12
REMARK    4  A    between atoms: C_11  and  C_14
REMARK    5  A    between atoms: C_19  and  O_23
REMARK    6  A    between atoms: C_26  and  C_28
REMARK    7  A    between atoms: C_27  and  C_31
REMARK    8  A    between atoms: C_29  and  C_31
REMARK    9  A    between atoms: C_29  and  C_42
REMARK   10  A    between atoms: C_33  and  O_43
REMARK   11  A    between atoms: C_35  and  O_45
REMARK   12  A    between atoms: C_37  and  C_41
REMARK   13  A    between atoms: O_45  and  C_47
REMARK                            x       y       z     vdW  Elec       q    Type
REMARK                         _______ _______ _______ _____ _____    ______ ____
ROOT
ATOM      1  C   UNL     1      33.156  16.895  -0.076  0.00  0.00    +0.000 C 
ENDROOT
BRANCH   1   2
ATOM      2  C   UNL     1      32.213  16.088  -0.450  0.00  0.00    +0.000 C 
ATOM      3  C   UNL     1      31.621  16.206  -1.821  0.00  0.00    +0.000 C 
ATOM      4  O   UNL     1      31.444  14.316   2.593  0.00  0.00    +0.000 OA
ATOM      5  O   UNL     1      30.365  13.149   4.281  0.00  0.00    +0.000 OA
ATOM      6  C   UNL     1      29.950  12.652   1.953  0.00  0.00    +0.000 C 
ATOM      7  C   UNL     1      30.430  13.154   0.875  0.00  0.00    +0.000 C 
ATOM      8  C   UNL     1      30.574  13.355   3.099  0.00  0.00    +0.000 C 
ATOM      9  C   UNL     1      31.355  14.137   1.216  0.00  0.00    +0.000 C 
ATOM     10  C   UNL     1      31.765  15.070   0.422  0.00  0.00    +0.000 C 
BRANCH   6  12
ATOM     11  C   UNL     1      28.169  10.747   2.031  0.00  0.00    +0.000 C 
ATOM     12  C   UNL     1      28.988  11.626   1.991  0.00  0.00    +0.000 C 
BRANCH  11  14
ATOM     13  O   UNL     1      26.732   9.348   0.744  0.00  0.00    +0.000 OA
ATOM     14  C   UNL     1      27.185   9.678   2.088  0.00  0.00    +0.000 C 
ATOM     15  C   UNL     1      27.489   8.332   1.397  0.00  0.00    +0.000 C 
ATOM     16  C   UNL     1      26.089   9.698   3.210  0.00  0.00    +0.000 C 
ATOM     17  C   UNL     1      26.685   7.211   1.766  0.00  0.00    +0.000 C 
ATOM     18  C   UNL     1      25.454   8.377   3.214  0.00  0.00    +0.000 C 
ATOM     19  C   UNL     1      25.599   7.095   2.651  0.00  0.00    +0.000 C 
ATOM     20  C   UNL     1      28.820   8.019   0.707  0.00  0.00    +0.000 C 
ATOM     21  C   UNL     1      26.853   9.943   4.538  0.00  0.00    +0.000 C 
ATOM     22  C   UNL     1      25.119  10.847   2.858  0.00  0.00    +0.000 C 
BRANCH  19  23
ATOM     23  O   UNL     1      25.361   5.968   3.379  0.00  0.00    +0.000 OA
ATOM     24  H   UNL     1      24.722   6.118   4.098  0.00  0.00    +0.000 HD
ENDBRANCH  19  23
ENDBRANCH  11  14
ENDBRANCH   6  12
ENDBRANCH   1   2
BRANCH   1  25
ATOM     25  C   UNL     1      34.271  17.849   0.367  0.00  0.00    +0.000 C 
ATOM     26  C   UNL     1      35.144  18.598   0.709  0.00  0.00    +0.000 C 
BRANCH  26  28
ATOM     27  C   UNL     1      37.136  20.301   1.477  0.00  0.00    +0.000 C 
ATOM     28  C   UNL     1      36.261  19.555   1.137  0.00  0.00    +0.000 C 
BRANCH  27  29
ATOM     29  C   UNL     1      38.254  21.254   1.920  0.00  0.00    +0.000 C 
BRANCH  29  30
ATOM     30  C   UNL     1      39.200  22.051   2.301  0.00  0.00    +0.000 C 
ATOM     31  C   UNL     1      38.985  22.985   3.454  0.00  0.00    +0.000 C 
BRANCH  30  33
ATOM     32  C   UNL     1      41.471  22.108   0.994  0.00  0.00    +0.000 C 
ATOM     33  C   UNL     1      40.428  22.082   1.592  0.00  0.00    +0.000 C 
BRANCH  32  39
ATOM     34  C   UNL     1      43.960  21.817   1.020  0.00  0.00    +0.000 C 
ATOM     35  C   UNL     1      42.673  22.529  -1.126  0.00  0.00    +0.000 C 
ATOM     36  C   UNL     1      45.023  21.610   0.026  0.00  0.00    +0.000 C 
ATOM     37  C   UNL     1      45.213  21.701  -1.368  0.00  0.00    +0.000 C 
ATOM     38  C   UNL     1      43.938  22.163  -1.753  0.00  0.00    +0.000 C 
ATOM     39  C   UNL     1      42.615  22.131   0.340  0.00  0.00    +0.000 C 
ATOM     40  C   UNL     1      43.819  20.507   1.853  0.00  0.00    +0.000 C 
ATOM     41  C   UNL     1      44.332  23.001   1.953  0.00  0.00    +0.000 C 
ATOM     42  C   UNL     1      42.376  24.022  -1.300  0.00  0.00    +0.000 C 
BRANCH  35  43
ATOM     43  O   UNL     1      41.642  21.869  -1.826  0.00  0.00    +0.000 OA
ATOM     44  H   UNL     1      41.030  22.606  -2.009  0.00  0.00    +0.000 HD
ENDBRANCH  35  43
BRANCH  37  45
ATOM     45  O   UNL     1      46.360  22.317  -1.854  0.00  0.00    +0.000 OA
BRANCH  45  47
ATOM     46  O   UNL     1      47.787  20.607  -1.119  0.00  0.00    +0.000 OA
ATOM     47  C   UNL     1      47.372  21.417  -1.926  0.00  0.00    +0.000 C 
ATOM     48  C   UNL     1      48.111  21.434  -3.217  0.00  0.00    +0.000 C 
ENDBRANCH  45  47
ENDBRANCH  37  45
ENDBRANCH  32  39
ENDBRANCH  30  33
ENDBRANCH  29  30
ENDBRANCH  27  29
ENDBRANCH  26  28
ENDBRANCH   1  25
TORSDOF 13
ENDMDL
MODEL 5
REMARK VINA RESULT:      -5.5     15.639     26.885
REMARK  Name = 5289155_Peridinin.pdbqt.pdb
REMARK  13 active torsions:
REMARK  status: ('A' for Active; 'I' for Inactive)
REMARK    1  A    between atoms: C_1  and  C_3
REMARK    2  A    between atoms: C_3  and  C_25
REMARK    3  A    between atoms: C_6  and  C_12
REMARK    4  A    between atoms: C_11  and  C_14
REMARK    5  A    between atoms: C_19  and  O_23
REMARK    6  A    between atoms: C_26  and  C_28
REMARK    7  A    between atoms: C_27  and  C_31
REMARK    8  A    between atoms: C_29  and  C_31
REMARK    9  A    between atoms: C_29  and  C_42
REMARK   10  A    between atoms: C_33  and  O_43
REMARK   11  A    between atoms: C_35  and  O_45
REMARK   12  A    between atoms: C_37  and  C_41
REMARK   13  A    between atoms: O_45  and  C_47
REMARK                            x       y       z     vdW  Elec       q    Type
REMARK                         _______ _______ _______ _____ _____    ______ ____
ROOT
ATOM      1  C   UNL     1      45.987  -0.383  23.583  0.00  0.00    +0.000 C 
ENDROOT
BRANCH   1   2
ATOM      2  C   UNL     1      46.197  -1.156  22.564  0.00  0.00    +0.000 C 
ATOM      3  C   UNL     1      47.370  -2.087  22.553  0.00  0.00    +0.000 C 
ATOM      4  O   UNL     1      43.751   0.004  20.184  0.00  0.00    +0.000 OA
ATOM      5  O   UNL     1      42.624   0.552  18.234  0.00  0.00    +0.000 OA
ATOM      6  C   UNL     1      43.868  -1.510  18.422  0.00  0.00    +0.000 C 
ATOM      7  C   UNL     1      44.547  -2.012  19.388  0.00  0.00    +0.000 C 
ATOM      8  C   UNL     1      43.320  -0.211  18.879  0.00  0.00    +0.000 C 
ATOM      9  C   UNL     1      44.476  -1.148  20.476  0.00  0.00    +0.000 C 
ATOM     10  C   UNL     1      45.298  -1.149  21.474  0.00  0.00    +0.000 C 
BRANCH   6  12
ATOM     11  C   UNL     1      43.579  -2.626  16.081  0.00  0.00    +0.000 C 
ATOM     12  C   UNL     1      43.715  -2.116  17.161  0.00  0.00    +0.000 C 
BRANCH  11  14
ATOM     13  O   UNL     1      44.681  -3.271  14.069  0.00  0.00    +0.000 OA
ATOM     14  C   UNL     1      43.406  -3.236  14.773  0.00  0.00    +0.000 C 
ATOM     15  C   UNL     1      44.157  -4.543  14.442  0.00  0.00    +0.000 C 
ATOM     16  C   UNL     1      42.143  -2.875  13.915  0.00  0.00    +0.000 C 
ATOM     17  C   UNL     1      43.700  -5.292  13.315  0.00  0.00    +0.000 C 
ATOM     18  C   UNL     1      42.075  -3.848  12.821  0.00  0.00    +0.000 C 
ATOM     19  C   UNL     1      42.676  -5.044  12.385  0.00  0.00    +0.000 C 
ATOM     20  C   UNL     1      45.030  -5.294  15.452  0.00  0.00    +0.000 C 
ATOM     21  C   UNL     1      40.929  -3.037  14.868  0.00  0.00    +0.000 C 
ATOM     22  C   UNL     1      42.337  -1.420  13.436  0.00  0.00    +0.000 C 
BRANCH  19  23
ATOM     23  O   UNL     1      41.943  -6.042  11.816  0.00  0.00    +0.000 OA
ATOM     24  H   UNL     1      42.480  -6.615  11.241  0.00  0.00    +0.000 HD
ENDBRANCH  19  23
ENDBRANCH  11  14
ENDBRANCH   6  12
ENDBRANCH   1   2
BRANCH   1  25
ATOM     25  C   UNL     1      45.739   0.530  24.789  0.00  0.00    +0.000 C 
ATOM     26  C   UNL     1      45.540   1.247  25.730  0.00  0.00    +0.000 C 
BRANCH  26  28
ATOM     27  C   UNL     1      45.073   2.887  27.864  0.00  0.00    +0.000 C 
ATOM     28  C   UNL     1      45.280   2.165  26.929  0.00  0.00    +0.000 C 
BRANCH  27  29
ATOM     29  C   UNL     1      44.806   3.816  29.055  0.00  0.00    +0.000 C 
BRANCH  29  30
ATOM     30  C   UNL     1      44.576   4.592  30.067  0.00  0.00    +0.000 C 
ATOM     31  C   UNL     1      44.849   4.117  31.462  0.00  0.00    +0.000 C 
BRANCH  30  33
ATOM     32  C   UNL     1      43.534   6.964  29.680  0.00  0.00    +0.000 C 
ATOM     33  C   UNL     1      44.012   5.876  29.859  0.00  0.00    +0.000 C 
BRANCH  32  39
ATOM     34  C   UNL     1      42.072   8.457  28.295  0.00  0.00    +0.000 C 
ATOM     35  C   UNL     1      43.335   9.323  30.398  0.00  0.00    +0.000 C 
ATOM     36  C   UNL     1      41.383   9.743  28.473  0.00  0.00    +0.000 C 
ATOM     37  C   UNL     1      41.380  10.839  29.359  0.00  0.00    +0.000 C 
ATOM     38  C   UNL     1      42.406  10.436  30.239  0.00  0.00    +0.000 C 
ATOM     39  C   UNL     1      43.004   8.155  29.482  0.00  0.00    +0.000 C 
ATOM     40  C   UNL     1      40.988   7.340  28.199  0.00  0.00    +0.000 C 
ATOM     41  C   UNL     1      42.919   8.486  26.995  0.00  0.00    +0.000 C 
ATOM     42  C   UNL     1      44.786   9.775  30.204  0.00  0.00    +0.000 C 
BRANCH  35  43
ATOM     43  O   UNL     1      43.263   8.894  31.740  0.00  0.00    +0.000 OA
ATOM     44  H   UNL     1      43.377   9.737  32.218  0.00  0.00    +0.000 HD
ENDBRANCH  35  43
BRANCH  37  45
ATOM     45  O   UNL     1      41.366  12.127  28.840  0.00  0.00    +0.000 OA
BRANCH  45  47
ATOM     46  O   UNL     1      39.262  12.781  29.644  0.00  0.00    +0.000 OA
ATOM     47  C   UNL     1      40.467  12.886  29.513  0.00  0.00    +0.000 C 
ATOM     48  C   UNL     1      41.060  14.064  30.204  0.00  0.00    +0.000 C 
ENDBRANCH  45  47
ENDBRANCH  37  45
ENDBRANCH  32  39
ENDBRANCH  30  33
ENDBRANCH  29  30
ENDBRANCH  27  29
ENDBRANCH  26  28
ENDBRANCH   1  25
TORSDOF 13
ENDMDL
MODEL 6
REMARK VINA RESULT:      -5.5     28.960     33.459
REMARK  Name = 5289155_Peridinin.pdbqt.pdb
REMARK  13 active torsions:
REMARK  status: ('A' for Active; 'I' for Inactive)
REMARK    1  A    between atoms: C_1  and  C_3
REMARK    2  A    between atoms: C_3  and  C_25
REMARK    3  A    between atoms: C_6  and  C_12
REMARK    4  A    between atoms: C_11  and  C_14
REMARK    5  A    between atoms: C_19  and  O_23
REMARK    6  A    between atoms: C_26  and  C_28
REMARK    7  A    between atoms: C_27  and  C_31
REMARK    8  A    between atoms: C_29  and  C_31
REMARK    9  A    between atoms: C_29  and  C_42
REMARK   10  A    between atoms: C_33  and  O_43
REMARK   11  A    between atoms: C_35  and  O_45
REMARK   12  A    between atoms: C_37  and  C_41
REMARK   13  A    between atoms: O_45  and  C_47
REMARK                            x       y       z     vdW  Elec       q    Type
REMARK                         _______ _______ _______ _____ _____    ______ ____
ROOT
ATOM      1  C   UNL     1      32.960  22.572  12.353  0.00  0.00    +0.000 C 
ENDROOT
BRANCH   1   2
ATOM      2  C   UNL     1      31.763  22.098  12.207  0.00  0.00    +0.000 C 
ATOM      3  C   UNL     1      30.691  22.939  11.586  0.00  0.00    +0.000 C 
ATOM      4  O   UNL     1      31.938  18.965  13.980  0.00  0.00    +0.000 OA
ATOM      5  O   UNL     1      31.427  17.074  15.220  0.00  0.00    +0.000 OA
ATOM      6  C   UNL     1      29.911  17.914  13.538  0.00  0.00    +0.000 C 
ATOM      7  C   UNL     1      29.989  18.918  12.743  0.00  0.00    +0.000 C 
ATOM      8  C   UNL     1      31.145  17.886  14.357  0.00  0.00    +0.000 C 
ATOM      9  C   UNL     1      31.207  19.558  12.955  0.00  0.00    +0.000 C 
ATOM     10  C   UNL     1      31.474  20.772  12.600  0.00  0.00    +0.000 C 
BRANCH   6  12
ATOM     11  C   UNL     1      27.884  16.274  13.644  0.00  0.00    +0.000 C 
ATOM     12  C   UNL     1      28.815  17.034  13.597  0.00  0.00    +0.000 C 
BRANCH  11  14
ATOM     13  O   UNL     1      25.592  16.016  14.244  0.00  0.00    +0.000 OA
ATOM     14  C   UNL     1      26.764  15.348  13.694  0.00  0.00    +0.000 C 
ATOM     15  C   UNL     1      25.495  15.651  12.869  0.00  0.00    +0.000 C 
ATOM     16  C   UNL     1      27.007  13.869  14.156  0.00  0.00    +0.000 C 
ATOM     17  C   UNL     1      24.580  14.575  12.660  0.00  0.00    +0.000 C 
ATOM     18  C   UNL     1      25.801  13.109  13.815  0.00  0.00    +0.000 C 
ATOM     19  C   UNL     1      24.592  13.241  13.105  0.00  0.00    +0.000 C 
ATOM     20  C   UNL     1      25.368  16.848  11.923  0.00  0.00    +0.000 C 
ATOM     21  C   UNL     1      28.222  13.367  13.333  0.00  0.00    +0.000 C 
ATOM     22  C   UNL     1      27.294  13.922  15.673  0.00  0.00    +0.000 C 
BRANCH  19  23
ATOM     23  O   UNL     1      24.086  12.215  12.366  0.00  0.00    +0.000 OA
ATOM     24  H   UNL     1      23.785  11.472  12.919  0.00  0.00    +0.000 HD
ENDBRANCH  19  23
ENDBRANCH  11  14
ENDBRANCH   6  12
ENDBRANCH   1   2
BRANCH   1  25
ATOM     25  C   UNL     1      34.377  23.133  12.525  0.00  0.00    +0.000 C 
ATOM     26  C   UNL     1      35.483  23.576  12.663  0.00  0.00    +0.000 C 
BRANCH  26  28
ATOM     27  C   UNL     1      37.994  24.601  12.985  0.00  0.00    +0.000 C 
ATOM     28  C   UNL     1      36.893  24.148  12.844  0.00  0.00    +0.000 C 
BRANCH  27  29
ATOM     29  C   UNL     1      39.401  25.186  13.160  0.00  0.00    +0.000 C 
BRANCH  29  30
ATOM     30  C   UNL     1      40.586  25.690  13.305  0.00  0.00    +0.000 C 
ATOM     31  C   UNL     1      40.969  26.366  14.587  0.00  0.00    +0.000 C 
BRANCH  30  33
ATOM     32  C   UNL     1      42.291  25.616  11.317  0.00  0.00    +0.000 C 
ATOM     33  C   UNL     1      41.508  25.651  12.228  0.00  0.00    +0.000 C 
BRANCH  32  39
ATOM     34  C   UNL     1      43.584  26.832   9.547  0.00  0.00    +0.000 C 
ATOM     35  C   UNL     1      43.719  24.250   9.830  0.00  0.00    +0.000 C 
ATOM     36  C   UNL     1      44.758  26.562   8.705  0.00  0.00    +0.000 C 
ATOM     37  C   UNL     1      45.561  25.473   8.311  0.00  0.00    +0.000 C 
ATOM     38  C   UNL     1      44.889  24.428   8.977  0.00  0.00    +0.000 C 
ATOM     39  C   UNL     1      43.150  25.572  10.318  0.00  0.00    +0.000 C 
ATOM     40  C   UNL     1      43.970  27.947  10.567  0.00  0.00    +0.000 C 
ATOM     41  C   UNL     1      42.398  27.308   8.666  0.00  0.00    +0.000 C 
ATOM     42  C   UNL     1      42.642  23.413   9.133  0.00  0.00    +0.000 C 
BRANCH  35  43
ATOM     43  O   UNL     1      44.117  23.479  10.943  0.00  0.00    +0.000 OA
ATOM     44  H   UNL     1      45.053  23.737  11.032  0.00  0.00    +0.000 HD
ENDBRANCH  35  43
BRANCH  37  45
ATOM     45  O   UNL     1      45.913  25.343   6.973  0.00  0.00    +0.000 OA
BRANCH  45  47
ATOM     46  O   UNL     1      44.118  24.122   6.083  0.00  0.00    +0.000 OA
ATOM     47  C   UNL     1      44.805  25.116   6.225  0.00  0.00    +0.000 C 
ATOM     48  C   UNL     1      44.359  26.290   5.427  0.00  0.00    +0.000 C 
ENDBRANCH  45  47
ENDBRANCH  37  45
ENDBRANCH  32  39
ENDBRANCH  30  33
ENDBRANCH  29  30
ENDBRANCH  27  29
ENDBRANCH  26  28
ENDBRANCH   1  25
TORSDOF 13
ENDMDL
MODEL 7
REMARK VINA RESULT:      -5.3      6.988     18.300
REMARK  Name = 5289155_Peridinin.pdbqt.pdb
REMARK  13 active torsions:
REMARK  status: ('A' for Active; 'I' for Inactive)
REMARK    1  A    between atoms: C_1  and  C_3
REMARK    2  A    between atoms: C_3  and  C_25
REMARK    3  A    between atoms: C_6  and  C_12
REMARK    4  A    between atoms: C_11  and  C_14
REMARK    5  A    between atoms: C_19  and  O_23
REMARK    6  A    between atoms: C_26  and  C_28
REMARK    7  A    between atoms: C_27  and  C_31
REMARK    8  A    between atoms: C_29  and  C_31
REMARK    9  A    between atoms: C_29  and  C_42
REMARK   10  A    between atoms: C_33  and  O_43
REMARK   11  A    between atoms: C_35  and  O_45
REMARK   12  A    between atoms: C_37  and  C_41
REMARK   13  A    between atoms: O_45  and  C_47
REMARK                            x       y       z     vdW  Elec       q    Type
REMARK                         _______ _______ _______ _____ _____    ______ ____
ROOT
ATOM      1  C   UNL     1      50.069  -9.257   8.320  0.00  0.00    +0.000 C 
ENDROOT
BRANCH   1   2
ATOM      2  C   UNL     1      49.990 -10.516   8.616  0.00  0.00    +0.000 C 
ATOM      3  C   UNL     1      50.854 -11.092   9.695  0.00  0.00    +0.000 C 
ATOM      4  O   UNL     1      47.818 -11.792   6.038  0.00  0.00    +0.000 OA
ATOM      5  O   UNL     1      46.768 -13.146   4.477  0.00  0.00    +0.000 OA
ATOM      6  C   UNL     1      47.398 -13.997   6.649  0.00  0.00    +0.000 C 
ATOM      7  C   UNL     1      47.970 -13.437   7.651  0.00  0.00    +0.000 C 
ATOM      8  C   UNL     1      47.264 -12.982   5.577  0.00  0.00    +0.000 C 
ATOM      9  C   UNL     1      48.211 -12.103   7.336  0.00  0.00    +0.000 C 
ATOM     10  C   UNL     1      49.061 -11.343   7.945  0.00  0.00    +0.000 C 
BRANCH   6  12
ATOM     11  C   UNL     1      46.656 -16.497   6.586  0.00  0.00    +0.000 C 
ATOM     12  C   UNL     1      47.003 -15.347   6.614  0.00  0.00    +0.000 C 
BRANCH  11  14
ATOM     13  O   UNL     1      45.532 -18.167   5.310  0.00  0.00    +0.000 OA
ATOM     14  C   UNL     1      46.227 -17.886   6.559  0.00  0.00    +0.000 C 
ATOM     15  C   UNL     1      46.784 -18.829   5.470  0.00  0.00    +0.000 C 
ATOM     16  C   UNL     1      45.625 -18.533   7.855  0.00  0.00    +0.000 C 
ATOM     17  C   UNL     1      46.630 -20.233   5.681  0.00  0.00    +0.000 C 
ATOM     18  C   UNL     1      45.579 -19.981   7.630  0.00  0.00    +0.000 C 
ATOM     19  C   UNL     1      46.014 -20.958   6.715  0.00  0.00    +0.000 C 
ATOM     20  C   UNL     1      47.838 -18.404   4.444  0.00  0.00    +0.000 C 
ATOM     21  C   UNL     1      46.618 -18.187   8.996  0.00  0.00    +0.000 C 
ATOM     22  C   UNL     1      44.234 -17.896   8.060  0.00  0.00    +0.000 C 
BRANCH  19  23
ATOM     23  O   UNL     1      46.469 -22.172   7.134  0.00  0.00    +0.000 OA
ATOM     24  H   UNL     1      46.311 -22.320   8.083  0.00  0.00    +0.000 HD
ENDBRANCH  19  23
ENDBRANCH  11  14
ENDBRANCH   6  12
ENDBRANCH   1   2
BRANCH   1  25
ATOM     25  C   UNL     1      50.162  -7.767   7.971  0.00  0.00    +0.000 C 
ATOM     26  C   UNL     1      50.231  -6.599   7.703  0.00  0.00    +0.000 C 
BRANCH  26  28
ATOM     27  C   UNL     1      50.376  -3.940   7.098  0.00  0.00    +0.000 C 
ATOM     28  C   UNL     1      50.315  -5.107   7.366  0.00  0.00    +0.000 C 
BRANCH  27  29
ATOM     29  C   UNL     1      50.454  -2.448   6.748  0.00  0.00    +0.000 C 
BRANCH  29  30
ATOM     30  C   UNL     1      50.510  -1.187   6.459  0.00  0.00    +0.000 C 
ATOM     31  C   UNL     1      50.547  -0.738   5.030  0.00  0.00    +0.000 C 
BRANCH  30  33
ATOM     32  C   UNL     1      50.668   0.586   8.382  0.00  0.00    +0.000 C 
ATOM     33  C   UNL     1      50.594  -0.227   7.499  0.00  0.00    +0.000 C 
BRANCH  32  39
ATOM     34  C   UNL     1      52.102   2.025   9.850  0.00  0.00    +0.000 C 
ATOM     35  C   UNL     1      49.510   1.982  10.064  0.00  0.00    +0.000 C 
ATOM     36  C   UNL     1      51.914   3.212  10.696  0.00  0.00    +0.000 C 
ATOM     37  C   UNL     1      50.865   3.959  11.270  0.00  0.00    +0.000 C 
ATOM     38  C   UNL     1      49.763   3.194  10.835  0.00  0.00    +0.000 C 
ATOM     39  C   UNL     1      50.753   1.479   9.348  0.00  0.00    +0.000 C 
ATOM     40  C   UNL     1      52.973   2.441   8.625  0.00  0.00    +0.000 C 
ATOM     41  C   UNL     1      52.819   0.909  10.656  0.00  0.00    +0.000 C 
ATOM     42  C   UNL     1      48.899   0.882  10.938  0.00  0.00    +0.000 C 
BRANCH  35  43
ATOM     43  O   UNL     1      48.515   2.283   9.110  0.00  0.00    +0.000 OA
ATOM     44  H   UNL     1      48.857   1.819   8.323  0.00  0.00    +0.000 HD
ENDBRANCH  35  43
BRANCH  37  45
ATOM     45  O   UNL     1      50.966   4.354  12.598  0.00  0.00    +0.000 OA
BRANCH  45  47
ATOM     46  O   UNL     1      52.844   5.758  12.657  0.00  0.00    +0.000 OA
ATOM     47  C   UNL     1      51.651   5.521  12.681  0.00  0.00    +0.000 C 
ATOM     48  C   UNL     1      50.788   6.723  12.843  0.00  0.00    +0.000 C 
ENDBRANCH  45  47
ENDBRANCH  37  45
ENDBRANCH  32  39
ENDBRANCH  30  33
ENDBRANCH  29  30
ENDBRANCH  27  29
ENDBRANCH  26  28
ENDBRANCH   1  25
TORSDOF 13
ENDMDL
MODEL 8
REMARK VINA RESULT:      -5.2     10.270     13.093
REMARK  Name = 5289155_Peridinin.pdbqt.pdb
REMARK  13 active torsions:
REMARK  status: ('A' for Active; 'I' for Inactive)
REMARK    1  A    between atoms: C_1  and  C_3
REMARK    2  A    between atoms: C_3  and  C_25
REMARK    3  A    between atoms: C_6  and  C_12
REMARK    4  A    between atoms: C_11  and  C_14
REMARK    5  A    between atoms: C_19  and  O_23
REMARK    6  A    between atoms: C_26  and  C_28
REMARK    7  A    between atoms: C_27  and  C_31
REMARK    8  A    between atoms: C_29  and  C_31
REMARK    9  A    between atoms: C_29  and  C_42
REMARK   10  A    between atoms: C_33  and  O_43
REMARK   11  A    between atoms: C_35  and  O_45
REMARK   12  A    between atoms: C_37  and  C_41
REMARK   13  A    between atoms: O_45  and  C_47
REMARK                            x       y       z     vdW  Elec       q    Type
REMARK                         _______ _______ _______ _____ _____    ______ ____
ROOT
ATOM      1  C   UNL     1      53.063  -1.258  -6.135  0.00  0.00    +0.000 C 
ENDROOT
BRANCH   1   2
ATOM      2  C   UNL     1      54.041  -1.647  -5.378  0.00  0.00    +0.000 C 
ATOM      3  C   UNL     1      55.348  -2.051  -5.985  0.00  0.00    +0.000 C 
ATOM      4  O   UNL     1      52.490  -1.836  -2.130  0.00  0.00    +0.000 OA
ATOM      5  O   UNL     1      51.933  -2.420   0.043  0.00  0.00    +0.000 OA
ATOM      6  C   UNL     1      54.240  -2.261  -0.657  0.00  0.00    +0.000 C 
ATOM      7  C   UNL     1      54.770  -1.954  -1.784  0.00  0.00    +0.000 C 
ATOM      8  C   UNL     1      52.768  -2.194  -0.814  0.00  0.00    +0.000 C 
ATOM      9  C   UNL     1      53.753  -1.661  -2.688  0.00  0.00    +0.000 C 
ATOM     10  C   UNL     1      53.888  -1.654  -3.973  0.00  0.00    +0.000 C 
BRANCH   6  12
ATOM     11  C   UNL     1      55.601  -2.915   1.471  0.00  0.00    +0.000 C 
ATOM     12  C   UNL     1      54.970  -2.612   0.494  0.00  0.00    +0.000 C 
BRANCH  11  14
ATOM     13  O   UNL     1      57.734  -3.624   2.262  0.00  0.00    +0.000 OA
ATOM     14  C   UNL     1      56.369  -3.290   2.647  0.00  0.00    +0.000 C 
ATOM     15  C   UNL     1      57.596  -2.444   3.050  0.00  0.00    +0.000 C 
ATOM     16  C   UNL     1      55.709  -4.198   3.742  0.00  0.00    +0.000 C 
ATOM     17  C   UNL     1      58.102  -2.617   4.374  0.00  0.00    +0.000 C 
ATOM     18  C   UNL     1      56.580  -4.151   4.921  0.00  0.00    +0.000 C 
ATOM     19  C   UNL     1      57.705  -3.467   5.420  0.00  0.00    +0.000 C 
ATOM     20  C   UNL     1      58.018  -1.166   2.319  0.00  0.00    +0.000 C 
ATOM     21  C   UNL     1      54.334  -3.550   4.050  0.00  0.00    +0.000 C 
ATOM     22  C   UNL     1      55.580  -5.608   3.127  0.00  0.00    +0.000 C 
BRANCH  19  23
ATOM     23  O   UNL     1      57.796  -3.112   6.732  0.00  0.00    +0.000 OA
ATOM     24  H   UNL     1      57.002  -2.644   7.046  0.00  0.00    +0.000 HD
ENDBRANCH  19  23
ENDBRANCH  11  14
ENDBRANCH   6  12
ENDBRANCH   1   2
BRANCH   1  25
ATOM     25  C   UNL     1      51.906  -0.798  -7.029  0.00  0.00    +0.000 C 
ATOM     26  C   UNL     1      51.003  -0.440  -7.734  0.00  0.00    +0.000 C 
BRANCH  26  28
ATOM     27  C   UNL     1      48.955   0.372  -9.348  0.00  0.00    +0.000 C 
ATOM     28  C   UNL     1      49.853   0.012  -8.639  0.00  0.00    +0.000 C 
BRANCH  27  29
ATOM     29  C   UNL     1      47.808   0.839 -10.253  0.00  0.00    +0.000 C 
BRANCH  29  30
ATOM     30  C   UNL     1      46.837   1.243 -11.010  0.00  0.00    +0.000 C 
ATOM     31  C   UNL     1      47.117   1.753 -12.391  0.00  0.00    +0.000 C 
BRANCH  30  33
ATOM     32  C   UNL     1      44.385   1.261 -10.088  0.00  0.00    +0.000 C 
ATOM     33  C   UNL     1      45.510   1.254 -10.512  0.00  0.00    +0.000 C 
BRANCH  32  39
ATOM     34  C   UNL     1      42.302  -0.009  -9.512  0.00  0.00    +0.000 C 
ATOM     35  C   UNL     1      42.480   2.567  -9.204  0.00  0.00    +0.000 C 
ATOM     36  C   UNL     1      41.108   0.214  -8.685  0.00  0.00    +0.000 C 
ATOM     37  C   UNL     1      40.447   1.271  -8.027  0.00  0.00    +0.000 C 
ATOM     38  C   UNL     1      41.284   2.343  -8.399  0.00  0.00    +0.000 C 
ATOM     39  C   UNL     1      43.153   1.269  -9.618  0.00  0.00    +0.000 C 
ATOM     40  C   UNL     1      43.149  -1.133  -8.841  0.00  0.00    +0.000 C 
ATOM     41  C   UNL     1      41.881  -0.445 -10.941  0.00  0.00    +0.000 C 
ATOM     42  C   UNL     1      42.175   3.440 -10.425  0.00  0.00    +0.000 C 
BRANCH  35  43
ATOM     43  O   UNL     1      43.380   3.328  -8.428  0.00  0.00    +0.000 OA
ATOM     44  H   UNL     1      42.948   3.304  -7.553  0.00  0.00    +0.000 HD
ENDBRANCH  35  43
BRANCH  37  45
ATOM     45  O   UNL     1      39.067   1.383  -8.146  0.00  0.00    +0.000 OA
BRANCH  45  47
ATOM     46  O   UNL     1      38.533   1.558  -5.869  0.00  0.00    +0.000 OA
ATOM     47  C   UNL     1      38.551   1.941  -7.024  0.00  0.00    +0.000 C 
ATOM     48  C   UNL     1      37.878   3.249  -7.249  0.00  0.00    +0.000 C 
ENDBRANCH  45  47
ENDBRANCH  37  45
ENDBRANCH  32  39
ENDBRANCH  30  33
ENDBRANCH  29  30
ENDBRANCH  27  29
ENDBRANCH  26  28
ENDBRANCH   1  25
TORSDOF 13
ENDMDL
MODEL 9
REMARK VINA RESULT:      -5.2     18.776     23.655
REMARK  Name = 5289155_Peridinin.pdbqt.pdb
REMARK  13 active torsions:
REMARK  status: ('A' for Active; 'I' for Inactive)
REMARK    1  A    between atoms: C_1  and  C_3
REMARK    2  A    between atoms: C_3  and  C_25
REMARK    3  A    between atoms: C_6  and  C_12
REMARK    4  A    between atoms: C_11  and  C_14
REMARK    5  A    between atoms: C_19  and  O_23
REMARK    6  A    between atoms: C_26  and  C_28
REMARK    7  A    between atoms: C_27  and  C_31
REMARK    8  A    between atoms: C_29  and  C_31
REMARK    9  A    between atoms: C_29  and  C_42
REMARK   10  A    between atoms: C_33  and  O_43
REMARK   11  A    between atoms: C_35  and  O_45
REMARK   12  A    between atoms: C_37  and  C_41
REMARK   13  A    between atoms: O_45  and  C_47
REMARK                            x       y       z     vdW  Elec       q    Type
REMARK                         _______ _______ _______ _____ _____    ______ ____
ROOT
ATOM      1  C   UNL     1      33.746   1.146  -7.384  0.00  0.00    +0.000 C 
ENDROOT
BRANCH   1   2
ATOM      2  C   UNL     1      33.239   0.058  -6.895  0.00  0.00    +0.000 C 
ATOM      3  C   UNL     1      33.170  -1.183  -7.732  0.00  0.00    +0.000 C 
ATOM      4  O   UNL     1      31.906   1.164  -3.734  0.00  0.00    +0.000 OA
ATOM      5  O   UNL     1      30.629   1.401  -1.815  0.00  0.00    +0.000 OA
ATOM      6  C   UNL     1      31.219  -0.783  -2.662  0.00  0.00    +0.000 C 
ATOM      7  C   UNL     1      31.909  -1.145  -3.681  0.00  0.00    +0.000 C 
ATOM      8  C   UNL     1      31.188   0.699  -2.637  0.00  0.00    +0.000 C 
ATOM      9  C   UNL     1      32.367  -0.004  -4.335  0.00  0.00    +0.000 C 
ATOM     10  C   UNL     1      32.783   0.028  -5.558  0.00  0.00    +0.000 C 
BRANCH   6  12
ATOM     11  C   UNL     1      30.067  -2.434  -1.003  0.00  0.00    +0.000 C 
ATOM     12  C   UNL     1      30.602  -1.674  -1.765  0.00  0.00    +0.000 C 
BRANCH  11  14
ATOM     13  O   UNL     1      30.170  -4.587   0.014  0.00  0.00    +0.000 OA
ATOM     14  C   UNL     1      29.410  -3.348  -0.083  0.00  0.00    +0.000 C 
ATOM     15  C   UNL     1      30.147  -3.793   1.198  0.00  0.00    +0.000 C 
ATOM     16  C   UNL     1      27.848  -3.487  -0.118  0.00  0.00    +0.000 C 
ATOM     17  C   UNL     1      29.361  -4.387   2.231  0.00  0.00    +0.000 C 
ATOM     18  C   UNL     1      27.453  -4.214   1.092  0.00  0.00    +0.000 C 
ATOM     19  C   UNL     1      27.991  -4.690   2.303  0.00  0.00    +0.000 C 
ATOM     20  C   UNL     1      31.525  -3.263   1.607  0.00  0.00    +0.000 C 
ATOM     21  C   UNL     1      27.297  -2.036  -0.090  0.00  0.00    +0.000 C 
ATOM     22  C   UNL     1      27.501  -4.231  -1.426  0.00  0.00    +0.000 C 
BRANCH  19  23
ATOM     23  O   UNL     1      27.284  -4.630   3.466  0.00  0.00    +0.000 OA
ATOM     24  H   UNL     1      27.856  -4.482   4.240  0.00  0.00    +0.000 HD
ENDBRANCH  19  23
ENDBRANCH  11  14
ENDBRANCH   6  12
ENDBRANCH   1   2
BRANCH   1  25
ATOM     25  C   UNL     1      34.346   2.432  -7.963  0.00  0.00    +0.000 C 
ATOM     26  C   UNL     1      34.812   3.438  -8.420  0.00  0.00    +0.000 C 
BRANCH  26  28
ATOM     27  C   UNL     1      35.868   5.724  -9.479  0.00  0.00    +0.000 C 
ATOM     28  C   UNL     1      35.404   4.722  -9.011  0.00  0.00    +0.000 C 
BRANCH  27  29
ATOM     29  C   UNL     1      36.464   7.002 -10.083  0.00  0.00    +0.000 C 
BRANCH  29  30
ATOM     30  C   UNL     1      36.977   8.077 -10.591  0.00  0.00    +0.000 C 
ATOM     31  C   UNL     1      36.230   8.854 -11.633  0.00  0.00    +0.000 C 
BRANCH  30  33
ATOM     32  C   UNL     1      39.375   8.847  -9.869  0.00  0.00    +0.000 C 
ATOM     33  C   UNL     1      38.276   8.493 -10.202  0.00  0.00    +0.000 C 
BRANCH  32  39
ATOM     34  C   UNL     1      41.184  10.582  -9.935  0.00  0.00    +0.000 C 
ATOM     35  C   UNL     1      41.470   8.332  -8.660  0.00  0.00    +0.000 C 
ATOM     36  C   UNL     1      42.384  10.904  -9.151  0.00  0.00    +0.000 C 
ATOM     37  C   UNL     1      43.215  10.313  -8.178  0.00  0.00    +0.000 C 
ATOM     38  C   UNL     1      42.592   9.052  -8.068  0.00  0.00    +0.000 C 
ATOM     39  C   UNL     1      40.580   9.234  -9.500  0.00  0.00    +0.000 C 
ATOM     40  C   UNL     1      40.136  11.712  -9.696  0.00  0.00    +0.000 C 
ATOM     41  C   UNL     1      41.542  10.501 -11.443  0.00  0.00    +0.000 C 
ATOM     42  C   UNL     1      41.949   7.125  -9.472  0.00  0.00    +0.000 C 
BRANCH  35  43
ATOM     43  O   UNL     1      40.711   7.784  -7.605  0.00  0.00    +0.000 OA
ATOM     44  H   UNL     1      40.898   6.832  -7.707  0.00  0.00    +0.000 HD
ENDBRANCH  35  43
BRANCH  37  45
ATOM     45  O   UNL     1      44.594  10.405  -8.320  0.00  0.00    +0.000 OA
BRANCH  45  47
ATOM     46  O   UNL     1      44.870  12.497  -7.296  0.00  0.00    +0.000 OA
ATOM     47  C   UNL     1      45.089  11.309  -7.439  0.00  0.00    +0.000 C 
ATOM     48  C   UNL     1      46.087  10.748  -6.488  0.00  0.00    +0.000 C 
ENDBRANCH  45  47
ENDBRANCH  37  45
ENDBRANCH  32  39
ENDBRANCH  30  33
ENDBRANCH  29  30
ENDBRANCH  27  29
ENDBRANCH  26  28
ENDBRANCH   1  25
TORSDOF 13
ENDMDL
