MODEL 1
REMARK VINA RESULT:      -6.9      0.000      0.000
REMARK  Name = 5318517_Andrographolide.pdbqt.pdb
REMARK  6 active torsions:
REMARK  status: ('A' for Active; 'I' for Inactive)
REMARK    1  A    between atoms: C_3  and  C_16
REMARK    2  A    between atoms: C_4  and  C_19
REMARK    3  A    between atoms: C_6  and  O_14
REMARK    4  A    between atoms: C_16  and  O_17
REMARK    5  A    between atoms: C_22  and  C_23
REMARK    6  A    between atoms: C_24  and  O_27
REMARK                            x       y       z     vdW  Elec       q    Type
REMARK                         _______ _______ _______ _____ _____    ______ ____
ROOT
ATOM      1  C   UNL     1      34.135  14.220  21.665  0.00  0.00    +0.000 C 
ATOM      2  C   UNL     1      33.107  13.048  21.620  0.00  0.00    +0.000 C 
ATOM      3  C   UNL     1      33.509  11.584  21.875  0.00  0.00    +0.000 C 
ATOM      4  C   UNL     1      33.834  15.454  20.768  0.00  0.00    +0.000 C 
ATOM      5  C   UNL     1      35.402  13.614  21.270  0.00  0.00    +0.000 C 
ATOM      6  C   UNL     1      34.995  11.198  21.605  0.00  0.00    +0.000 C 
ATOM      7  C   UNL     1      31.788  13.459  21.278  0.00  0.00    +0.000 C 
ATOM      8  C   UNL     1      35.895  12.207  21.217  0.00  0.00    +0.000 C 
ATOM      9  C   UNL     1      34.202  14.716  23.142  0.00  0.00    +0.000 C 
ATOM     10  C   UNL     1      31.483  14.810  20.716  0.00  0.00    +0.000 C 
ATOM     11  C   UNL     1      32.443  15.808  20.448  0.00  0.00    +0.000 C 
ATOM     12  C   UNL     1      32.658  10.679  20.913  0.00  0.00    +0.000 C 
ATOM     13  C   UNL     1      32.062  16.866  19.730  0.00  0.00    +0.000 C 
ENDROOT
BRANCH   6  14
ATOM     14  O   UNL     1      35.471   9.941  21.933  0.00  0.00    +0.000 OA
ATOM     15  H   UNL     1      34.961   9.230  21.505  0.00  0.00    +0.000 HD
ENDBRANCH   6  14
BRANCH   4  16
ATOM     16  C   UNL     1      34.898  16.325  20.356  0.00  0.00    +0.000 C 
ATOM     17  C   UNL     1      36.036  17.256  19.927  0.00  0.00    +0.000 C 
BRANCH  17  20
ATOM     18  O   UNL     1      39.128  18.651  18.839  0.00  0.00    +0.000 OA
ATOM     19  O   UNL     1      38.871  16.440  19.536  0.00  0.00    +0.000 OA
ATOM     20  C   UNL     1      37.006  18.037  19.567  0.00  0.00    +0.000 C 
ATOM     21  C   UNL     1      36.929  19.434  19.223  0.00  0.00    +0.000 C 
ATOM     22  C   UNL     1      38.424  17.555  19.334  0.00  0.00    +0.000 C 
ATOM     23  C   UNL     1      38.244  19.636  18.798  0.00  0.00    +0.000 C 
BRANCH  21  24
ATOM     24  O   UNL     1      35.826  19.928  18.588  0.00  0.00    +0.000 OA
ATOM     25  H   UNL     1      35.942  19.944  17.622  0.00  0.00    +0.000 HD
ENDBRANCH  21  24
ENDBRANCH  17  20
ENDBRANCH   4  16
BRANCH   3  26
ATOM     26  C   UNL     1      33.190  11.269  23.296  0.00  0.00    +0.000 C 
BRANCH  26  27
ATOM     27  O   UNL     1      32.909  10.997  24.574  0.00  0.00    +0.000 OA
ATOM     28  H   UNL     1      31.950  11.065  24.736  0.00  0.00    +0.000 HD
ENDBRANCH  26  27
ENDBRANCH   3  26
TORSDOF 6
ENDMDL
MODEL 2
REMARK VINA RESULT:      -6.2      2.025      3.798
REMARK  Name = 5318517_Andrographolide.pdbqt.pdb
REMARK  6 active torsions:
REMARK  status: ('A' for Active; 'I' for Inactive)
REMARK    1  A    between atoms: C_3  and  C_16
REMARK    2  A    between atoms: C_4  and  C_19
REMARK    3  A    between atoms: C_6  and  O_14
REMARK    4  A    between atoms: C_16  and  O_17
REMARK    5  A    between atoms: C_22  and  C_23
REMARK    6  A    between atoms: C_24  and  O_27
REMARK                            x       y       z     vdW  Elec       q    Type
REMARK                         _______ _______ _______ _____ _____    ______ ____
ROOT
ATOM      1  C   UNL     1      34.167  14.705  22.430  0.00  0.00    +0.000 C 
ATOM      2  C   UNL     1      33.918  13.562  23.461  0.00  0.00    +0.000 C 
ATOM      3  C   UNL     1      33.376  13.827  24.876  0.00  0.00    +0.000 C 
ATOM      4  C   UNL     1      35.292  14.474  21.382  0.00  0.00    +0.000 C 
ATOM      5  C   UNL     1      34.479  15.875  23.246  0.00  0.00    +0.000 C 
ATOM      6  C   UNL     1      33.621  15.244  25.477  0.00  0.00    +0.000 C 
ATOM      7  C   UNL     1      34.283  12.272  22.981  0.00  0.00    +0.000 C 
ATOM      8  C   UNL     1      34.253  16.216  24.680  0.00  0.00    +0.000 C 
ATOM      9  C   UNL     1      32.834  14.921  21.651  0.00  0.00    +0.000 C 
ATOM     10  C   UNL     1      35.106  12.072  21.749  0.00  0.00    +0.000 C 
ATOM     11  C   UNL     1      35.621  13.110  20.945  0.00  0.00    +0.000 C 
ATOM     12  C   UNL     1      34.085  12.826  25.858  0.00  0.00    +0.000 C 
ATOM     13  C   UNL     1      36.530  12.792  20.021  0.00  0.00    +0.000 C 
ENDROOT
BRANCH   6  14
ATOM     14  O   UNL     1      33.053  15.609  26.686  0.00  0.00    +0.000 OA
ATOM     15  H   UNL     1      33.667  16.120  27.243  0.00  0.00    +0.000 HD
ENDBRANCH   6  14
BRANCH   4  16
ATOM     16  C   UNL     1      35.926  15.593  20.743  0.00  0.00    +0.000 C 
ATOM     17  C   UNL     1      36.608  16.779  20.055  0.00  0.00    +0.000 C 
BRANCH  17  20
ATOM     18  O   UNL     1      37.420  19.921  18.586  0.00  0.00    +0.000 OA
ATOM     19  O   UNL     1      35.251  19.262  19.136  0.00  0.00    +0.000 OA
ATOM     20  C   UNL     1      37.181  17.781  19.465  0.00  0.00    +0.000 C 
ATOM     21  C   UNL     1      38.583  17.948  19.176  0.00  0.00    +0.000 C 
ATOM     22  C   UNL     1      36.448  19.045  19.063  0.00  0.00    +0.000 C 
ATOM     23  C   UNL     1      38.561  19.256  18.687  0.00  0.00    +0.000 C 
BRANCH  21  24
ATOM     24  O   UNL     1      39.527  17.459  20.035  0.00  0.00    +0.000 OA
ATOM     25  H   UNL     1      39.193  17.409  20.948  0.00  0.00    +0.000 HD
ENDBRANCH  21  24
ENDBRANCH  17  20
ENDBRANCH   4  16
BRANCH   3  26
ATOM     26  C   UNL     1      31.907  13.572  24.853  0.00  0.00    +0.000 C 
BRANCH  26  27
ATOM     27  O   UNL     1      30.593  13.331  24.835  0.00  0.00    +0.000 OA
ATOM     28  H   UNL     1      30.420  12.372  24.828  0.00  0.00    +0.000 HD
ENDBRANCH  26  27
ENDBRANCH   3  26
TORSDOF 6
ENDMDL
MODEL 3
REMARK VINA RESULT:      -6.1     12.811     16.435
REMARK  Name = 5318517_Andrographolide.pdbqt.pdb
REMARK  6 active torsions:
REMARK  status: ('A' for Active; 'I' for Inactive)
REMARK    1  A    between atoms: C_3  and  C_16
REMARK    2  A    between atoms: C_4  and  C_19
REMARK    3  A    between atoms: C_6  and  O_14
REMARK    4  A    between atoms: C_16  and  O_17
REMARK    5  A    between atoms: C_22  and  C_23
REMARK    6  A    between atoms: C_24  and  O_27
REMARK                            x       y       z     vdW  Elec       q    Type
REMARK                         _______ _______ _______ _____ _____    ______ ____
ROOT
ATOM      1  C   UNL     1      40.668  -0.191  16.738  0.00  0.00    +0.000 C 
ATOM      2  C   UNL     1      40.105  -1.312  15.813  0.00  0.00    +0.000 C 
ATOM      3  C   UNL     1      39.854  -1.097  14.309  0.00  0.00    +0.000 C 
ATOM      4  C   UNL     1      40.250  -0.238  18.235  0.00  0.00    +0.000 C 
ATOM      5  C   UNL     1      40.207   1.054  16.131  0.00  0.00    +0.000 C 
ATOM      6  C   UNL     1      39.610   0.366  13.832  0.00  0.00    +0.000 C 
ATOM      7  C   UNL     1      39.806  -2.523  16.500  0.00  0.00    +0.000 C 
ATOM      8  C   UNL     1      39.701   1.407  14.773  0.00  0.00    +0.000 C 
ATOM      9  C   UNL     1      42.223  -0.285  16.680  0.00  0.00    +0.000 C 
ATOM     10  C   UNL     1      39.740  -2.609  17.991  0.00  0.00    +0.000 C 
ATOM     11  C   UNL     1      39.944  -1.527  18.872  0.00  0.00    +0.000 C 
ATOM     12  C   UNL     1      38.553  -1.889  13.921  0.00  0.00    +0.000 C 
ATOM     13  C   UNL     1      39.621  -1.697  20.155  0.00  0.00    +0.000 C 
ENDROOT
BRANCH   6  14
ATOM     14  O   UNL     1      39.510   0.664  12.484  0.00  0.00    +0.000 OA
ATOM     15  H   UNL     1      38.626   0.466  12.127  0.00  0.00    +0.000 HD
ENDBRANCH   6  14
BRANCH   4  16
ATOM     16  C   UNL     1      40.284   0.955  19.033  0.00  0.00    +0.000 C 
ATOM     17  C   UNL     1      40.331   2.226  19.886  0.00  0.00    +0.000 C 
BRANCH  17  20
ATOM     18  O   UNL     1      39.791   5.430  21.343  0.00  0.00    +0.000 OA
ATOM     19  O   UNL     1      38.878   4.756  19.305  0.00  0.00    +0.000 OA
ATOM     20  C   UNL     1      40.376   3.305  20.602  0.00  0.00    +0.000 C 
ATOM     21  C   UNL     1      41.076   3.509  21.845  0.00  0.00    +0.000 C 
ATOM     22  C   UNL     1      39.574   4.552  20.284  0.00  0.00    +0.000 C 
ATOM     23  C   UNL     1      40.613   4.789  22.159  0.00  0.00    +0.000 C 
BRANCH  21  24
ATOM     24  O   UNL     1      41.197   2.488  22.743  0.00  0.00    +0.000 OA
ATOM     25  H   UNL     1      40.619   1.737  22.517  0.00  0.00    +0.000 HD
ENDBRANCH  21  24
ENDBRANCH  17  20
ENDBRANCH   4  16
BRANCH   3  26
ATOM     26  C   UNL     1      41.029  -1.645  13.573  0.00  0.00    +0.000 C 
BRANCH  26  27
ATOM     27  O   UNL     1      42.081  -2.147  12.919  0.00  0.00    +0.000 OA
ATOM     28  H   UNL     1      41.829  -2.411  12.016  0.00  0.00    +0.000 HD
ENDBRANCH  26  27
ENDBRANCH   3  26
TORSDOF 6
ENDMDL
MODEL 4
REMARK VINA RESULT:      -5.9     24.581     26.711
REMARK  Name = 5318517_Andrographolide.pdbqt.pdb
REMARK  6 active torsions:
REMARK  status: ('A' for Active; 'I' for Inactive)
REMARK    1  A    between atoms: C_3  and  C_16
REMARK    2  A    between atoms: C_4  and  C_19
REMARK    3  A    between atoms: C_6  and  O_14
REMARK    4  A    between atoms: C_16  and  O_17
REMARK    5  A    between atoms: C_22  and  C_23
REMARK    6  A    between atoms: C_24  and  O_27
REMARK                            x       y       z     vdW  Elec       q    Type
REMARK                         _______ _______ _______ _____ _____    ______ ____
ROOT
ATOM      1  C   UNL     1      50.135   0.991   6.978  0.00  0.00    +0.000 C 
ATOM      2  C   UNL     1      50.163   1.145   8.529  0.00  0.00    +0.000 C 
ATOM      3  C   UNL     1      50.589   2.450   9.224  0.00  0.00    +0.000 C 
ATOM      4  C   UNL     1      50.376  -0.435   6.407  0.00  0.00    +0.000 C 
ATOM      5  C   UNL     1      51.171   1.901   6.498  0.00  0.00    +0.000 C 
ATOM      6  C   UNL     1      51.529   3.405   8.428  0.00  0.00    +0.000 C 
ATOM      7  C   UNL     1      49.806  -0.044   9.226  0.00  0.00    +0.000 C 
ATOM      8  C   UNL     1      51.877   3.065   7.108  0.00  0.00    +0.000 C 
ATOM      9  C   UNL     1      48.728   1.460   6.495  0.00  0.00    +0.000 C 
ATOM     10  C   UNL     1      49.719  -1.378   8.557  0.00  0.00    +0.000 C 
ATOM     11  C   UNL     1      49.991  -1.616   7.194  0.00  0.00    +0.000 C 
ATOM     12  C   UNL     1      51.384   2.064  10.524  0.00  0.00    +0.000 C 
ATOM     13  C   UNL     1      50.105  -2.883   6.791  0.00  0.00    +0.000 C 
ENDROOT
BRANCH   6  14
ATOM     14  O   UNL     1      51.852   4.656   8.924  0.00  0.00    +0.000 OA
ATOM     15  H   UNL     1      51.326   4.889   9.709  0.00  0.00    +0.000 HD
ENDBRANCH   6  14
BRANCH   4  16
ATOM     16  C   UNL     1      50.855  -0.605   5.064  0.00  0.00    +0.000 C 
ATOM     17  C   UNL     1      51.364  -0.798   3.633  0.00  0.00    +0.000 C 
BRANCH  17  20
ATOM     18  O   UNL     1      52.335  -2.086   0.457  0.00  0.00    +0.000 OA
ATOM     19  O   UNL     1      51.937  -3.413   2.334  0.00  0.00    +0.000 OA
ATOM     20  C   UNL     1      51.787  -0.964   2.419  0.00  0.00    +0.000 C 
ATOM     21  C   UNL     1      52.015   0.050   1.421  0.00  0.00    +0.000 C 
ATOM     22  C   UNL     1      52.015  -2.325   1.792  0.00  0.00    +0.000 C 
ATOM     23  C   UNL     1      52.307  -0.768   0.327  0.00  0.00    +0.000 C 
BRANCH  21  24
ATOM     24  O   UNL     1      51.217   1.158   1.367  0.00  0.00    +0.000 OA
ATOM     25  H   UNL     1      51.723   1.957   1.136  0.00  0.00    +0.000 HD
ENDBRANCH  21  24
ENDBRANCH  17  20
ENDBRANCH   4  16
BRANCH   3  26
ATOM     26  C   UNL     1      49.350   3.197   9.581  0.00  0.00    +0.000 C 
BRANCH  26  27
ATOM     27  O   UNL     1      48.242   3.867   9.913  0.00  0.00    +0.000 OA
ATOM     28  H   UNL     1      47.956   3.631  10.814  0.00  0.00    +0.000 HD
ENDBRANCH  26  27
ENDBRANCH   3  26
TORSDOF 6
ENDMDL
MODEL 5
REMARK VINA RESULT:      -5.2     34.696     35.896
REMARK  Name = 5318517_Andrographolide.pdbqt.pdb
REMARK  6 active torsions:
REMARK  status: ('A' for Active; 'I' for Inactive)
REMARK    1  A    between atoms: C_3  and  C_16
REMARK    2  A    between atoms: C_4  and  C_19
REMARK    3  A    between atoms: C_6  and  O_14
REMARK    4  A    between atoms: C_16  and  O_17
REMARK    5  A    between atoms: C_22  and  C_23
REMARK    6  A    between atoms: C_24  and  O_27
REMARK                            x       y       z     vdW  Elec       q    Type
REMARK                         _______ _______ _______ _____ _____    ______ ____
ROOT
ATOM      1  C   UNL     1      43.506   0.581 -10.639  0.00  0.00    +0.000 C 
ATOM      2  C   UNL     1      42.110  -0.100 -10.777  0.00  0.00    +0.000 C 
ATOM      3  C   UNL     1      40.967   0.144  -9.775  0.00  0.00    +0.000 C 
ATOM      4  C   UNL     1      44.726  -0.195 -11.210  0.00  0.00    +0.000 C 
ATOM      5  C   UNL     1      43.674   0.788  -9.204  0.00  0.00    +0.000 C 
ATOM      6  C   UNL     1      41.367   0.593  -8.337  0.00  0.00    +0.000 C 
ATOM      7  C   UNL     1      42.018  -0.993 -11.882  0.00  0.00    +0.000 C 
ATOM      8  C   UNL     1      42.726   0.818  -8.053  0.00  0.00    +0.000 C 
ATOM      9  C   UNL     1      43.427   1.948 -11.385  0.00  0.00    +0.000 C 
ATOM     10  C   UNL     1      43.216  -1.468 -12.639  0.00  0.00    +0.000 C 
ATOM     11  C   UNL     1      44.549  -1.111 -12.346  0.00  0.00    +0.000 C 
ATOM     12  C   UNL     1      40.192  -1.211  -9.593  0.00  0.00    +0.000 C 
ATOM     13  C   UNL     1      45.525  -1.793 -12.949  0.00  0.00    +0.000 C 
ENDROOT
BRANCH   6  14
ATOM     14  O   UNL     1      40.402   0.960  -7.416  0.00  0.00    +0.000 OA
ATOM     15  H   UNL     1      39.510   0.676  -7.683  0.00  0.00    +0.000 HD
ENDBRANCH   6  14
BRANCH   4  16
ATOM     16  C   UNL     1      46.048   0.073 -10.718  0.00  0.00    +0.000 C 
ATOM     17  C   UNL     1      47.459   0.348 -10.188  0.00  0.00    +0.000 C 
BRANCH  17  20
ATOM     18  O   UNL     1      50.749   1.578  -9.600  0.00  0.00    +0.000 OA
ATOM     19  O   UNL     1      49.504   2.053 -11.515  0.00  0.00    +0.000 OA
ATOM     20  C   UNL     1      48.656   0.575  -9.747  0.00  0.00    +0.000 C 
ATOM     21  C   UNL     1      49.242   0.115  -8.513  0.00  0.00    +0.000 C 
ATOM     22  C   UNL     1      49.642   1.495 -10.440  0.00  0.00    +0.000 C 
ATOM     23  C   UNL     1      50.454   0.806  -8.565  0.00  0.00    +0.000 C 
BRANCH  21  24
ATOM     24  O   UNL     1      48.473  -0.016  -7.392  0.00  0.00    +0.000 OA
ATOM     25  H   UNL     1      48.959   0.241  -6.589  0.00  0.00    +0.000 HD
ENDBRANCH  21  24
ENDBRANCH  17  20
ENDBRANCH   4  16
BRANCH   3  26
ATOM     26  C   UNL     1      40.067   1.178 -10.360  0.00  0.00    +0.000 C 
BRANCH  26  27
ATOM     27  O   UNL     1      39.251   2.101 -10.877  0.00  0.00    +0.000 OA
ATOM     28  H   UNL     1      39.402   2.196 -11.835  0.00  0.00    +0.000 HD
ENDBRANCH  26  27
ENDBRANCH   3  26
TORSDOF 6
ENDMDL
MODEL 6
REMARK VINA RESULT:      -5.1     18.360     21.294
REMARK  Name = 5318517_Andrographolide.pdbqt.pdb
REMARK  6 active torsions:
REMARK  status: ('A' for Active; 'I' for Inactive)
REMARK    1  A    between atoms: C_3  and  C_16
REMARK    2  A    between atoms: C_4  and  C_19
REMARK    3  A    between atoms: C_6  and  O_14
REMARK    4  A    between atoms: C_16  and  O_17
REMARK    5  A    between atoms: C_22  and  C_23
REMARK    6  A    between atoms: C_24  and  O_27
REMARK                            x       y       z     vdW  Elec       q    Type
REMARK                         _______ _______ _______ _____ _____    ______ ____
ROOT
ATOM      1  C   UNL     1      29.693  -3.395  12.565  0.00  0.00    +0.000 C 
ATOM      2  C   UNL     1      28.989  -2.311  11.694  0.00  0.00    +0.000 C 
ATOM      3  C   UNL     1      28.877  -2.422  10.163  0.00  0.00    +0.000 C 
ATOM      4  C   UNL     1      30.351  -2.916  13.890  0.00  0.00    +0.000 C 
ATOM      5  C   UNL     1      30.706  -3.972  11.686  0.00  0.00    +0.000 C 
ATOM      6  C   UNL     1      29.944  -3.293   9.435  0.00  0.00    +0.000 C 
ATOM      7  C   UNL     1      28.509  -1.200  12.445  0.00  0.00    +0.000 C 
ATOM      8  C   UNL     1      30.898  -3.980  10.208  0.00  0.00    +0.000 C 
ATOM      9  C   UNL     1      28.616  -4.461  12.933  0.00  0.00    +0.000 C 
ATOM     10  C   UNL     1      28.912  -0.949  13.863  0.00  0.00    +0.000 C 
ATOM     11  C   UNL     1      29.805  -1.751  14.602  0.00  0.00    +0.000 C 
ATOM     12  C   UNL     1      29.032  -0.978   9.564  0.00  0.00    +0.000 C 
ATOM     13  C   UNL     1      30.254  -1.277  15.766  0.00  0.00    +0.000 C 
ENDROOT
BRANCH   6  14
ATOM     14  O   UNL     1      29.840  -3.555   8.079  0.00  0.00    +0.000 OA
ATOM     15  H   UNL     1      29.230  -4.290   7.891  0.00  0.00    +0.000 HD
ENDBRANCH   6  14
BRANCH   4  16
ATOM     16  C   UNL     1      31.409  -3.679  14.490  0.00  0.00    +0.000 C 
ATOM     17  C   UNL     1      32.532  -4.504  15.126  0.00  0.00    +0.000 C 
BRANCH  17  20
ATOM     18  O   UNL     1      35.414  -6.498  15.757  0.00  0.00    +0.000 OA
ATOM     19  O   UNL     1      34.488  -6.182  13.640  0.00  0.00    +0.000 OA
ATOM     20  C   UNL     1      33.485  -5.203  15.656  0.00  0.00    +0.000 C 
ATOM     21  C   UNL     1      33.849  -5.284  17.049  0.00  0.00    +0.000 C 
ATOM     22  C   UNL     1      34.486  -6.002  14.845  0.00  0.00    +0.000 C 
ATOM     23  C   UNL     1      35.006  -6.058  16.937  0.00  0.00    +0.000 C 
BRANCH  21  24
ATOM     24  O   UNL     1      33.723  -4.191  17.858  0.00  0.00    +0.000 OA
ATOM     25  H   UNL     1      34.386  -3.509  17.650  0.00  0.00    +0.000 HD
ENDBRANCH  21  24
ENDBRANCH  17  20
ENDBRANCH   4  16
BRANCH   3  26
ATOM     26  C   UNL     1      27.526  -2.968   9.848  0.00  0.00    +0.000 C 
BRANCH  26  27
ATOM     27  O   UNL     1      26.319  -3.468   9.571  0.00  0.00    +0.000 OA
ATOM     28  H   UNL     1      26.141  -3.424   8.614  0.00  0.00    +0.000 HD
ENDBRANCH  26  27
ENDBRANCH   3  26
TORSDOF 6
ENDMDL
MODEL 7
REMARK VINA RESULT:      -5.0     17.277     18.315
REMARK  Name = 5318517_Andrographolide.pdbqt.pdb
REMARK  6 active torsions:
REMARK  status: ('A' for Active; 'I' for Inactive)
REMARK    1  A    between atoms: C_3  and  C_16
REMARK    2  A    between atoms: C_4  and  C_19
REMARK    3  A    between atoms: C_6  and  O_14
REMARK    4  A    between atoms: C_16  and  O_17
REMARK    5  A    between atoms: C_22  and  C_23
REMARK    6  A    between atoms: C_24  and  O_27
REMARK                            x       y       z     vdW  Elec       q    Type
REMARK                         _______ _______ _______ _____ _____    ______ ____
ROOT
ATOM      1  C   UNL     1      27.022  11.063   4.869  0.00  0.00    +0.000 C 
ATOM      2  C   UNL     1      25.931   9.981   4.607  0.00  0.00    +0.000 C 
ATOM      3  C   UNL     1      26.105   8.510   5.028  0.00  0.00    +0.000 C 
ATOM      4  C   UNL     1      27.090  12.251   3.868  0.00  0.00    +0.000 C 
ATOM      5  C   UNL     1      28.283  10.326   4.854  0.00  0.00    +0.000 C 
ATOM      6  C   UNL     1      27.564   7.984   5.182  0.00  0.00    +0.000 C 
ATOM      7  C   UNL     1      24.794  10.475   3.907  0.00  0.00    +0.000 C 
ATOM      8  C   UNL     1      28.630   8.884   5.000  0.00  0.00    +0.000 C 
ATOM      9  C   UNL     1      26.752  11.656   6.285  0.00  0.00    +0.000 C 
ATOM     10  C   UNL     1      24.782  11.803   3.222  0.00  0.00    +0.000 C 
ATOM     11  C   UNL     1      25.873  12.696   3.172  0.00  0.00    +0.000 C 
ATOM     12  C   UNL     1      25.448   7.613   3.918  0.00  0.00    +0.000 C 
ATOM     13  C   UNL     1      25.799  13.728   2.331  0.00  0.00    +0.000 C 
ENDROOT
BRANCH   6  14
ATOM     14  O   UNL     1      27.811   6.717   5.683  0.00  0.00    +0.000 OA
ATOM     15  H   UNL     1      28.513   6.718   6.357  0.00  0.00    +0.000 HD
ENDBRANCH   6  14
BRANCH   4  16
ATOM     16  C   UNL     1      28.306  12.998   3.713  0.00  0.00    +0.000 C 
ATOM     17  C   UNL     1      29.606  13.788   3.539  0.00  0.00    +0.000 C 
BRANCH  17  20
ATOM     18  O   UNL     1      32.583  15.308   2.309  0.00  0.00    +0.000 OA
ATOM     19  O   UNL     1      31.466  13.569   1.227  0.00  0.00    +0.000 OA
ATOM     20  C   UNL     1      30.703  14.460   3.384  0.00  0.00    +0.000 C 
ATOM     21  C   UNL     1      31.236  15.487   4.244  0.00  0.00    +0.000 C 
ATOM     22  C   UNL     1      31.589  14.344   2.160  0.00  0.00    +0.000 C 
ATOM     23  C   UNL     1      32.320  15.897   3.465  0.00  0.00    +0.000 C 
BRANCH  21  24
ATOM     24  O   UNL     1      30.395  16.335   4.907  0.00  0.00    +0.000 OA
ATOM     25  H   UNL     1      29.504  16.341   4.515  0.00  0.00    +0.000 HD
ENDBRANCH  21  24
ENDBRANCH  17  20
ENDBRANCH   4  16
BRANCH   3  26
ATOM     26  C   UNL     1      25.397   8.325   6.326  0.00  0.00    +0.000 C 
BRANCH  26  27
ATOM     27  O   UNL     1      24.759   8.148   7.487  0.00  0.00    +0.000 OA
ATOM     28  H   UNL     1      24.471   7.222   7.582  0.00  0.00    +0.000 HD
ENDBRANCH  26  27
ENDBRANCH   3  26
TORSDOF 6
ENDMDL
MODEL 8
REMARK VINA RESULT:      -5.0     35.606     36.973
REMARK  Name = 5318517_Andrographolide.pdbqt.pdb
REMARK  6 active torsions:
REMARK  status: ('A' for Active; 'I' for Inactive)
REMARK    1  A    between atoms: C_3  and  C_16
REMARK    2  A    between atoms: C_4  and  C_19
REMARK    3  A    between atoms: C_6  and  O_14
REMARK    4  A    between atoms: C_16  and  O_17
REMARK    5  A    between atoms: C_22  and  C_23
REMARK    6  A    between atoms: C_24  and  O_27
REMARK                            x       y       z     vdW  Elec       q    Type
REMARK                         _______ _______ _______ _____ _____    ______ ____
ROOT
ATOM      1  C   UNL     1      46.392   0.271 -10.959  0.00  0.00    +0.000 C 
ATOM      2  C   UNL     1      45.280  -0.393 -11.827  0.00  0.00    +0.000 C 
ATOM      3  C   UNL     1      43.873  -0.695 -11.281  0.00  0.00    +0.000 C 
ATOM      4  C   UNL     1      47.865  -0.085 -11.309  0.00  0.00    +0.000 C 
ATOM      5  C   UNL     1      46.090  -0.144  -9.592  0.00  0.00    +0.000 C 
ATOM      6  C   UNL     1      43.733  -0.876  -9.739  0.00  0.00    +0.000 C 
ATOM      7  C   UNL     1      45.709  -0.730 -13.142  0.00  0.00    +0.000 C 
ATOM      8  C   UNL     1      44.869  -0.687  -8.931  0.00  0.00    +0.000 C 
ATOM      9  C   UNL     1      46.232   1.815 -11.109  0.00  0.00    +0.000 C 
ATOM     10  C   UNL     1      47.149  -0.737 -13.545  0.00  0.00    +0.000 C 
ATOM     11  C   UNL     1      48.228  -0.435 -12.689  0.00  0.00    +0.000 C 
ATOM     12  C   UNL     1      43.396  -2.054 -11.910  0.00  0.00    +0.000 C 
ATOM     13  C   UNL     1      49.461  -0.712 -13.117  0.00  0.00    +0.000 C 
ENDROOT
BRANCH   6  14
ATOM     14  O   UNL     1      42.487  -1.017  -9.153  0.00  0.00    +0.000 OA
ATOM     15  H   UNL     1      42.440  -0.591  -8.279  0.00  0.00    +0.000 HD
ENDBRANCH   6  14
BRANCH   4  16
ATOM     16  C   UNL     1      48.896   0.051 -10.319  0.00  0.00    +0.000 C 
ATOM     17  C   UNL     1      50.003   0.189  -9.270  0.00  0.00    +0.000 C 
BRANCH  17  20
ATOM     18  O   UNL     1      52.238   1.316  -6.736  0.00  0.00    +0.000 OA
ATOM     19  O   UNL     1      50.792   2.717  -7.914  0.00  0.00    +0.000 OA
ATOM     20  C   UNL     1      50.945   0.313  -8.388  0.00  0.00    +0.000 C 
ATOM     21  C   UNL     1      51.769  -0.728  -7.828  0.00  0.00    +0.000 C 
ATOM     22  C   UNL     1      51.271   1.619  -7.691  0.00  0.00    +0.000 C 
ATOM     23  C   UNL     1      52.452   0.015  -6.864  0.00  0.00    +0.000 C 
BRANCH  21  24
ATOM     24  O   UNL     1      51.256  -1.978  -7.622  0.00  0.00    +0.000 OA
ATOM     25  H   UNL     1      51.947  -2.662  -7.658  0.00  0.00    +0.000 HD
ENDBRANCH  21  24
ENDBRANCH  17  20
ENDBRANCH   4  16
BRANCH   3  26
ATOM     26  C   UNL     1      42.975   0.415 -11.710  0.00  0.00    +0.000 C 
BRANCH  26  27
ATOM     27  O   UNL     1      42.179   1.414 -12.101  0.00  0.00    +0.000 OA
ATOM     28  H   UNL     1      41.916   1.961 -11.339  0.00  0.00    +0.000 HD
ENDBRANCH  26  27
ENDBRANCH   3  26
TORSDOF 6
ENDMDL
MODEL 9
REMARK VINA RESULT:      -4.9     33.879     36.357
REMARK  Name = 5318517_Andrographolide.pdbqt.pdb
REMARK  6 active torsions:
REMARK  status: ('A' for Active; 'I' for Inactive)
REMARK    1  A    between atoms: C_3  and  C_16
REMARK    2  A    between atoms: C_4  and  C_19
REMARK    3  A    between atoms: C_6  and  O_14
REMARK    4  A    between atoms: C_16  and  O_17
REMARK    5  A    between atoms: C_22  and  C_23
REMARK    6  A    between atoms: C_24  and  O_27
REMARK                            x       y       z     vdW  Elec       q    Type
REMARK                         _______ _______ _______ _____ _____    ______ ____
ROOT
ATOM      1  C   UNL     1      40.905 -12.998  -2.438  0.00  0.00    +0.000 C 
ATOM      2  C   UNL     1      39.408 -13.289  -2.762  0.00  0.00    +0.000 C 
ATOM      3  C   UNL     1      38.928 -13.694  -4.167  0.00  0.00    +0.000 C 
ATOM      4  C   UNL     1      41.193 -11.985  -1.294  0.00  0.00    +0.000 C 
ATOM      5  C   UNL     1      41.464 -12.505  -3.693  0.00  0.00    +0.000 C 
ATOM      6  C   UNL     1      39.814 -13.257  -5.373  0.00  0.00    +0.000 C 
ATOM      7  C   UNL     1      38.537 -13.099  -1.652  0.00  0.00    +0.000 C 
ATOM      8  C   UNL     1      41.023 -12.588  -5.115  0.00  0.00    +0.000 C 
ATOM      9  C   UNL     1      41.562 -14.355  -2.041  0.00  0.00    +0.000 C 
ATOM     10  C   UNL     1      38.962 -12.395  -0.403  0.00  0.00    +0.000 C 
ATOM     11  C   UNL     1      40.238 -11.835  -0.187  0.00  0.00    +0.000 C 
ATOM     12  C   UNL     1      37.528 -13.023  -4.408  0.00  0.00    +0.000 C 
ATOM     13  C   UNL     1      40.399 -11.036   0.869  0.00  0.00    +0.000 C 
ENDROOT
BRANCH   6  14
ATOM     14  O   UNL     1      39.528 -13.692  -6.656  0.00  0.00    +0.000 OA
ATOM     15  H   UNL     1      39.423 -14.658  -6.703  0.00  0.00    +0.000 HD
ENDBRANCH   6  14
BRANCH   4  16
ATOM     16  C   UNL     1      42.447 -11.286  -1.246  0.00  0.00    +0.000 C 
ATOM     17  C   UNL     1      43.788 -10.549  -1.187  0.00  0.00    +0.000 C 
BRANCH  17  20
ATOM     18  O   UNL     1      47.235  -9.653  -1.188  0.00  0.00    +0.000 OA
ATOM     19  O   UNL     1      46.459 -11.845  -1.001  0.00  0.00    +0.000 OA
ATOM     20  C   UNL     1      44.926  -9.932  -1.141  0.00  0.00    +0.000 C 
ATOM     21  C   UNL     1      45.163  -8.513  -1.226  0.00  0.00    +0.000 C 
ATOM     22  C   UNL     1      46.263 -10.646  -1.097  0.00  0.00    +0.000 C 
ATOM     23  C   UNL     1      46.559  -8.517  -1.264  0.00  0.00    +0.000 C 
BRANCH  21  24
ATOM     24  O   UNL     1      44.370  -7.728  -2.014  0.00  0.00    +0.000 OA
ATOM     25  H   UNL     1      44.346  -8.046  -2.934  0.00  0.00    +0.000 HD
ENDBRANCH  21  24
ENDBRANCH  17  20
ENDBRANCH   4  16
BRANCH   3  26
ATOM     26  C   UNL     1      38.799 -15.179  -4.189  0.00  0.00    +0.000 C 
BRANCH  26  27
ATOM     27  O   UNL     1      38.676 -16.509  -4.199  0.00  0.00    +0.000 OA
ATOM     28  H   UNL     1      38.311 -16.814  -5.050  0.00  0.00    +0.000 HD
ENDBRANCH  26  27
ENDBRANCH   3  26
TORSDOF 6
ENDMDL
