MODEL 1
REMARK VINA RESULT:      -6.3      0.000      0.000
REMARK  Name = 5326018_Caulerpin.pdbqt.pdb
REMARK  4 active torsions:
REMARK  status: ('A' for Active; 'I' for Inactive)
REMARK    1  A    between atoms: C_11  and  C_26
REMARK    2  A    between atoms: C_12  and  C_30
REMARK    3  A    between atoms: C_26  and  O_27
REMARK    4  A    between atoms: C_30  and  O_31
REMARK                            x       y       z     vdW  Elec       q    Type
REMARK                         _______ _______ _______ _____ _____    ______ ____
ROOT
ATOM      1  N   UNL     1      38.755   1.269  -8.100  0.00  0.00    +0.000 N 
ATOM      2  N   UNL     1      43.673   4.666 -10.739  0.00  0.00    +0.000 N 
ATOM      3  C   UNL     1      39.829   3.202  -8.237  0.00  0.00    +0.000 C 
ATOM      4  C   UNL     1      42.815   2.676 -10.270  0.00  0.00    +0.000 C 
ATOM      5  C   UNL     1      39.959   1.834  -8.465  0.00  0.00    +0.000 C 
ATOM      6  C   UNL     1      42.761   4.024  -9.926  0.00  0.00    +0.000 C 
ATOM      7  C   UNL     1      38.559   3.457  -7.667  0.00  0.00    +0.000 A 
ATOM      8  C   UNL     1      43.815   2.490 -11.255  0.00  0.00    +0.000 A 
ATOM      9  C   UNL     1      37.907   2.227  -7.588  0.00  0.00    +0.000 A 
ATOM     10  C   UNL     1      44.341   3.753 -11.528  0.00  0.00    +0.000 A 
ATOM     11  C   UNL     1      41.022   1.049  -9.035  0.00  0.00    +0.000 C 
ATOM     12  C   UNL     1      41.926   4.752  -9.007  0.00  0.00    +0.000 C 
ATOM     13  C   UNL     1      41.948   1.695  -9.695  0.00  0.00    +0.000 C 
ATOM     14  C   UNL     1      40.852   4.143  -8.573  0.00  0.00    +0.000 C 
ATOM     15  C   UNL     1      37.887   4.612  -7.226  0.00  0.00    +0.000 A 
ATOM     16  C   UNL     1      44.318   1.379 -11.957  0.00  0.00    +0.000 A 
ATOM     17  C   UNL     1      36.609   2.089  -7.082  0.00  0.00    +0.000 A 
ATOM     18  C   UNL     1      45.354   3.964 -12.470  0.00  0.00    +0.000 A 
ATOM     19  C   UNL     1      36.594   4.491  -6.713  0.00  0.00    +0.000 A 
ATOM     20  C   UNL     1      45.332   1.571 -12.896  0.00  0.00    +0.000 A 
ATOM     21  C   UNL     1      35.970   3.250  -6.643  0.00  0.00    +0.000 A 
ATOM     22  C   UNL     1      45.840   2.842 -13.144  0.00  0.00    +0.000 A 
ATOM     23  H   UNL     1      38.492   0.296  -8.191  0.00  0.00    +0.000 HD
ATOM     24  H   UNL     1      43.847   5.662 -10.787  0.00  0.00    +0.000 HD
ENDROOT
BRANCH  11  26
ATOM     25  O   UNL     1      42.307  -0.908  -8.541  0.00  0.00    +0.000 OA
ATOM     26  C   UNL     1      41.223  -0.415  -8.826  0.00  0.00    +0.000 C 
BRANCH  26  27
ATOM     27  O   UNL     1      40.025  -1.050  -8.982  0.00  0.00    +0.000 OA
ATOM     28  C   UNL     1      39.874  -1.925 -10.068  0.00  0.00    +0.000 C 
ENDBRANCH  26  27
ENDBRANCH  11  26
BRANCH  12  30
ATOM     29  O   UNL     1      41.394   6.861  -8.007  0.00  0.00    +0.000 OA
ATOM     30  C   UNL     1      42.249   6.082  -8.412  0.00  0.00    +0.000 C 
BRANCH  30  31
ATOM     31  O   UNL     1      43.605   6.234  -8.387  0.00  0.00    +0.000 OA
ATOM     32  C   UNL     1      44.127   7.536  -8.428  0.00  0.00    +0.000 C 
ENDBRANCH  30  31
ENDBRANCH  12  30
TORSDOF 4
ENDMDL
MODEL 2
REMARK VINA RESULT:      -6.0      2.467      3.938
REMARK  Name = 5326018_Caulerpin.pdbqt.pdb
REMARK  4 active torsions:
REMARK  status: ('A' for Active; 'I' for Inactive)
REMARK    1  A    between atoms: C_11  and  C_26
REMARK    2  A    between atoms: C_12  and  C_30
REMARK    3  A    between atoms: C_26  and  O_27
REMARK    4  A    between atoms: C_30  and  O_31
REMARK                            x       y       z     vdW  Elec       q    Type
REMARK                         _______ _______ _______ _____ _____    ______ ____
ROOT
ATOM      1  N   UNL     1      36.759   4.819  -8.236  0.00  0.00    +0.000 N 
ATOM      2  N   UNL     1      43.037   3.214  -9.072  0.00  0.00    +0.000 N 
ATOM      3  C   UNL     1      38.851   5.513  -8.467  0.00  0.00    +0.000 C 
ATOM      4  C   UNL     1      41.009   2.569  -8.450  0.00  0.00    +0.000 C 
ATOM      5  C   UNL     1      38.072   4.410  -8.126  0.00  0.00    +0.000 C 
ATOM      6  C   UNL     1      41.811   3.689  -8.653  0.00  0.00    +0.000 C 
ATOM      7  C   UNL     1      38.002   6.617  -8.721  0.00  0.00    +0.000 A 
ATOM      8  C   UNL     1      41.777   1.402  -8.684  0.00  0.00    +0.000 A 
ATOM      9  C   UNL     1      36.696   6.156  -8.565  0.00  0.00    +0.000 A 
ATOM     10  C   UNL     1      43.046   1.834  -9.068  0.00  0.00    +0.000 A 
ATOM     11  C   UNL     1      38.415   3.052  -7.795  0.00  0.00    +0.000 C 
ATOM     12  C   UNL     1      41.536   5.100  -8.572  0.00  0.00    +0.000 C 
ATOM     13  C   UNL     1      39.629   2.661  -8.085  0.00  0.00    +0.000 C 
ATOM     14  C   UNL     1      40.278   5.457  -8.548  0.00  0.00    +0.000 C 
ATOM     15  C   UNL     1      38.211   7.960  -9.087  0.00  0.00    +0.000 A 
ATOM     16  C   UNL     1      41.518   0.020  -8.626  0.00  0.00    +0.000 A 
ATOM     17  C   UNL     1      35.576   6.975  -8.753  0.00  0.00    +0.000 A 
ATOM     18  C   UNL     1      44.080   0.950  -9.396  0.00  0.00    +0.000 A 
ATOM     19  C   UNL     1      37.105   8.792  -9.272  0.00  0.00    +0.000 A 
ATOM     20  C   UNL     1      42.540  -0.876  -8.944  0.00  0.00    +0.000 A 
ATOM     21  C   UNL     1      35.813   8.306  -9.106  0.00  0.00    +0.000 A 
ATOM     22  C   UNL     1      43.797  -0.415  -9.321  0.00  0.00    +0.000 A 
ATOM     23  H   UNL     1      35.934   4.246  -8.112  0.00  0.00    +0.000 HD
ATOM     24  H   UNL     1      43.835   3.766  -9.359  0.00  0.00    +0.000 HD
ENDROOT
BRANCH  11  26
ATOM     25  O   UNL     1      37.956   1.437  -6.091  0.00  0.00    +0.000 OA
ATOM     26  C   UNL     1      37.551   2.102  -7.037  0.00  0.00    +0.000 C 
BRANCH  26  27
ATOM     27  O   UNL     1      36.291   2.140  -7.560  0.00  0.00    +0.000 OA
ATOM     28  C   UNL     1      35.210   1.870  -6.708  0.00  0.00    +0.000 C 
ENDBRANCH  26  27
ENDBRANCH  11  26
BRANCH  12  30
ATOM     29  O   UNL     1      43.734   6.038  -8.697  0.00  0.00    +0.000 OA
ATOM     30  C   UNL     1      42.557   6.170  -8.382  0.00  0.00    +0.000 C 
BRANCH  30  31
ATOM     31  O   UNL     1      41.949   7.267  -7.843  0.00  0.00    +0.000 OA
ATOM     32  C   UNL     1      42.434   8.536  -8.198  0.00  0.00    +0.000 C 
ENDBRANCH  30  31
ENDBRANCH  12  30
TORSDOF 4
ENDMDL
MODEL 3
REMARK VINA RESULT:      -6.0      2.521      7.242
REMARK  Name = 5326018_Caulerpin.pdbqt.pdb
REMARK  4 active torsions:
REMARK  status: ('A' for Active; 'I' for Inactive)
REMARK    1  A    between atoms: C_11  and  C_26
REMARK    2  A    between atoms: C_12  and  C_30
REMARK    3  A    between atoms: C_26  and  O_27
REMARK    4  A    between atoms: C_30  and  O_31
REMARK                            x       y       z     vdW  Elec       q    Type
REMARK                         _______ _______ _______ _____ _____    ______ ____
ROOT
ATOM      1  N   UNL     1      43.303   3.033  -9.260  0.00  0.00    +0.000 N 
ATOM      2  N   UNL     1      37.075   4.796  -8.373  0.00  0.00    +0.000 N 
ATOM      3  C   UNL     1      41.279   2.459  -8.563  0.00  0.00    +0.000 C 
ATOM      4  C   UNL     1      39.174   5.439  -8.682  0.00  0.00    +0.000 C 
ATOM      5  C   UNL     1      42.097   3.553  -8.840  0.00  0.00    +0.000 C 
ATOM      6  C   UNL     1      38.383   4.369  -8.270  0.00  0.00    +0.000 C 
ATOM      7  C   UNL     1      42.021   1.268  -8.754  0.00  0.00    +0.000 A 
ATOM      8  C   UNL     1      38.339   6.544  -8.975  0.00  0.00    +0.000 A 
ATOM      9  C   UNL     1      43.289   1.657  -9.187  0.00  0.00    +0.000 A 
ATOM     10  C   UNL     1      37.028   6.117  -8.768  0.00  0.00    +0.000 A 
ATOM     11  C   UNL     1      41.848   4.970  -8.824  0.00  0.00    +0.000 C 
ATOM     12  C   UNL     1      38.710   3.023  -7.879  0.00  0.00    +0.000 C 
ATOM     13  C   UNL     1      40.597   5.352  -8.791  0.00  0.00    +0.000 C 
ATOM     14  C   UNL     1      39.910   2.595  -8.175  0.00  0.00    +0.000 C 
ATOM     15  C   UNL     1      41.739  -0.104  -8.621  0.00  0.00    +0.000 A 
ATOM     16  C   UNL     1      38.562   7.863  -9.412  0.00  0.00    +0.000 A 
ATOM     17  C   UNL     1      44.299   0.738  -9.491  0.00  0.00    +0.000 A 
ATOM     18  C   UNL     1      35.920   6.946  -8.973  0.00  0.00    +0.000 A 
ATOM     19  C   UNL     1      42.738  -1.034  -8.915  0.00  0.00    +0.000 A 
ATOM     20  C   UNL     1      37.468   8.706  -9.615  0.00  0.00    +0.000 A 
ATOM     21  C   UNL     1      43.995  -0.617  -9.341  0.00  0.00    +0.000 A 
ATOM     22  C   UNL     1      36.172   8.252  -9.397  0.00  0.00    +0.000 A 
ATOM     23  H   UNL     1      44.104   3.556  -9.592  0.00  0.00    +0.000 HD
ATOM     24  H   UNL     1      36.242   4.245  -8.202  0.00  0.00    +0.000 HD
ENDROOT
BRANCH  11  26
ATOM     25  O   UNL     1      42.849   6.926  -7.877  0.00  0.00    +0.000 OA
ATOM     26  C   UNL     1      42.892   6.029  -8.710  0.00  0.00    +0.000 C 
BRANCH  26  27
ATOM     27  O   UNL     1      43.857   5.798  -9.647  0.00  0.00    +0.000 OA
ATOM     28  C   UNL     1      43.682   6.340 -10.929  0.00  0.00    +0.000 C 
ENDBRANCH  26  27
ENDBRANCH  11  26
BRANCH  12  30
ATOM     29  O   UNL     1      38.247   1.543  -6.055  0.00  0.00    +0.000 OA
ATOM     30  C   UNL     1      37.846   2.128  -7.054  0.00  0.00    +0.000 C 
BRANCH  30  31
ATOM     31  O   UNL     1      36.591   2.114  -7.590  0.00  0.00    +0.000 OA
ATOM     32  C   UNL     1      35.512   1.811  -6.745  0.00  0.00    +0.000 C 
ENDBRANCH  30  31
ENDBRANCH  12  30
TORSDOF 4
ENDMDL
MODEL 4
REMARK VINA RESULT:      -5.7     32.655     33.443
REMARK  Name = 5326018_Caulerpin.pdbqt.pdb
REMARK  4 active torsions:
REMARK  status: ('A' for Active; 'I' for Inactive)
REMARK    1  A    between atoms: C_11  and  C_26
REMARK    2  A    between atoms: C_12  and  C_30
REMARK    3  A    between atoms: C_26  and  O_27
REMARK    4  A    between atoms: C_30  and  O_31
REMARK                            x       y       z     vdW  Elec       q    Type
REMARK                         _______ _______ _______ _____ _____    ______ ____
ROOT
ATOM      1  N   UNL     1      35.724   3.778  23.225  0.00  0.00    +0.000 N 
ATOM      2  N   UNL     1      32.571   9.261  21.586  0.00  0.00    +0.000 N 
ATOM      3  C   UNL     1      33.804   4.735  22.667  0.00  0.00    +0.000 C 
ATOM      4  C   UNL     1      34.358   8.340  22.520  0.00  0.00    +0.000 C 
ATOM      5  C   UNL     1      35.078   4.996  23.168  0.00  0.00    +0.000 C 
ATOM      6  C   UNL     1      33.039   8.093  22.151  0.00  0.00    +0.000 C 
ATOM      7  C   UNL     1      33.658   3.339  22.482  0.00  0.00    +0.000 A 
ATOM      8  C   UNL     1      34.672   9.692  22.236  0.00  0.00    +0.000 A 
ATOM      9  C   UNL     1      34.874   2.762  22.843  0.00  0.00    +0.000 A 
ATOM     10  C   UNL     1      33.532  10.248  21.656  0.00  0.00    +0.000 A 
ATOM     11  C   UNL     1      35.746   6.223  23.512  0.00  0.00    +0.000 C 
ATOM     12  C   UNL     1      32.231   6.902  22.202  0.00  0.00    +0.000 C 
ATOM     13  C   UNL     1      35.210   7.333  23.072  0.00  0.00    +0.000 C 
ATOM     14  C   UNL     1      32.857   5.769  22.386  0.00  0.00    +0.000 C 
ATOM     15  C   UNL     1      32.619   2.507  22.025  0.00  0.00    +0.000 A 
ATOM     16  C   UNL     1      35.814  10.497  22.398  0.00  0.00    +0.000 A 
ATOM     17  C   UNL     1      35.108   1.384  22.777  0.00  0.00    +0.000 A 
ATOM     18  C   UNL     1      33.474  11.579  21.228  0.00  0.00    +0.000 A 
ATOM     19  C   UNL     1      32.833   1.128  21.959  0.00  0.00    +0.000 A 
ATOM     20  C   UNL     1      35.771  11.828  21.982  0.00  0.00    +0.000 A 
ATOM     21  C   UNL     1      34.057   0.580  22.330  0.00  0.00    +0.000 A 
ATOM     22  C   UNL     1      34.619  12.357  21.409  0.00  0.00    +0.000 A 
ATOM     23  H   UNL     1      36.687   3.616  23.493  0.00  0.00    +0.000 HD
ATOM     24  H   UNL     1      31.664   9.409  21.162  0.00  0.00    +0.000 HD
ENDROOT
BRANCH  11  26
ATOM     25  O   UNL     1      36.868   6.937  25.501  0.00  0.00    +0.000 OA
ATOM     26  C   UNL     1      36.915   6.343  24.431  0.00  0.00    +0.000 C 
BRANCH  26  27
ATOM     27  O   UNL     1      37.974   5.678  23.884  0.00  0.00    +0.000 OA
ATOM     28  C   UNL     1      39.071   5.386  24.708  0.00  0.00    +0.000 C 
ENDBRANCH  26  27
ENDBRANCH  11  26
BRANCH  12  30
ATOM     29  O   UNL     1      30.092   5.925  21.754  0.00  0.00    +0.000 OA
ATOM     30  C   UNL     1      30.739   6.869  22.193  0.00  0.00    +0.000 C 
BRANCH  30  31
ATOM     31  O   UNL     1      30.270   8.019  22.759  0.00  0.00    +0.000 OA
ATOM     32  C   UNL     1      29.130   7.941  23.573  0.00  0.00    +0.000 C 
ENDBRANCH  30  31
ENDBRANCH  12  30
TORSDOF 4
ENDMDL
MODEL 5
REMARK VINA RESULT:      -5.6      3.963      8.190
REMARK  Name = 5326018_Caulerpin.pdbqt.pdb
REMARK  4 active torsions:
REMARK  status: ('A' for Active; 'I' for Inactive)
REMARK    1  A    between atoms: C_11  and  C_26
REMARK    2  A    between atoms: C_12  and  C_30
REMARK    3  A    between atoms: C_26  and  O_27
REMARK    4  A    between atoms: C_30  and  O_31
REMARK                            x       y       z     vdW  Elec       q    Type
REMARK                         _______ _______ _______ _____ _____    ______ ____
ROOT
ATOM      1  N   UNL     1      45.310  -1.483 -12.927  0.00  0.00    +0.000 N 
ATOM      2  N   UNL     1      40.023  -2.371  -9.193  0.00  0.00    +0.000 N 
ATOM      3  C   UNL     1      44.127  -0.820 -11.174  0.00  0.00    +0.000 C 
ATOM      4  C   UNL     1      41.020  -2.736 -11.139  0.00  0.00    +0.000 C 
ATOM      5  C   UNL     1      44.052  -1.541 -12.364  0.00  0.00    +0.000 C 
ATOM      6  C   UNL     1      41.029  -1.912 -10.017  0.00  0.00    +0.000 C 
ATOM      7  C   UNL     1      45.424  -0.267 -11.050  0.00  0.00    +0.000 A 
ATOM      8  C   UNL     1      39.955  -3.662 -11.022  0.00  0.00    +0.000 A 
ATOM      9  C   UNL     1      46.145  -0.694 -12.165  0.00  0.00    +0.000 A 
ATOM     10  C   UNL     1      39.342  -3.409  -9.796  0.00  0.00    +0.000 A 
ATOM     11  C   UNL     1      42.990  -2.307 -12.961  0.00  0.00    +0.000 C 
ATOM     12  C   UNL     1      41.896  -0.833  -9.620  0.00  0.00    +0.000 C 
ATOM     13  C   UNL     1      41.981  -2.622 -12.191  0.00  0.00    +0.000 C 
ATOM     14  C   UNL     1      43.032  -0.720 -10.260  0.00  0.00    +0.000 C 
ATOM     15  C   UNL     1      46.066   0.540 -10.093  0.00  0.00    +0.000 A 
ATOM     16  C   UNL     1      39.457  -4.704 -11.828  0.00  0.00    +0.000 A 
ATOM     17  C   UNL     1      47.484  -0.349 -12.378  0.00  0.00    +0.000 A 
ATOM     18  C   UNL     1      38.247  -4.145  -9.329  0.00  0.00    +0.000 A 
ATOM     19  C   UNL     1      47.401   0.899 -10.294  0.00  0.00    +0.000 A 
ATOM     20  C   UNL     1      38.362  -5.444 -11.381  0.00  0.00    +0.000 A 
ATOM     21  C   UNL     1      48.094   0.461 -11.417  0.00  0.00    +0.000 A 
ATOM     22  C   UNL     1      37.769  -5.166 -10.153  0.00  0.00    +0.000 A 
ATOM     23  H   UNL     1      45.617  -1.949 -13.771  0.00  0.00    +0.000 HD
ATOM     24  H   UNL     1      39.793  -2.030  -8.268  0.00  0.00    +0.000 HD
ENDROOT
BRANCH  11  26
ATOM     25  O   UNL     1      43.633  -2.198 -15.264  0.00  0.00    +0.000 OA
ATOM     26  C   UNL     1      42.885  -2.656 -14.408  0.00  0.00    +0.000 C 
BRANCH  26  27
ATOM     27  O   UNL     1      41.868  -3.551 -14.572  0.00  0.00    +0.000 OA
ATOM     28  C   UNL     1      41.880  -4.368 -15.712  0.00  0.00    +0.000 C 
ENDBRANCH  26  27
ENDBRANCH  11  26
BRANCH  12  30
ATOM     29  O   UNL     1      40.417   0.413  -8.209  0.00  0.00    +0.000 OA
ATOM     30  C   UNL     1      41.551   0.237  -8.639  0.00  0.00    +0.000 C 
BRANCH  30  31
ATOM     31  O   UNL     1      42.688   0.922  -8.319  0.00  0.00    +0.000 OA
ATOM     32  C   UNL     1      42.678   2.320  -8.446  0.00  0.00    +0.000 C 
ENDBRANCH  30  31
ENDBRANCH  12  30
TORSDOF 4
ENDMDL
MODEL 6
REMARK VINA RESULT:      -5.6      2.617      5.785
REMARK  Name = 5326018_Caulerpin.pdbqt.pdb
REMARK  4 active torsions:
REMARK  status: ('A' for Active; 'I' for Inactive)
REMARK    1  A    between atoms: C_11  and  C_26
REMARK    2  A    between atoms: C_12  and  C_30
REMARK    3  A    between atoms: C_26  and  O_27
REMARK    4  A    between atoms: C_30  and  O_31
REMARK                            x       y       z     vdW  Elec       q    Type
REMARK                         _______ _______ _______ _____ _____    ______ ____
ROOT
ATOM      1  N   UNL     1      39.840   7.455  -8.468  0.00  0.00    +0.000 N 
ATOM      2  N   UNL     1      39.903   0.922  -8.528  0.00  0.00    +0.000 N 
ATOM      3  C   UNL     1      38.674   5.573  -8.351  0.00  0.00    +0.000 C 
ATOM      4  C   UNL     1      40.957   2.806  -9.029  0.00  0.00    +0.000 C 
ATOM      5  C   UNL     1      39.889   6.110  -8.772  0.00  0.00    +0.000 C 
ATOM      6  C   UNL     1      39.705   2.270  -8.743  0.00  0.00    +0.000 C 
ATOM      7  C   UNL     1      37.858   6.615  -7.849  0.00  0.00    +0.000 A 
ATOM      8  C   UNL     1      41.913   1.762  -9.051  0.00  0.00    +0.000 A 
ATOM      9  C   UNL     1      38.611   7.786  -7.937  0.00  0.00    +0.000 A 
ATOM     10  C   UNL     1      41.225   0.590  -8.739  0.00  0.00    +0.000 A 
ATOM     11  C   UNL     1      41.067   5.505  -9.335  0.00  0.00    +0.000 C 
ATOM     12  C   UNL     1      38.409   2.878  -8.584  0.00  0.00    +0.000 C 
ATOM     13  C   UNL     1      41.172   4.206  -9.232  0.00  0.00    +0.000 C 
ATOM     14  C   UNL     1      38.379   4.176  -8.426  0.00  0.00    +0.000 C 
ATOM     15  C   UNL     1      36.560   6.680  -7.310  0.00  0.00    +0.000 A 
ATOM     16  C   UNL     1      43.298   1.693  -9.288  0.00  0.00    +0.000 A 
ATOM     17  C   UNL     1      38.128   9.030  -7.516  0.00  0.00    +0.000 A 
ATOM     18  C   UNL     1      41.853  -0.658  -8.654  0.00  0.00    +0.000 A 
ATOM     19  C   UNL     1      36.060   7.915  -6.891  0.00  0.00    +0.000 A 
ATOM     20  C   UNL     1      43.940   0.456  -9.214  0.00  0.00    +0.000 A 
ATOM     21  C   UNL     1      36.833   9.067  -6.994  0.00  0.00    +0.000 A 
ATOM     22  C   UNL     1      43.226  -0.697  -8.904  0.00  0.00    +0.000 A 
ATOM     23  H   UNL     1      40.583   8.131  -8.591  0.00  0.00    +0.000 HD
ATOM     24  H   UNL     1      39.206   0.244  -8.245  0.00  0.00    +0.000 HD
ENDROOT
BRANCH  11  26
ATOM     25  O   UNL     1      41.840   6.945 -11.083  0.00  0.00    +0.000 OA
ATOM     26  C   UNL     1      42.106   6.217 -10.134  0.00  0.00    +0.000 C 
BRANCH  26  27
ATOM     27  O   UNL     1      43.335   5.932  -9.613  0.00  0.00    +0.000 OA
ATOM     28  C   UNL     1      43.875   6.815  -8.666  0.00  0.00    +0.000 C 
ENDBRANCH  26  27
ENDBRANCH  11  26
BRANCH  12  30
ATOM     29  O   UNL     1      36.912   1.250  -9.501  0.00  0.00    +0.000 OA
ATOM     30  C   UNL     1      37.101   2.172  -8.716  0.00  0.00    +0.000 C 
BRANCH  30  31
ATOM     31  O   UNL     1      36.219   2.711  -7.824  0.00  0.00    +0.000 OA
ATOM     32  C   UNL     1      35.172   1.903  -7.356  0.00  0.00    +0.000 C 
ENDBRANCH  30  31
ENDBRANCH  12  30
TORSDOF 4
ENDMDL
MODEL 7
REMARK VINA RESULT:      -5.4     15.816     19.960
REMARK  Name = 5326018_Caulerpin.pdbqt.pdb
REMARK  4 active torsions:
REMARK  status: ('A' for Active; 'I' for Inactive)
REMARK    1  A    between atoms: C_11  and  C_26
REMARK    2  A    between atoms: C_12  and  C_30
REMARK    3  A    between atoms: C_26  and  O_27
REMARK    4  A    between atoms: C_30  and  O_31
REMARK                            x       y       z     vdW  Elec       q    Type
REMARK                         _______ _______ _______ _____ _____    ______ ____
ROOT
ATOM      1  N   UNL     1      37.320  18.262  -2.379  0.00  0.00    +0.000 N 
ATOM      2  N   UNL     1      33.724  17.899   3.064  0.00  0.00    +0.000 N 
ATOM      3  C   UNL     1      36.747  19.194  -0.452  0.00  0.00    +0.000 C 
ATOM      4  C   UNL     1      34.030  17.219   0.977  0.00  0.00    +0.000 C 
ATOM      5  C   UNL     1      36.340  18.267  -1.409  0.00  0.00    +0.000 C 
ATOM      6  C   UNL     1      34.344  18.233   1.877  0.00  0.00    +0.000 C 
ATOM      7  C   UNL     1      37.951  19.802  -0.881  0.00  0.00    +0.000 A 
ATOM      8  C   UNL     1      33.159  16.296   1.605  0.00  0.00    +0.000 A 
ATOM      9  C   UNL     1      38.287  19.203  -2.095  0.00  0.00    +0.000 A 
ATOM     10  C   UNL     1      32.980  16.748   2.912  0.00  0.00    +0.000 A 
ATOM     11  C   UNL     1      35.214  17.372  -1.466  0.00  0.00    +0.000 C 
ATOM     12  C   UNL     1      35.189  19.393   1.767  0.00  0.00    +0.000 C 
ATOM     13  C   UNL     1      34.561  17.170  -0.350  0.00  0.00    +0.000 C 
ATOM     14  C   UNL     1      36.024  19.424   0.760  0.00  0.00    +0.000 C 
ATOM     15  C   UNL     1      38.803  20.790  -0.352  0.00  0.00    +0.000 A 
ATOM     16  C   UNL     1      32.517  15.110   1.202  0.00  0.00    +0.000 A 
ATOM     17  C   UNL     1      39.435  19.546  -2.817  0.00  0.00    +0.000 A 
ATOM     18  C   UNL     1      32.182  16.075   3.844  0.00  0.00    +0.000 A 
ATOM     19  C   UNL     1      39.950  21.148  -1.063  0.00  0.00    +0.000 A 
ATOM     20  C   UNL     1      31.713  14.429   2.117  0.00  0.00    +0.000 A 
ATOM     21  C   UNL     1      40.257  20.535  -2.273  0.00  0.00    +0.000 A 
ATOM     22  C   UNL     1      31.549  14.906   3.414  0.00  0.00    +0.000 A 
ATOM     23  H   UNL     1      37.363  17.660  -3.192  0.00  0.00    +0.000 HD
ATOM     24  H   UNL     1      33.792  18.396   3.944  0.00  0.00    +0.000 HD
ENDROOT
BRANCH  11  26
ATOM     25  O   UNL     1      33.489  16.897  -3.054  0.00  0.00    +0.000 OA
ATOM     26  C   UNL     1      34.656  16.763  -2.708  0.00  0.00    +0.000 C 
BRANCH  26  27
ATOM     27  O   UNL     1      35.652  16.091  -3.354  0.00  0.00    +0.000 OA
ATOM     28  C   UNL     1      35.407  14.770  -3.760  0.00  0.00    +0.000 C 
ENDBRANCH  26  27
ENDBRANCH  11  26
BRANCH  12  30
ATOM     29  O   UNL     1      34.064  20.976   3.167  0.00  0.00    +0.000 OA
ATOM     30  C   UNL     1      35.100  20.612   2.623  0.00  0.00    +0.000 C 
BRANCH  30  31
ATOM     31  O   UNL     1      36.335  21.190   2.694  0.00  0.00    +0.000 OA
ATOM     32  C   UNL     1      37.091  20.997   3.860  0.00  0.00    +0.000 C 
ENDBRANCH  30  31
ENDBRANCH  12  30
TORSDOF 4
ENDMDL
MODEL 8
REMARK VINA RESULT:      -5.3      3.415      6.679
REMARK  Name = 5326018_Caulerpin.pdbqt.pdb
REMARK  4 active torsions:
REMARK  status: ('A' for Active; 'I' for Inactive)
REMARK    1  A    between atoms: C_11  and  C_26
REMARK    2  A    between atoms: C_12  and  C_30
REMARK    3  A    between atoms: C_26  and  O_27
REMARK    4  A    between atoms: C_30  and  O_31
REMARK                            x       y       z     vdW  Elec       q    Type
REMARK                         _______ _______ _______ _____ _____    ______ ____
ROOT
ATOM      1  N   UNL     1      41.816   9.438  -7.797  0.00  0.00    +0.000 N 
ATOM      2  N   UNL     1      39.269   3.458  -8.460  0.00  0.00    +0.000 N 
ATOM      3  C   UNL     1      39.998   8.201  -8.077  0.00  0.00    +0.000 C 
ATOM      4  C   UNL     1      41.069   4.747  -8.577  0.00  0.00    +0.000 C 
ATOM      5  C   UNL     1      41.385   8.195  -8.212  0.00  0.00    +0.000 C 
ATOM      6  C   UNL     1      39.677   4.770  -8.580  0.00  0.00    +0.000 C 
ATOM      7  C   UNL     1      39.582   9.481  -7.639  0.00  0.00    +0.000 A 
ATOM      8  C   UNL     1      41.508   3.402  -8.520  0.00  0.00    +0.000 A 
ATOM      9  C   UNL     1      40.741  10.239  -7.476  0.00  0.00    +0.000 A 
ATOM     10  C   UNL     1      40.360   2.613  -8.452  0.00  0.00    +0.000 A 
ATOM     11  C   UNL     1      42.311   7.165  -8.602  0.00  0.00    +0.000 C 
ATOM     12  C   UNL     1      38.731   5.855  -8.607  0.00  0.00    +0.000 C 
ATOM     13  C   UNL     1      41.863   5.936  -8.604  0.00  0.00    +0.000 C 
ATOM     14  C   UNL     1      39.191   7.049  -8.336  0.00  0.00    +0.000 C 
ATOM     15  C   UNL     1      38.338  10.069  -7.346  0.00  0.00    +0.000 A 
ATOM     16  C   UNL     1      42.766   2.772  -8.501  0.00  0.00    +0.000 A 
ATOM     17  C   UNL     1      40.721  11.568  -7.036  0.00  0.00    +0.000 A 
ATOM     18  C   UNL     1      40.404   1.217  -8.370  0.00  0.00    +0.000 A 
ATOM     19  C   UNL     1      38.299  11.396  -6.912  0.00  0.00    +0.000 A 
ATOM     20  C   UNL     1      42.828   1.380  -8.426  0.00  0.00    +0.000 A 
ATOM     21  C   UNL     1      39.472  12.129  -6.762  0.00  0.00    +0.000 A 
ATOM     22  C   UNL     1      41.666   0.619  -8.363  0.00  0.00    +0.000 A 
ATOM     23  H   UNL     1      42.775   9.750  -7.717  0.00  0.00    +0.000 HD
ATOM     24  H   UNL     1      38.317   3.123  -8.375  0.00  0.00    +0.000 HD
ENDROOT
BRANCH  11  26
ATOM     25  O   UNL     1      44.269   8.469  -9.035  0.00  0.00    +0.000 OA
ATOM     26  C   UNL     1      43.689   7.394  -9.124  0.00  0.00    +0.000 C 
BRANCH  26  27
ATOM     27  O   UNL     1      44.154   6.230  -9.665  0.00  0.00    +0.000 OA
ATOM     28  C   UNL     1      44.775   6.284 -10.922  0.00  0.00    +0.000 C 
ENDBRANCH  26  27
ENDBRANCH  11  26
BRANCH  12  30
ATOM     29  O   UNL     1      36.860   4.781  -9.646  0.00  0.00    +0.000 OA
ATOM     30  C   UNL     1      37.308   5.751  -9.045  0.00  0.00    +0.000 C 
BRANCH  30  31
ATOM     31  O   UNL     1      36.642   6.872  -8.644  0.00  0.00    +0.000 OA
ATOM     32  C   UNL     1      35.399   6.715  -8.010  0.00  0.00    +0.000 C 
ENDBRANCH  30  31
ENDBRANCH  12  30
TORSDOF 4
ENDMDL
MODEL 9
REMARK VINA RESULT:      -5.3     15.612     19.260
REMARK  Name = 5326018_Caulerpin.pdbqt.pdb
REMARK  4 active torsions:
REMARK  status: ('A' for Active; 'I' for Inactive)
REMARK    1  A    between atoms: C_11  and  C_26
REMARK    2  A    between atoms: C_12  and  C_30
REMARK    3  A    between atoms: C_26  and  O_27
REMARK    4  A    between atoms: C_30  and  O_31
REMARK                            x       y       z     vdW  Elec       q    Type
REMARK                         _______ _______ _______ _____ _____    ______ ____
ROOT
ATOM      1  N   UNL     1      35.050  16.300  -2.144  0.00  0.00    +0.000 N 
ATOM      2  N   UNL     1      38.902  20.942   0.367  0.00  0.00    +0.000 N 
ATOM      3  C   UNL     1      36.782  17.652  -2.437  0.00  0.00    +0.000 C 
ATOM      4  C   UNL     1      36.964  19.869   0.459  0.00  0.00    +0.000 C 
ATOM      5  C   UNL     1      35.634  17.457  -1.672  0.00  0.00    +0.000 C 
ATOM      6  C   UNL     1      38.040  20.161  -0.375  0.00  0.00    +0.000 C 
ATOM      7  C   UNL     1      36.857  16.640  -3.423  0.00  0.00    +0.000 A 
ATOM      8  C   UNL     1      37.146  20.532   1.696  0.00  0.00    +0.000 A 
ATOM      9  C   UNL     1      35.756  15.808  -3.221  0.00  0.00    +0.000 A 
ATOM     10  C   UNL     1      38.366  21.202   1.611  0.00  0.00    +0.000 A 
ATOM     11  C   UNL     1      35.093  18.171  -0.545  0.00  0.00    +0.000 C 
ATOM     12  C   UNL     1      38.365  19.740  -1.714  0.00  0.00    +0.000 C 
ATOM     13  C   UNL     1      35.893  19.006   0.067  0.00  0.00    +0.000 C 
ATOM     14  C   UNL     1      37.704  18.717  -2.189  0.00  0.00    +0.000 C 
ATOM     15  C   UNL     1      37.759  16.335  -4.458  0.00  0.00    +0.000 A 
ATOM     16  C   UNL     1      36.405  20.620   2.889  0.00  0.00    +0.000 A 
ATOM     17  C   UNL     1      35.506  14.679  -4.009  0.00  0.00    +0.000 A 
ATOM     18  C   UNL     1      38.886  21.964   2.662  0.00  0.00    +0.000 A 
ATOM     19  C   UNL     1      37.521  15.215  -5.259  0.00  0.00    +0.000 A 
ATOM     20  C   UNL     1      36.907  21.380   3.946  0.00  0.00    +0.000 A 
ATOM     21  C   UNL     1      36.412  14.405  -5.036  0.00  0.00    +0.000 A 
ATOM     22  C   UNL     1      38.126  22.041   3.831  0.00  0.00    +0.000 A 
ATOM     23  H   UNL     1      34.228  15.842  -1.773  0.00  0.00    +0.000 HD
ATOM     24  H   UNL     1      39.810  21.284   0.079  0.00  0.00    +0.000 HD
ENDROOT
BRANCH  11  26
ATOM     25  O   UNL     1      32.955  19.131  -0.063  0.00  0.00    +0.000 OA
ATOM     26  C   UNL     1      33.669  18.136  -0.102  0.00  0.00    +0.000 C 
BRANCH  26  27
ATOM     27  O   UNL     1      33.336  16.849   0.207  0.00  0.00    +0.000 OA
ATOM     28  C   UNL     1      33.610  16.386   1.502  0.00  0.00    +0.000 C 
ENDBRANCH  26  27
ENDBRANCH  11  26
BRANCH  12  30
ATOM     29  O   UNL     1      38.906  21.105  -3.604  0.00  0.00    +0.000 OA
ATOM     30  C   UNL     1      39.292  20.451  -2.642  0.00  0.00    +0.000 C 
BRANCH  30  31
ATOM     31  O   UNL     1      40.574  20.257  -2.217  0.00  0.00    +0.000 OA
ATOM     32  C   UNL     1      41.459  21.346  -2.259  0.00  0.00    +0.000 C 
ENDBRANCH  30  31
ENDBRANCH  12  30
TORSDOF 4
ENDMDL
