MODEL 1
REMARK VINA RESULT:      -4.0      0.000      0.000
REMARK  Name = 5350_Sulforaphane.pdbqt.pdb
REMARK  3 active torsions:
REMARK  status: ('A' for Active; 'I' for Inactive)
REMARK    1  A    between atoms: C_1  and  C_2
REMARK    2  A    between atoms: C_3  and  N_5
REMARK    3  A    between atoms: C_7  and  S_8
REMARK                            x       y       z     vdW  Elec       q    Type
REMARK                         _______ _______ _______ _____ _____    ______ ____
ROOT
ATOM      1  C   UNL     1      35.777  11.877  22.177  0.00  0.00    +0.000 C 
ATOM      2  C   UNL     1      35.619  10.401  22.559  0.00  0.00    +0.000 C 
ENDROOT
BRANCH   2   3
ATOM      3  S   UNL     1      35.440   8.705  23.002  0.00  0.00    +0.000 S 
ATOM      4  O   UNL     1      36.145   8.250  21.759  0.00  0.00    +0.000 OA
ATOM      5  C   UNL     1      33.861   8.565  22.236  0.00  0.00    +0.000 C 
ENDBRANCH   2   3
BRANCH   1   6
ATOM      6  C   UNL     1      35.937  13.350  21.793  0.00  0.00    +0.000 C 
ATOM      7  C   UNL     1      36.097  14.826  21.408  0.00  0.00    +0.000 C 
BRANCH   7   9
ATOM      8  S   UNL     1      38.300  16.515  19.289  0.00  0.00    +0.000 S 
ATOM      9  N   UNL     1      36.227  16.119  21.079  0.00  0.00    +0.000 NA
ATOM     10  C   UNL     1      37.110  16.266  20.320  0.00  0.00    +0.000 C 
ENDBRANCH   7   9
ENDBRANCH   1   6
TORSDOF 3
ENDMDL
MODEL 2
REMARK VINA RESULT:      -3.6     13.396     15.124
REMARK  Name = 5350_Sulforaphane.pdbqt.pdb
REMARK  3 active torsions:
REMARK  status: ('A' for Active; 'I' for Inactive)
REMARK    1  A    between atoms: C_1  and  C_2
REMARK    2  A    between atoms: C_3  and  N_5
REMARK    3  A    between atoms: C_7  and  S_8
REMARK                            x       y       z     vdW  Elec       q    Type
REMARK                         _______ _______ _______ _____ _____    ______ ____
ROOT
ATOM      1  C   UNL     1      40.500   0.266  14.333  0.00  0.00    +0.000 C 
ATOM      2  C   UNL     1      41.132  -0.424  13.119  0.00  0.00    +0.000 C 
ENDROOT
BRANCH   2   3
ATOM      3  S   UNL     1      41.860  -1.213  11.722  0.00  0.00    +0.000 S 
ATOM      4  O   UNL     1      40.580  -1.916  11.382  0.00  0.00    +0.000 OA
ATOM      5  C   UNL     1      42.438  -2.582  12.666  0.00  0.00    +0.000 C 
ENDBRANCH   2   3
BRANCH   1   6
ATOM      6  C   UNL     1      39.866   0.955  15.544  0.00  0.00    +0.000 C 
ATOM      7  C   UNL     1      39.231   1.646  16.757  0.00  0.00    +0.000 C 
BRANCH   7   9
ATOM      8  S   UNL     1      40.282   1.991  20.070  0.00  0.00    +0.000 S 
ATOM      9  N   UNL     1      38.688   2.251  17.822  0.00  0.00    +0.000 NA
ATOM     10  C   UNL     1      39.378   2.130  18.764  0.00  0.00    +0.000 C 
ENDBRANCH   7   9
ENDBRANCH   1   6
TORSDOF 3
ENDMDL
MODEL 3
REMARK VINA RESULT:      -3.2     24.081     24.389
REMARK  Name = 5350_Sulforaphane.pdbqt.pdb
REMARK  3 active torsions:
REMARK  status: ('A' for Active; 'I' for Inactive)
REMARK    1  A    between atoms: C_1  and  C_2
REMARK    2  A    between atoms: C_3  and  N_5
REMARK    3  A    between atoms: C_7  and  S_8
REMARK                            x       y       z     vdW  Elec       q    Type
REMARK                         _______ _______ _______ _____ _____    ______ ____
ROOT
ATOM      1  C   UNL     1      50.131   0.299   5.511  0.00  0.00    +0.000 C 
ATOM      2  C   UNL     1      50.690  -0.341   4.235  0.00  0.00    +0.000 C 
ENDROOT
BRANCH   2   3
ATOM      3  S   UNL     1      51.332  -1.081   2.771  0.00  0.00    +0.000 S 
ATOM      4  O   UNL     1      49.979  -1.589   2.369  0.00  0.00    +0.000 OA
ATOM      5  C   UNL     1      51.729  -2.592   3.584  0.00  0.00    +0.000 C 
ENDBRANCH   2   3
BRANCH   1   6
ATOM      6  C   UNL     1      49.576   0.940   6.786  0.00  0.00    +0.000 C 
ATOM      7  C   UNL     1      49.020   1.581   8.063  0.00  0.00    +0.000 C 
BRANCH   7   9
ATOM      8  S   UNL     1      50.560   2.636  11.014  0.00  0.00    +0.000 S 
ATOM      9  N   UNL     1      48.545   2.148   9.180  0.00  0.00    +0.000 NA
ATOM     10  C   UNL     1      49.414   2.347   9.944  0.00  0.00    +0.000 C 
ENDBRANCH   7   9
ENDBRANCH   1   6
TORSDOF 3
ENDMDL
MODEL 4
REMARK VINA RESULT:      -2.9     32.379     32.930
REMARK  Name = 5350_Sulforaphane.pdbqt.pdb
REMARK  3 active torsions:
REMARK  status: ('A' for Active; 'I' for Inactive)
REMARK    1  A    between atoms: C_1  and  C_2
REMARK    2  A    between atoms: C_3  and  N_5
REMARK    3  A    between atoms: C_7  and  S_8
REMARK                            x       y       z     vdW  Elec       q    Type
REMARK                         _______ _______ _______ _____ _____    ______ ____
ROOT
ATOM      1  C   UNL     1      45.841  -8.255  -1.286  0.00  0.00    +0.000 C 
ATOM      2  C   UNL     1      44.554  -8.621  -2.032  0.00  0.00    +0.000 C 
ENDROOT
BRANCH   2   3
ATOM      3  S   UNL     1      43.076  -9.045  -2.892  0.00  0.00    +0.000 S 
ATOM      4  O   UNL     1      42.618  -9.937  -1.776  0.00  0.00    +0.000 OA
ATOM      5  C   UNL     1      43.833 -10.388  -3.743  0.00  0.00    +0.000 C 
ENDBRANCH   2   3
BRANCH   1   6
ATOM      6  C   UNL     1      47.129  -7.887  -0.543  0.00  0.00    +0.000 C 
ATOM      7  C   UNL     1      48.418  -7.519   0.202  0.00  0.00    +0.000 C 
BRANCH   7   9
ATOM      8  S   UNL     1      51.495  -9.127   0.578  0.00  0.00    +0.000 S 
ATOM      9  N   UNL     1      49.537  -7.192   0.862  0.00  0.00    +0.000 NA
ATOM     10  C   UNL     1      50.354  -8.024   0.729  0.00  0.00    +0.000 C 
ENDBRANCH   7   9
ENDBRANCH   1   6
TORSDOF 3
ENDMDL
MODEL 5
REMARK VINA RESULT:      -2.8     32.733     33.079
REMARK  Name = 5350_Sulforaphane.pdbqt.pdb
REMARK  3 active torsions:
REMARK  status: ('A' for Active; 'I' for Inactive)
REMARK    1  A    between atoms: C_1  and  C_2
REMARK    2  A    between atoms: C_3  and  N_5
REMARK    3  A    between atoms: C_7  and  S_8
REMARK                            x       y       z     vdW  Elec       q    Type
REMARK                         _______ _______ _______ _____ _____    ______ ____
ROOT
ATOM      1  C   UNL     1      47.265  -8.523  -0.746  0.00  0.00    +0.000 C 
ATOM      2  C   UNL     1      48.663  -8.328  -0.149  0.00  0.00    +0.000 C 
ENDROOT
BRANCH   2   3
ATOM      3  S   UNL     1      50.269  -8.106   0.541  0.00  0.00    +0.000 S 
ATOM      4  O   UNL     1      49.780  -7.037   1.473  0.00  0.00    +0.000 OA
ATOM      5  C   UNL     1      50.740  -6.923  -0.674  0.00  0.00    +0.000 C 
ENDBRANCH   2   3
BRANCH   1   6
ATOM      6  C   UNL     1      45.868  -8.714  -1.342  0.00  0.00    +0.000 C 
ATOM      7  C   UNL     1      44.469  -8.906  -1.939  0.00  0.00    +0.000 C 
BRANCH   7   9
ATOM      8  S   UNL     1      41.843 -11.092  -1.217  0.00  0.00    +0.000 S 
ATOM      9  N   UNL     1      43.249  -9.065  -2.471  0.00  0.00    +0.000 NA
ATOM     10  C   UNL     1      42.669  -9.927  -1.926  0.00  0.00    +0.000 C 
ENDBRANCH   7   9
ENDBRANCH   1   6
TORSDOF 3
ENDMDL
MODEL 6
REMARK VINA RESULT:      -2.8     17.503     19.606
REMARK  Name = 5350_Sulforaphane.pdbqt.pdb
REMARK  3 active torsions:
REMARK  status: ('A' for Active; 'I' for Inactive)
REMARK    1  A    between atoms: C_1  and  C_2
REMARK    2  A    between atoms: C_3  and  N_5
REMARK    3  A    between atoms: C_7  and  S_8
REMARK                            x       y       z     vdW  Elec       q    Type
REMARK                         _______ _______ _______ _____ _____    ______ ____
ROOT
ATOM      1  C   UNL     1      28.737  -1.090  12.330  0.00  0.00    +0.000 C 
ATOM      2  C   UNL     1      28.378  -0.366  13.632  0.00  0.00    +0.000 C 
ENDROOT
BRANCH   2   3
ATOM      3  S   UNL     1      27.961   0.468  15.127  0.00  0.00    +0.000 S 
ATOM      4  O   UNL     1      28.990  -0.297  15.905  0.00  0.00    +0.000 OA
ATOM      5  C   UNL     1      26.696  -0.685  15.540  0.00  0.00    +0.000 C 
ENDBRANCH   2   3
BRANCH   1   6
ATOM      6  C   UNL     1      29.099  -1.811  11.029  0.00  0.00    +0.000 C 
ATOM      7  C   UNL     1      29.462  -2.533   9.726  0.00  0.00    +0.000 C 
BRANCH   7   9
ATOM      8  S   UNL     1      29.244  -5.877   8.740  0.00  0.00    +0.000 S 
ATOM      9  N   UNL     1      29.766  -3.163   8.583  0.00  0.00    +0.000 NA
ATOM     10  C   UNL     1      29.537  -4.311   8.670  0.00  0.00    +0.000 C 
ENDBRANCH   7   9
ENDBRANCH   1   6
TORSDOF 3
ENDMDL
MODEL 7
REMARK VINA RESULT:      -2.8     16.701     18.264
REMARK  Name = 5350_Sulforaphane.pdbqt.pdb
REMARK  3 active torsions:
REMARK  status: ('A' for Active; 'I' for Inactive)
REMARK    1  A    between atoms: C_1  and  C_2
REMARK    2  A    between atoms: C_3  and  N_5
REMARK    3  A    between atoms: C_7  and  S_8
REMARK                            x       y       z     vdW  Elec       q    Type
REMARK                         _______ _______ _______ _____ _____    ______ ____
ROOT
ATOM      1  C   UNL     1      28.746  -1.301  12.373  0.00  0.00    +0.000 C 
ATOM      2  C   UNL     1      29.105  -1.873  10.998  0.00  0.00    +0.000 C 
ENDROOT
BRANCH   2   3
ATOM      3  S   UNL     1      29.513  -2.531   9.415  0.00  0.00    +0.000 S 
ATOM      4  O   UNL     1      30.974  -2.579   9.751  0.00  0.00    +0.000 OA
ATOM      5  C   UNL     1      29.667  -0.939   8.679  0.00  0.00    +0.000 C 
ENDBRANCH   2   3
BRANCH   1   6
ATOM      6  C   UNL     1      28.388  -0.732  13.749  0.00  0.00    +0.000 C 
ATOM      7  C   UNL     1      28.029  -0.163  15.127  0.00  0.00    +0.000 C 
BRANCH   7   9
ATOM      8  S   UNL     1      25.190   1.494  16.306  0.00  0.00    +0.000 S 
ATOM      9  N   UNL     1      27.706   0.343  16.325  0.00  0.00    +0.000 NA
ATOM     10  C   UNL     1      26.637   0.826  16.296  0.00  0.00    +0.000 C 
ENDBRANCH   7   9
ENDBRANCH   1   6
TORSDOF 3
ENDMDL
MODEL 8
REMARK VINA RESULT:      -2.7     24.121     24.409
REMARK  Name = 5350_Sulforaphane.pdbqt.pdb
REMARK  3 active torsions:
REMARK  status: ('A' for Active; 'I' for Inactive)
REMARK    1  A    between atoms: C_1  and  C_2
REMARK    2  A    between atoms: C_3  and  N_5
REMARK    3  A    between atoms: C_7  and  S_8
REMARK                            x       y       z     vdW  Elec       q    Type
REMARK                         _______ _______ _______ _____ _____    ______ ____
ROOT
ATOM      1  C   UNL     1      49.845   1.060   6.924  0.00  0.00    +0.000 C 
ATOM      2  C   UNL     1      49.590   1.634   8.322  0.00  0.00    +0.000 C 
ENDROOT
BRANCH   2   3
ATOM      3  S   UNL     1      49.294   2.291   9.930  0.00  0.00    +0.000 S 
ATOM      4  O   UNL     1      50.756   2.278  10.265  0.00  0.00    +0.000 OA
ATOM      5  C   UNL     1      49.048   0.702  10.647  0.00  0.00    +0.000 C 
ENDBRANCH   2   3
BRANCH   1   6
ATOM      6  C   UNL     1      50.098   0.489   5.526  0.00  0.00    +0.000 C 
ATOM      7  C   UNL     1      50.352  -0.083   4.126  0.00  0.00    +0.000 C 
BRANCH   7   9
ATOM      8  S   UNL     1      52.547   0.842   1.572  0.00  0.00    +0.000 S 
ATOM      9  N   UNL     1      50.586  -0.585   2.906  0.00  0.00    +0.000 NA
ATOM     10  C   UNL     1      51.419   0.033   2.358  0.00  0.00    +0.000 C 
ENDBRANCH   7   9
ENDBRANCH   1   6
TORSDOF 3
ENDMDL
MODEL 9
REMARK VINA RESULT:      -2.7     15.537     17.977
REMARK  Name = 5350_Sulforaphane.pdbqt.pdb
REMARK  3 active torsions:
REMARK  status: ('A' for Active; 'I' for Inactive)
REMARK    1  A    between atoms: C_1  and  C_2
REMARK    2  A    between atoms: C_3  and  N_5
REMARK    3  A    between atoms: C_7  and  S_8
REMARK                            x       y       z     vdW  Elec       q    Type
REMARK                         _______ _______ _______ _____ _____    ______ ____
ROOT
ATOM      1  C   UNL     1      28.697  -1.069  12.468  0.00  0.00    +0.000 C 
ATOM      2  C   UNL     1      28.874  -1.932  11.214  0.00  0.00    +0.000 C 
ENDROOT
BRANCH   2   3
ATOM      3  S   UNL     1      29.076  -2.926   9.773  0.00  0.00    +0.000 S 
ATOM      4  O   UNL     1      28.892  -1.746   8.866  0.00  0.00    +0.000 OA
ATOM      5  C   UNL     1      27.366  -3.338   9.692  0.00  0.00    +0.000 C 
ENDBRANCH   2   3
BRANCH   1   6
ATOM      6  C   UNL     1      28.522  -0.208  13.722  0.00  0.00    +0.000 C 
ATOM      7  C   UNL     1      28.347   0.654  14.978  0.00  0.00    +0.000 C 
BRANCH   7   9
ATOM      8  S   UNL     1      29.265   0.146  18.309  0.00  0.00    +0.000 S 
ATOM      9  N   UNL     1      28.201   1.399  16.082  0.00  0.00    +0.000 NA
ATOM     10  C   UNL     1      28.658   0.851  17.014  0.00  0.00    +0.000 C 
ENDBRANCH   7   9
ENDBRANCH   1   6
TORSDOF 3
ENDMDL
