MODEL 1
REMARK VINA RESULT:      -5.6      0.000      0.000
REMARK  Name = 5357283_Methylferulate.pdbqt.pdb
REMARK  5 active torsions:
REMARK  status: ('A' for Active; 'I' for Inactive)
REMARK    1  A    between atoms: C_1  and  C_11
REMARK    2  A    between atoms: C_2  and  O_7
REMARK    3  A    between atoms: C_5  and  O_9
REMARK    4  A    between atoms: C_12  and  C_14
REMARK    5  A    between atoms: C_14  and  O_15
REMARK                            x       y       z     vdW  Elec       q    Type
REMARK                         _______ _______ _______ _____ _____    ______ ____
ROOT
ATOM      1  C   UNL     1      37.048  16.099  20.228  0.00  0.00    +0.000 A 
ATOM      2  C   UNL     1      36.903  18.513  20.043  0.00  0.00    +0.000 A 
ATOM      3  C   UNL     1      36.373  17.294  20.476  0.00  0.00    +0.000 A 
ATOM      4  C   UNL     1      38.261  16.111  19.543  0.00  0.00    +0.000 A 
ATOM      5  C   UNL     1      38.121  18.509  19.358  0.00  0.00    +0.000 A 
ATOM      6  C   UNL     1      38.799  17.317  19.107  0.00  0.00    +0.000 A 
ENDROOT
BRANCH   2   7
ATOM      7  O   UNL     1      36.304  19.733  20.246  0.00  0.00    +0.000 OA
ATOM      8  C   UNL     1      35.416  19.794  21.331  0.00  0.00    +0.000 C 
ENDBRANCH   2   7
BRANCH   5   9
ATOM      9  O   UNL     1      38.657  19.692  18.927  0.00  0.00    +0.000 OA
ATOM     10  H   UNL     1      38.162  20.427  19.334  0.00  0.00    +0.000 HD
ENDBRANCH   5   9
BRANCH   1  11
ATOM     11  C   UNL     1      36.492  14.865  20.676  0.00  0.00    +0.000 C 
ATOM     12  C   UNL     1      36.024  13.823  21.052  0.00  0.00    +0.000 C 
BRANCH  12  14
ATOM     13  O   UNL     1      35.907  11.515  21.074  0.00  0.00    +0.000 OA
ATOM     14  C   UNL     1      35.459  12.571  21.500  0.00  0.00    +0.000 C 
BRANCH  14  15
ATOM     15  O   UNL     1      34.444  12.778  22.390  0.00  0.00    +0.000 OA
ATOM     16  C   UNL     1      34.773  13.295  23.655  0.00  0.00    +0.000 C 
ENDBRANCH  14  15
ENDBRANCH  12  14
ENDBRANCH   1  11
TORSDOF 5
ENDMDL
MODEL 2
REMARK VINA RESULT:      -5.3     19.097     21.712
REMARK  Name = 5357283_Methylferulate.pdbqt.pdb
REMARK  5 active torsions:
REMARK  status: ('A' for Active; 'I' for Inactive)
REMARK    1  A    between atoms: C_1  and  C_11
REMARK    2  A    between atoms: C_2  and  O_7
REMARK    3  A    between atoms: C_5  and  O_9
REMARK    4  A    between atoms: C_12  and  C_14
REMARK    5  A    between atoms: C_14  and  O_15
REMARK                            x       y       z     vdW  Elec       q    Type
REMARK                         _______ _______ _______ _____ _____    ______ ____
ROOT
ATOM      1  C   UNL     1      42.076  -3.056  13.011  0.00  0.00    +0.000 A 
ATOM      2  C   UNL     1      41.974  -0.793  13.876  0.00  0.00    +0.000 A 
ATOM      3  C   UNL     1      42.444  -2.106  13.963  0.00  0.00    +0.000 A 
ATOM      4  C   UNL     1      41.233  -2.701  11.960  0.00  0.00    +0.000 A 
ATOM      5  C   UNL     1      41.130  -0.451  12.817  0.00  0.00    +0.000 A 
ATOM      6  C   UNL     1      40.758  -1.397  11.862  0.00  0.00    +0.000 A 
ENDROOT
BRANCH   2   7
ATOM      7  O   UNL     1      42.288   0.202  14.771  0.00  0.00    +0.000 OA
ATOM      8  C   UNL     1      42.500  -0.221  16.092  0.00  0.00    +0.000 C 
ENDBRANCH   2   7
BRANCH   5   9
ATOM      9  O   UNL     1      40.660   0.830  12.713  0.00  0.00    +0.000 OA
ATOM     10  H   UNL     1      41.402   1.447  12.851  0.00  0.00    +0.000 HD
ENDBRANCH   5   9
BRANCH   1  11
ATOM     11  C   UNL     1      42.564  -4.391  13.116  0.00  0.00    +0.000 C 
ATOM     12  C   UNL     1      42.973  -5.518  13.204  0.00  0.00    +0.000 C 
BRANCH  12  14
ATOM     13  O   UNL     1      42.727  -7.810  13.032  0.00  0.00    +0.000 OA
ATOM     14  C   UNL     1      43.463  -6.873  13.314  0.00  0.00    +0.000 C 
BRANCH  14  15
ATOM     15  O   UNL     1      44.758  -6.897  13.746  0.00  0.00    +0.000 OA
ATOM     16  C   UNL     1      45.747  -7.308  12.836  0.00  0.00    +0.000 C 
ENDBRANCH  14  15
ENDBRANCH  12  14
ENDBRANCH   1  11
TORSDOF 5
ENDMDL
MODEL 3
REMARK VINA RESULT:      -5.0      2.887      3.477
REMARK  Name = 5357283_Methylferulate.pdbqt.pdb
REMARK  5 active torsions:
REMARK  status: ('A' for Active; 'I' for Inactive)
REMARK    1  A    between atoms: C_1  and  C_11
REMARK    2  A    between atoms: C_2  and  O_7
REMARK    3  A    between atoms: C_5  and  O_9
REMARK    4  A    between atoms: C_12  and  C_14
REMARK    5  A    between atoms: C_14  and  O_15
REMARK                            x       y       z     vdW  Elec       q    Type
REMARK                         _______ _______ _______ _____ _____    ______ ____
ROOT
ATOM      1  C   UNL     1      35.909  16.814  19.872  0.00  0.00    +0.000 A 
ATOM      2  C   UNL     1      37.518  18.477  19.149  0.00  0.00    +0.000 A 
ATOM      3  C   UNL     1      36.195  18.062  19.321  0.00  0.00    +0.000 A 
ATOM      4  C   UNL     1      36.945  15.966  20.258  0.00  0.00    +0.000 A 
ATOM      5  C   UNL     1      38.547  17.617  19.541  0.00  0.00    +0.000 A 
ATOM      6  C   UNL     1      38.267  16.368  20.093  0.00  0.00    +0.000 A 
ENDROOT
BRANCH   2   7
ATOM      7  O   UNL     1      37.886  19.689  18.615  0.00  0.00    +0.000 OA
ATOM      8  C   UNL     1      37.636  20.806  19.428  0.00  0.00    +0.000 C 
ENDBRANCH   2   7
BRANCH   5   9
ATOM      9  O   UNL     1      39.850  18.006  19.382  0.00  0.00    +0.000 OA
ATOM     10  H   UNL     1      40.106  17.869  18.452  0.00  0.00    +0.000 HD
ENDBRANCH   5   9
BRANCH   1  11
ATOM     11  C   UNL     1      34.553  16.406  20.039  0.00  0.00    +0.000 C 
ATOM     12  C   UNL     1      33.409  16.060  20.179  0.00  0.00    +0.000 C 
BRANCH  12  14
ATOM     13  O   UNL     1      31.771  14.707  21.087  0.00  0.00    +0.000 OA
ATOM     14  C   UNL     1      32.037  15.643  20.344  0.00  0.00    +0.000 C 
BRANCH  14  15
ATOM     15  O   UNL     1      31.193  16.411  19.593  0.00  0.00    +0.000 OA
ATOM     16  C   UNL     1      31.241  16.267  18.196  0.00  0.00    +0.000 C 
ENDBRANCH  14  15
ENDBRANCH  12  14
ENDBRANCH   1  11
TORSDOF 5
ENDMDL
MODEL 4
REMARK VINA RESULT:      -5.0     18.664     21.306
REMARK  Name = 5357283_Methylferulate.pdbqt.pdb
REMARK  5 active torsions:
REMARK  status: ('A' for Active; 'I' for Inactive)
REMARK    1  A    between atoms: C_1  and  C_11
REMARK    2  A    between atoms: C_2  and  O_7
REMARK    3  A    between atoms: C_5  and  O_9
REMARK    4  A    between atoms: C_12  and  C_14
REMARK    5  A    between atoms: C_14  and  O_15
REMARK                            x       y       z     vdW  Elec       q    Type
REMARK                         _______ _______ _______ _____ _____    ______ ____
ROOT
ATOM      1  C   UNL     1      42.627  -2.702  14.272  0.00  0.00    +0.000 A 
ATOM      2  C   UNL     1      41.648  -0.518  13.878  0.00  0.00    +0.000 A 
ATOM      3  C   UNL     1      41.918  -1.823  13.454  0.00  0.00    +0.000 A 
ATOM      4  C   UNL     1      43.074  -2.285  15.524  0.00  0.00    +0.000 A 
ATOM      5  C   UNL     1      42.102  -0.114  15.136  0.00  0.00    +0.000 A 
ATOM      6  C   UNL     1      42.812  -0.989  15.958  0.00  0.00    +0.000 A 
ENDROOT
BRANCH   2   7
ATOM      7  O   UNL     1      40.957   0.409  13.136  0.00  0.00    +0.000 OA
ATOM      8  C   UNL     1      39.560   0.270  13.148  0.00  0.00    +0.000 C 
ENDBRANCH   2   7
BRANCH   5   9
ATOM      9  O   UNL     1      41.846   1.158  15.570  0.00  0.00    +0.000 OA
ATOM     10  H   UNL     1      40.892   1.333  15.480  0.00  0.00    +0.000 HD
ENDBRANCH   5   9
BRANCH   1  11
ATOM     11  C   UNL     1      42.895  -4.028  13.823  0.00  0.00    +0.000 C 
ATOM     12  C   UNL     1      43.119  -5.147  13.444  0.00  0.00    +0.000 C 
BRANCH  12  14
ATOM     13  O   UNL     1      42.461  -7.285  12.863  0.00  0.00    +0.000 OA
ATOM     14  C   UNL     1      43.386  -6.492  12.991  0.00  0.00    +0.000 C 
BRANCH  14  15
ATOM     15  O   UNL     1      44.718  -6.682  12.761  0.00  0.00    +0.000 OA
ATOM     16  C   UNL     1      45.266  -7.940  13.064  0.00  0.00    +0.000 C 
ENDBRANCH  14  15
ENDBRANCH  12  14
ENDBRANCH   1  11
TORSDOF 5
ENDMDL
MODEL 5
REMARK VINA RESULT:      -5.0      1.621      6.282
REMARK  Name = 5357283_Methylferulate.pdbqt.pdb
REMARK  5 active torsions:
REMARK  status: ('A' for Active; 'I' for Inactive)
REMARK    1  A    between atoms: C_1  and  C_11
REMARK    2  A    between atoms: C_2  and  O_7
REMARK    3  A    between atoms: C_5  and  O_9
REMARK    4  A    between atoms: C_12  and  C_14
REMARK    5  A    between atoms: C_14  and  O_15
REMARK                            x       y       z     vdW  Elec       q    Type
REMARK                         _______ _______ _______ _____ _____    ______ ____
ROOT
ATOM      1  C   UNL     1      35.987  14.514  21.029  0.00  0.00    +0.000 A 
ATOM      2  C   UNL     1      34.287  13.800  22.605  0.00  0.00    +0.000 A 
ATOM      3  C   UNL     1      35.036  14.816  22.004  0.00  0.00    +0.000 A 
ATOM      4  C   UNL     1      36.197  13.192  20.644  0.00  0.00    +0.000 A 
ATOM      5  C   UNL     1      34.509  12.479  22.208  0.00  0.00    +0.000 A 
ATOM      6  C   UNL     1      35.458  12.172  21.234  0.00  0.00    +0.000 A 
ENDROOT
BRANCH   2   7
ATOM      7  O   UNL     1      33.332  14.011  23.571  0.00  0.00    +0.000 OA
ATOM      8  C   UNL     1      33.822  14.418  24.822  0.00  0.00    +0.000 C 
ENDBRANCH   2   7
BRANCH   5   9
ATOM      9  O   UNL     1      33.784  11.470  22.783  0.00  0.00    +0.000 OA
ATOM     10  H   UNL     1      33.064  11.217  22.177  0.00  0.00    +0.000 HD
ENDBRANCH   5   9
BRANCH   1  11
ATOM     11  C   UNL     1      36.743  15.563  20.428  0.00  0.00    +0.000 C 
ATOM     12  C   UNL     1      37.383  16.446  19.922  0.00  0.00    +0.000 C 
BRANCH  12  14
ATOM     13  O   UNL     1      39.346  17.350  19.106  0.00  0.00    +0.000 OA
ATOM     14  C   UNL     1      38.152  17.510  19.319  0.00  0.00    +0.000 C 
BRANCH  14  15
ATOM     15  O   UNL     1      37.371  18.600  19.064  0.00  0.00    +0.000 OA
ATOM     16  C   UNL     1      37.999  19.855  18.983  0.00  0.00    +0.000 C 
ENDBRANCH  14  15
ENDBRANCH  12  14
ENDBRANCH   1  11
TORSDOF 5
ENDMDL
MODEL 6
REMARK VINA RESULT:      -4.9     17.584     20.232
REMARK  Name = 5357283_Methylferulate.pdbqt.pdb
REMARK  5 active torsions:
REMARK  status: ('A' for Active; 'I' for Inactive)
REMARK    1  A    between atoms: C_1  and  C_11
REMARK    2  A    between atoms: C_2  and  O_7
REMARK    3  A    between atoms: C_5  and  O_9
REMARK    4  A    between atoms: C_12  and  C_14
REMARK    5  A    between atoms: C_14  and  O_15
REMARK                            x       y       z     vdW  Elec       q    Type
REMARK                         _______ _______ _______ _____ _____    ______ ____
ROOT
ATOM      1  C   UNL     1      42.673  -1.958  14.122  0.00  0.00    +0.000 A 
ATOM      2  C   UNL     1      41.177  -0.050  14.072  0.00  0.00    +0.000 A 
ATOM      3  C   UNL     1      42.121  -0.836  14.739  0.00  0.00    +0.000 A 
ATOM      4  C   UNL     1      42.286  -2.306  12.830  0.00  0.00    +0.000 A 
ATOM      5  C   UNL     1      40.799  -0.411  12.776  0.00  0.00    +0.000 A 
ATOM      6  C   UNL     1      41.348  -1.532  12.155  0.00  0.00    +0.000 A 
ENDROOT
BRANCH   2   7
ATOM      7  O   UNL     1      40.585   1.070  14.606  0.00  0.00    +0.000 OA
ATOM      8  C   UNL     1      40.219   0.970  15.957  0.00  0.00    +0.000 C 
ENDBRANCH   2   7
BRANCH   5   9
ATOM      9  O   UNL     1      39.876   0.346  12.106  0.00  0.00    +0.000 OA
ATOM     10  H   UNL     1      40.346   0.931  11.482  0.00  0.00    +0.000 HD
ENDBRANCH   5   9
BRANCH   1  11
ATOM     11  C   UNL     1      43.634  -2.748  14.818  0.00  0.00    +0.000 C 
ATOM     12  C   UNL     1      44.445  -3.414  15.405  0.00  0.00    +0.000 C 
BRANCH  12  14
ATOM     13  O   UNL     1      45.275  -5.427  16.180  0.00  0.00    +0.000 OA
ATOM     14  C   UNL     1      45.423  -4.214  16.106  0.00  0.00    +0.000 C 
BRANCH  14  15
ATOM     15  O   UNL     1      46.426  -3.437  16.610  0.00  0.00    +0.000 OA
ATOM     16  C   UNL     1      46.764  -3.597  17.965  0.00  0.00    +0.000 C 
ENDBRANCH  14  15
ENDBRANCH  12  14
ENDBRANCH   1  11
TORSDOF 5
ENDMDL
MODEL 7
REMARK VINA RESULT:      -4.6      2.058      2.674
REMARK  Name = 5357283_Methylferulate.pdbqt.pdb
REMARK  5 active torsions:
REMARK  status: ('A' for Active; 'I' for Inactive)
REMARK    1  A    between atoms: C_1  and  C_11
REMARK    2  A    between atoms: C_2  and  O_7
REMARK    3  A    between atoms: C_5  and  O_9
REMARK    4  A    between atoms: C_12  and  C_14
REMARK    5  A    between atoms: C_14  and  O_15
REMARK                            x       y       z     vdW  Elec       q    Type
REMARK                         _______ _______ _______ _____ _____    ______ ____
ROOT
ATOM      1  C   UNL     1      35.950  14.762  21.708  0.00  0.00    +0.000 A 
ATOM      2  C   UNL     1      35.328  17.071  22.113  0.00  0.00    +0.000 A 
ATOM      3  C   UNL     1      35.226  15.713  22.427  0.00  0.00    +0.000 A 
ATOM      4  C   UNL     1      36.784  15.160  20.666  0.00  0.00    +0.000 A 
ATOM      5  C   UNL     1      36.169  17.455  21.065  0.00  0.00    +0.000 A 
ATOM      6  C   UNL     1      36.894  16.508  20.343  0.00  0.00    +0.000 A 
ENDROOT
BRANCH   2   7
ATOM      7  O   UNL     1      34.651  18.070  22.769  0.00  0.00    +0.000 OA
ATOM      8  C   UNL     1      34.157  17.729  24.038  0.00  0.00    +0.000 C 
ENDBRANCH   2   7
BRANCH   5   9
ATOM      9  O   UNL     1      36.283  18.780  20.742  0.00  0.00    +0.000 OA
ATOM     10  H   UNL     1      36.513  18.854  19.798  0.00  0.00    +0.000 HD
ENDBRANCH   5   9
BRANCH   1  11
ATOM     11  C   UNL     1      35.833  13.381  22.042  0.00  0.00    +0.000 C 
ATOM     12  C   UNL     1      35.733  12.216  22.325  0.00  0.00    +0.000 C 
BRANCH  12  14
ATOM     13  O   UNL     1      35.898   9.962  21.842  0.00  0.00    +0.000 OA
ATOM     14  C   UNL     1      35.612  10.818  22.668  0.00  0.00    +0.000 C 
BRANCH  14  15
ATOM     15  O   UNL     1      35.168  10.662  23.950  0.00  0.00    +0.000 OA
ATOM     16  C   UNL     1      36.071  10.919  24.996  0.00  0.00    +0.000 C 
ENDBRANCH  14  15
ENDBRANCH  12  14
ENDBRANCH   1  11
TORSDOF 5
ENDMDL
MODEL 8
REMARK VINA RESULT:      -4.5     22.610     24.438
REMARK  Name = 5357283_Methylferulate.pdbqt.pdb
REMARK  5 active torsions:
REMARK  status: ('A' for Active; 'I' for Inactive)
REMARK    1  A    between atoms: C_1  and  C_11
REMARK    2  A    between atoms: C_2  and  O_7
REMARK    3  A    between atoms: C_5  and  O_9
REMARK    4  A    between atoms: C_12  and  C_14
REMARK    5  A    between atoms: C_14  and  O_15
REMARK                            x       y       z     vdW  Elec       q    Type
REMARK                         _______ _______ _______ _____ _____    ______ ____
ROOT
ATOM      1  C   UNL     1      49.765   0.842   7.834  0.00  0.00    +0.000 A 
ATOM      2  C   UNL     1      49.554   2.167   9.854  0.00  0.00    +0.000 A 
ATOM      3  C   UNL     1      49.948   2.043   8.518  0.00  0.00    +0.000 A 
ATOM      4  C   UNL     1      49.186  -0.248   8.478  0.00  0.00    +0.000 A 
ATOM      5  C   UNL     1      48.975   1.065  10.487  0.00  0.00    +0.000 A 
ATOM      6  C   UNL     1      48.790  -0.138   9.807  0.00  0.00    +0.000 A 
ENDROOT
BRANCH   2   7
ATOM      7  O   UNL     1      49.698   3.313  10.600  0.00  0.00    +0.000 OA
ATOM      8  C   UNL     1      48.777   4.334  10.318  0.00  0.00    +0.000 C 
ENDBRANCH   2   7
BRANCH   5   9
ATOM      9  O   UNL     1      48.582   1.167  11.794  0.00  0.00    +0.000 OA
ATOM     10  H   UNL     1      48.111   2.012  11.914  0.00  0.00    +0.000 HD
ENDBRANCH   5   9
BRANCH   1  11
ATOM     11  C   UNL     1      50.174   0.733   6.472  0.00  0.00    +0.000 C 
ATOM     12  C   UNL     1      50.520   0.641   5.324  0.00  0.00    +0.000 C 
BRANCH  12  14
ATOM     13  O   UNL     1      52.106   0.747   3.647  0.00  0.00    +0.000 OA
ATOM     14  C   UNL     1      50.938   0.533   3.946  0.00  0.00    +0.000 C 
BRANCH  14  15
ATOM     15  O   UNL     1      49.894   0.187   3.138  0.00  0.00    +0.000 OA
ATOM     16  C   UNL     1      49.924  -1.080   2.530  0.00  0.00    +0.000 C 
ENDBRANCH  14  15
ENDBRANCH  12  14
ENDBRANCH   1  11
TORSDOF 5
ENDMDL
MODEL 9
REMARK VINA RESULT:      -4.3     23.463     25.316
REMARK  Name = 5357283_Methylferulate.pdbqt.pdb
REMARK  5 active torsions:
REMARK  status: ('A' for Active; 'I' for Inactive)
REMARK    1  A    between atoms: C_1  and  C_11
REMARK    2  A    between atoms: C_2  and  O_7
REMARK    3  A    between atoms: C_5  and  O_9
REMARK    4  A    between atoms: C_12  and  C_14
REMARK    5  A    between atoms: C_14  and  O_15
REMARK                            x       y       z     vdW  Elec       q    Type
REMARK                         _______ _______ _______ _____ _____    ______ ____
ROOT
ATOM      1  C   UNL     1      50.023   0.318   7.591  0.00  0.00    +0.000 A 
ATOM      2  C   UNL     1      50.388   0.650   9.966  0.00  0.00    +0.000 A 
ATOM      3  C   UNL     1      50.747   0.054   8.753  0.00  0.00    +0.000 A 
ATOM      4  C   UNL     1      48.930   1.180   7.630  0.00  0.00    +0.000 A 
ATOM      5  C   UNL     1      49.290   1.513   9.989  0.00  0.00    +0.000 A 
ATOM      6  C   UNL     1      48.562   1.780   8.831  0.00  0.00    +0.000 A 
ENDROOT
BRANCH   2   7
ATOM      7  O   UNL     1      51.047   0.444  11.154  0.00  0.00    +0.000 OA
ATOM      8  C   UNL     1      52.354   0.953  11.213  0.00  0.00    +0.000 C 
ENDBRANCH   2   7
BRANCH   5   9
ATOM      9  O   UNL     1      48.923   2.107  11.167  0.00  0.00    +0.000 OA
ATOM     10  H   UNL     1      49.085   3.066  11.097  0.00  0.00    +0.000 HD
ENDBRANCH   5   9
BRANCH   1  11
ATOM     11  C   UNL     1      50.403  -0.300   6.364  0.00  0.00    +0.000 C 
ATOM     12  C   UNL     1      50.725  -0.820   5.328  0.00  0.00    +0.000 C 
BRANCH  12  14
ATOM     13  O   UNL     1      52.287  -1.722   3.884  0.00  0.00    +0.000 OA
ATOM     14  C   UNL     1      51.113  -1.440   4.083  0.00  0.00    +0.000 C 
BRANCH  14  15
ATOM     15  O   UNL     1      50.033  -1.627   3.267  0.00  0.00    +0.000 OA
ATOM     16  C   UNL     1      49.745  -0.632   2.318  0.00  0.00    +0.000 C 
ENDBRANCH  14  15
ENDBRANCH  12  14
ENDBRANCH   1  11
TORSDOF 5
ENDMDL
