MODEL 1
REMARK VINA RESULT:      -6.6      0.000      0.000
REMARK  Name = 5358691_Yuanhuacine.pdbqt.pdb
REMARK  12 active torsions:
REMARK  status: ('A' for Active; 'I' for Inactive)
REMARK    1  A    between atoms: C_9  and  C_48
REMARK    2  A    between atoms: C_13  and  C_23
REMARK    3  A    between atoms: C_14  and  O_26
REMARK    4  A    between atoms: C_15  and  O_28
REMARK    5  A    between atoms: C_16  and  O_39
REMARK    6  A    between atoms: C_17  and  C_30
REMARK    7  A    between atoms: C_31  and  C_32
REMARK    8  A    between atoms: C_33  and  C_34
REMARK    9  A    between atoms: C_35  and  C_36
REMARK   10  A    between atoms: O_39  and  C_41
REMARK   11  A    between atoms: C_41  and  C_42
REMARK   12  A    between atoms: C_48  and  O_49
REMARK                            x       y       z     vdW  Elec       q    Type
REMARK                         _______ _______ _______ _____ _____    ______ ____
ROOT
ATOM      1  O   UNL     1      45.082  -3.773  18.261  0.00  0.00    +0.000 OA
ATOM      2  O   UNL     1      43.590  -5.874  15.890  0.00  0.00    +0.000 OA
ATOM      3  O   UNL     1      44.567  -3.930  14.940  0.00  0.00    +0.000 OA
ATOM      4  O   UNL     1      42.801  -4.921  13.865  0.00  0.00    +0.000 OA
ATOM      5  O   UNL     1      41.770  -6.176  21.483  0.00  0.00    +0.000 OA
ATOM      6  C   UNL     1      43.265  -3.637  16.783  0.00  0.00    +0.000 C 
ATOM      7  C   UNL     1      42.761  -5.087  16.799  0.00  0.00    +0.000 C 
ATOM      8  C   UNL     1      44.047  -2.997  17.804  0.00  0.00    +0.000 C 
ATOM      9  C   UNL     1      44.229  -3.174  19.245  0.00  0.00    +0.000 C 
ATOM     10  C   UNL     1      43.415  -3.273  15.369  0.00  0.00    +0.000 C 
ATOM     11  C   UNL     1      42.878  -5.712  18.155  0.00  0.00    +0.000 C 
ATOM     12  C   UNL     1      41.293  -5.109  16.273  0.00  0.00    +0.000 C 
ATOM     13  C   UNL     1      42.263  -3.689  14.422  0.00  0.00    +0.000 C 
ATOM     14  C   UNL     1      42.348  -5.016  19.389  0.00  0.00    +0.000 C 
ATOM     15  C   UNL     1      43.263  -4.005  20.015  0.00  0.00    +0.000 C 
ATOM     16  C   UNL     1      41.046  -4.163  15.197  0.00  0.00    +0.000 C 
ATOM     17  C   UNL     1      43.951  -5.193  14.663  0.00  0.00    +0.000 C 
ATOM     18  C   UNL     1      43.028  -7.092  18.447  0.00  0.00    +0.000 C 
ATOM     19  C   UNL     1      40.227  -6.150  16.615  0.00  0.00    +0.000 C 
ATOM     20  C   UNL     1      42.190  -6.255  20.331  0.00  0.00    +0.000 C 
ATOM     21  C   UNL     1      42.645  -7.491  19.613  0.00  0.00    +0.000 C 
ATOM     22  C   UNL     1      43.101  -8.763  20.248  0.00  0.00    +0.000 C 
ENDROOT
BRANCH  13  23
ATOM     23  C   UNL     1      42.035  -2.591  13.357  0.00  0.00    +0.000 C 
ATOM     24  C   UNL     1      41.447  -2.850  11.971  0.00  0.00    +0.000 C 
ATOM     25  C   UNL     1      42.585  -1.361  13.425  0.00  0.00    +0.000 C 
ENDBRANCH  13  23
BRANCH  14  26
ATOM     26  O   UNL     1      41.114  -4.382  19.127  0.00  0.00    +0.000 OA
ATOM     27  H   UNL     1      40.916  -4.514  18.179  0.00  0.00    +0.000 HD
ENDBRANCH  14  26
BRANCH  15  28
ATOM     28  O   UNL     1      43.052  -3.715  21.365  0.00  0.00    +0.000 OA
ATOM     29  H   UNL     1      42.209  -3.254  21.563  0.00  0.00    +0.000 HD
ENDBRANCH  15  28
BRANCH  17  30
ATOM     30  C   UNL     1      44.875  -6.036  13.911  0.00  0.00    +0.000 C 
ATOM     31  C   UNL     1      45.633  -6.730  13.291  0.00  0.00    +0.000 C 
BRANCH  31  32
ATOM     32  C   UNL     1      46.601  -7.613  12.499  0.00  0.00    +0.000 C 
ATOM     33  C   UNL     1      47.360  -8.307  11.879  0.00  0.00    +0.000 C 
BRANCH  33  34
ATOM     34  C   UNL     1      48.328  -9.193  11.089  0.00  0.00    +0.000 C 
ATOM     35  C   UNL     1      49.297 -10.077  10.301  0.00  0.00    +0.000 C 
BRANCH  35  36
ATOM     36  C   UNL     1      50.268 -10.963   9.513  0.00  0.00    +0.000 C 
ATOM     37  C   UNL     1      51.238 -11.848   8.724  0.00  0.00    +0.000 C 
ATOM     38  C   UNL     1      52.209 -12.732   7.935  0.00  0.00    +0.000 C 
ENDBRANCH  35  36
ENDBRANCH  33  34
ENDBRANCH  31  32
ENDBRANCH  17  30
BRANCH  16  39
ATOM     39  O   UNL     1      39.715  -3.801  14.928  0.00  0.00    +0.000 OA
BRANCH  39  41
ATOM     40  O   UNL     1      38.759  -2.967  16.843  0.00  0.00    +0.000 OA
ATOM     41  C   UNL     1      39.230  -2.808  15.730  0.00  0.00    +0.000 C 
BRANCH  41  42
ATOM     42  C   UNL     1      39.314  -1.507  15.042  0.00  0.00    +0.000 A 
ATOM     43  C   UNL     1      38.821  -1.332  13.749  0.00  0.00    +0.000 A 
ATOM     44  C   UNL     1      39.901  -0.439  15.719  0.00  0.00    +0.000 A 
ATOM     45  C   UNL     1      38.917  -0.086  13.133  0.00  0.00    +0.000 A 
ATOM     46  C   UNL     1      39.995   0.805  15.102  0.00  0.00    +0.000 A 
ATOM     47  C   UNL     1      39.503   0.981  13.810  0.00  0.00    +0.000 A 
ENDBRANCH  41  42
ENDBRANCH  39  41
ENDBRANCH  16  39
BRANCH   9  48
ATOM     48  C   UNL     1      44.964  -2.148  19.972  0.00  0.00    +0.000 C 
BRANCH  48  49
ATOM     49  O   UNL     1      45.636  -1.215  20.641  0.00  0.00    +0.000 OA
ATOM     50  H   UNL     1      46.544  -1.515  20.824  0.00  0.00    +0.000 HD
ENDBRANCH  48  49
ENDBRANCH   9  48
TORSDOF 12
ENDMDL
MODEL 2
REMARK VINA RESULT:      -6.0     21.163     24.667
REMARK  Name = 5358691_Yuanhuacine.pdbqt.pdb
REMARK  12 active torsions:
REMARK  status: ('A' for Active; 'I' for Inactive)
REMARK    1  A    between atoms: C_9  and  C_48
REMARK    2  A    between atoms: C_13  and  C_23
REMARK    3  A    between atoms: C_14  and  O_26
REMARK    4  A    between atoms: C_15  and  O_28
REMARK    5  A    between atoms: C_16  and  O_39
REMARK    6  A    between atoms: C_17  and  C_30
REMARK    7  A    between atoms: C_31  and  C_32
REMARK    8  A    between atoms: C_33  and  C_34
REMARK    9  A    between atoms: C_35  and  C_36
REMARK   10  A    between atoms: O_39  and  C_41
REMARK   11  A    between atoms: C_41  and  C_42
REMARK   12  A    between atoms: C_48  and  O_49
REMARK                            x       y       z     vdW  Elec       q    Type
REMARK                         _______ _______ _______ _____ _____    ______ ____
ROOT
ATOM      1  O   UNL     1      50.303  16.182  10.666  0.00  0.00    +0.000 OA
ATOM      2  O   UNL     1      53.281  16.433  12.492  0.00  0.00    +0.000 OA
ATOM      3  O   UNL     1      51.439  15.698  13.796  0.00  0.00    +0.000 OA
ATOM      4  O   UNL     1      53.151  16.819  14.829  0.00  0.00    +0.000 OA
ATOM      5  O   UNL     1      52.695  19.625   7.577  0.00  0.00    +0.000 OA
ATOM      6  C   UNL     1      51.095  17.495  12.442  0.00  0.00    +0.000 C 
ATOM      7  C   UNL     1      52.577  17.640  12.066  0.00  0.00    +0.000 C 
ATOM      8  C   UNL     1      50.015  17.196  11.544  0.00  0.00    +0.000 C 
ATOM      9  C   UNL     1      49.760  17.389  10.116  0.00  0.00    +0.000 C 
ATOM     10  C   UNL     1      51.072  17.043  13.838  0.00  0.00    +0.000 C 
ATOM     11  C   UNL     1      52.775  17.767  10.586  0.00  0.00    +0.000 C 
ATOM     12  C   UNL     1      53.169  18.857  12.839  0.00  0.00    +0.000 C 
ATOM     13  C   UNL     1      52.039  17.758  14.813  0.00  0.00    +0.000 C 
ATOM     14  C   UNL     1      51.982  18.764   9.771  0.00  0.00    +0.000 C 
ATOM     15  C   UNL     1      50.620  18.315   9.331  0.00  0.00    +0.000 C 
ATOM     16  C   UNL     1      52.645  19.001  14.187  0.00  0.00    +0.000 C 
ATOM     17  C   UNL     1      52.855  15.908  13.773  0.00  0.00    +0.000 C 
ATOM     18  C   UNL     1      53.926  17.394   9.846  0.00  0.00    +0.000 C 
ATOM     19  C   UNL     1      54.361  19.710  12.403  0.00  0.00    +0.000 C 
ATOM     20  C   UNL     1      52.932  18.893   8.534  0.00  0.00    +0.000 C 
ATOM     21  C   UNL     1      54.114  17.988   8.715  0.00  0.00    +0.000 C 
ATOM     22  C   UNL     1      54.988  17.450   7.630  0.00  0.00    +0.000 C 
ENDROOT
BRANCH  13  23
ATOM     23  C   UNL     1      51.365  17.922  16.196  0.00  0.00    +0.000 C 
ATOM     24  C   UNL     1      52.131  18.068  17.510  0.00  0.00    +0.000 C 
ATOM     25  C   UNL     1      50.060  17.671  16.423  0.00  0.00    +0.000 C 
ENDBRANCH  13  23
BRANCH  14  26
ATOM     26  O   UNL     1      51.835  19.986  10.462  0.00  0.00    +0.000 OA
ATOM     27  H   UNL     1      52.233  20.684   9.906  0.00  0.00    +0.000 HD
ENDBRANCH  14  26
BRANCH  15  28
ATOM     28  O   UNL     1      50.076  18.955   8.214  0.00  0.00    +0.000 OA
ATOM     29  H   UNL     1      50.517  18.750   7.363  0.00  0.00    +0.000 HD
ENDBRANCH  15  28
BRANCH  17  30
ATOM     30  C   UNL     1      53.544  14.645  14.016  0.00  0.00    +0.000 C 
ATOM     31  C   UNL     1      54.111  13.605  14.214  0.00  0.00    +0.000 C 
BRANCH  31  32
ATOM     32  C   UNL     1      54.836  12.280  14.465  0.00  0.00    +0.000 C 
ATOM     33  C   UNL     1      55.405  11.242  14.662  0.00  0.00    +0.000 C 
BRANCH  33  34
ATOM     34  C   UNL     1      56.131   9.916  14.910  0.00  0.00    +0.000 C 
ATOM     35  C   UNL     1      56.857   8.591  15.157  0.00  0.00    +0.000 C 
BRANCH  35  36
ATOM     36  C   UNL     1      57.586   7.266  15.405  0.00  0.00    +0.000 C 
ATOM     37  C   UNL     1      58.313   5.941  15.651  0.00  0.00    +0.000 C 
ATOM     38  C   UNL     1      59.041   4.615  15.896  0.00  0.00    +0.000 C 
ENDBRANCH  35  36
ENDBRANCH  33  34
ENDBRANCH  31  32
ENDBRANCH  17  30
BRANCH  16  39
ATOM     39  O   UNL     1      52.778  20.250  14.818  0.00  0.00    +0.000 OA
BRANCH  39  41
ATOM     40  O   UNL     1      51.880  21.857  13.442  0.00  0.00    +0.000 OA
ATOM     41  C   UNL     1      51.838  21.169  14.448  0.00  0.00    +0.000 C 
BRANCH  41  42
ATOM     42  C   UNL     1      50.774  21.251  15.465  0.00  0.00    +0.000 A 
ATOM     43  C   UNL     1      51.057  21.561  16.795  0.00  0.00    +0.000 A 
ATOM     44  C   UNL     1      49.460  21.010  15.066  0.00  0.00    +0.000 A 
ATOM     45  C   UNL     1      50.024  21.630  17.726  0.00  0.00    +0.000 A 
ATOM     46  C   UNL     1      48.429  21.080  15.999  0.00  0.00    +0.000 A 
ATOM     47  C   UNL     1      48.711  21.390  17.328  0.00  0.00    +0.000 A 
ENDBRANCH  41  42
ENDBRANCH  39  41
ENDBRANCH  16  39
BRANCH   9  48
ATOM     48  C   UNL     1      48.412  17.139   9.622  0.00  0.00    +0.000 C 
BRANCH  48  49
ATOM     49  O   UNL     1      47.184  16.911   9.166  0.00  0.00    +0.000 OA
ATOM     50  H   UNL     1      46.997  17.475   8.395  0.00  0.00    +0.000 HD
ENDBRANCH  48  49
ENDBRANCH   9  48
TORSDOF 12
ENDMDL
MODEL 3
REMARK VINA RESULT:      -5.9      3.408      7.915
REMARK  Name = 5358691_Yuanhuacine.pdbqt.pdb
REMARK  12 active torsions:
REMARK  status: ('A' for Active; 'I' for Inactive)
REMARK    1  A    between atoms: C_9  and  C_48
REMARK    2  A    between atoms: C_13  and  C_23
REMARK    3  A    between atoms: C_14  and  O_26
REMARK    4  A    between atoms: C_15  and  O_28
REMARK    5  A    between atoms: C_16  and  O_39
REMARK    6  A    between atoms: C_17  and  C_30
REMARK    7  A    between atoms: C_31  and  C_32
REMARK    8  A    between atoms: C_33  and  C_34
REMARK    9  A    between atoms: C_35  and  C_36
REMARK   10  A    between atoms: O_39  and  C_41
REMARK   11  A    between atoms: C_41  and  C_42
REMARK   12  A    between atoms: C_48  and  O_49
REMARK                            x       y       z     vdW  Elec       q    Type
REMARK                         _______ _______ _______ _____ _____    ______ ____
ROOT
ATOM      1  O   UNL     1      41.644  -7.512  17.567  0.00  0.00    +0.000 OA
ATOM      2  O   UNL     1      44.395  -5.417  17.017  0.00  0.00    +0.000 OA
ATOM      3  O   UNL     1      42.601  -4.338  18.136  0.00  0.00    +0.000 OA
ATOM      4  O   UNL     1      44.028  -3.078  16.856  0.00  0.00    +0.000 OA
ATOM      5  O   UNL     1      43.677 -10.119  13.544  0.00  0.00    +0.000 OA
ATOM      6  C   UNL     1      42.077  -5.583  16.304  0.00  0.00    +0.000 C 
ATOM      7  C   UNL     1      43.540  -5.815  15.901  0.00  0.00    +0.000 C 
ATOM      8  C   UNL     1      41.130  -6.592  16.688  0.00  0.00    +0.000 C 
ATOM      9  C   UNL     1      40.956  -8.019  16.415  0.00  0.00    +0.000 C 
ATOM     10  C   UNL     1      42.021  -4.231  16.873  0.00  0.00    +0.000 C 
ATOM     11  C   UNL     1      43.827  -7.258  15.618  0.00  0.00    +0.000 C 
ATOM     12  C   UNL     1      43.868  -4.906  14.678  0.00  0.00    +0.000 C 
ATOM     13  C   UNL     1      42.783  -3.124  16.103  0.00  0.00    +0.000 C 
ATOM     14  C   UNL     1      42.948  -8.065  14.689  0.00  0.00    +0.000 C 
ATOM     15  C   UNL     1      41.713  -8.656  15.303  0.00  0.00    +0.000 C 
ATOM     16  C   UNL     1      43.227  -3.602  14.732  0.00  0.00    +0.000 C 
ATOM     17  C   UNL     1      43.963  -4.220  17.709  0.00  0.00    +0.000 C 
ATOM     18  C   UNL     1      45.076  -7.919  15.744  0.00  0.00    +0.000 C 
ATOM     19  C   UNL     1      44.937  -5.171  13.617  0.00  0.00    +0.000 C 
ATOM     20  C   UNL     1      43.956  -9.200  14.310  0.00  0.00    +0.000 C 
ATOM     21  C   UNL     1      45.251  -8.982  15.034  0.00  0.00    +0.000 C 
ATOM     22  C   UNL     1      46.279 -10.022  15.335  0.00  0.00    +0.000 C 
ENDROOT
BRANCH  13  23
ATOM     23  C   UNL     1      41.990  -1.798  16.164  0.00  0.00    +0.000 C 
ATOM     24  C   UNL     1      42.613  -0.417  15.974  0.00  0.00    +0.000 C 
ATOM     25  C   UNL     1      40.741  -1.700  16.666  0.00  0.00    +0.000 C 
ENDBRANCH  13  23
BRANCH  14  26
ATOM     26  O   UNL     1      42.554  -7.303  13.568  0.00  0.00    +0.000 OA
ATOM     27  H   UNL     1      41.713  -7.680  13.241  0.00  0.00    +0.000 HD
ENDBRANCH  14  26
BRANCH  15  28
ATOM     28  O   UNL     1      41.159  -9.766  14.661  0.00  0.00    +0.000 OA
ATOM     29  H   UNL     1      40.285  -9.610  14.244  0.00  0.00    +0.000 HD
ENDBRANCH  15  28
BRANCH  17  30
ATOM     30  C   UNL     1      44.826  -4.010  18.867  0.00  0.00    +0.000 C 
ATOM     31  C   UNL     1      45.534  -3.837  19.820  0.00  0.00    +0.000 C 
BRANCH  31  32
ATOM     32  C   UNL     1      46.437  -3.619  21.037  0.00  0.00    +0.000 C 
ATOM     33  C   UNL     1      47.146  -3.449  21.992  0.00  0.00    +0.000 C 
BRANCH  33  34
ATOM     34  C   UNL     1      48.050  -3.234  23.209  0.00  0.00    +0.000 C 
ATOM     35  C   UNL     1      48.952  -3.018  24.427  0.00  0.00    +0.000 C 
BRANCH  35  36
ATOM     36  C   UNL     1      49.855  -2.804  25.646  0.00  0.00    +0.000 C 
ATOM     37  C   UNL     1      50.757  -2.588  26.865  0.00  0.00    +0.000 C 
ATOM     38  C   UNL     1      51.659  -2.372  28.085  0.00  0.00    +0.000 C 
ENDBRANCH  35  36
ENDBRANCH  33  34
ENDBRANCH  31  32
ENDBRANCH  17  30
BRANCH  16  39
ATOM     39  O   UNL     1      43.109  -2.873  13.537  0.00  0.00    +0.000 OA
BRANCH  39  41
ATOM     40  O   UNL     1      41.828  -4.170  12.138  0.00  0.00    +0.000 OA
ATOM     41  C   UNL     1      41.992  -3.165  12.808  0.00  0.00    +0.000 C 
BRANCH  41  42
ATOM     42  C   UNL     1      41.014  -2.066  12.908  0.00  0.00    +0.000 A 
ATOM     43  C   UNL     1      39.687  -2.300  13.265  0.00  0.00    +0.000 A 
ATOM     44  C   UNL     1      41.449  -0.770  12.635  0.00  0.00    +0.000 A 
ATOM     45  C   UNL     1      38.793  -1.235  13.350  0.00  0.00    +0.000 A 
ATOM     46  C   UNL     1      40.554   0.293  12.722  0.00  0.00    +0.000 A 
ATOM     47  C   UNL     1      39.227   0.060  13.078  0.00  0.00    +0.000 A 
ENDBRANCH  41  42
ENDBRANCH  39  41
ENDBRANCH  16  39
BRANCH   9  48
ATOM     48  C   UNL     1      39.708  -8.647  16.827  0.00  0.00    +0.000 C 
BRANCH  48  49
ATOM     49  O   UNL     1      38.567  -9.215  17.207  0.00  0.00    +0.000 OA
ATOM     50  H   UNL     1      38.642 -10.185  17.174  0.00  0.00    +0.000 HD
ENDBRANCH  48  49
ENDBRANCH   9  48
TORSDOF 12
ENDMDL
MODEL 4
REMARK VINA RESULT:      -5.8     14.604     18.742
REMARK  Name = 5358691_Yuanhuacine.pdbqt.pdb
REMARK  12 active torsions:
REMARK  status: ('A' for Active; 'I' for Inactive)
REMARK    1  A    between atoms: C_9  and  C_48
REMARK    2  A    between atoms: C_13  and  C_23
REMARK    3  A    between atoms: C_14  and  O_26
REMARK    4  A    between atoms: C_15  and  O_28
REMARK    5  A    between atoms: C_16  and  O_39
REMARK    6  A    between atoms: C_17  and  C_30
REMARK    7  A    between atoms: C_31  and  C_32
REMARK    8  A    between atoms: C_33  and  C_34
REMARK    9  A    between atoms: C_35  and  C_36
REMARK   10  A    between atoms: O_39  and  C_41
REMARK   11  A    between atoms: C_41  and  C_42
REMARK   12  A    between atoms: C_48  and  O_49
REMARK                            x       y       z     vdW  Elec       q    Type
REMARK                         _______ _______ _______ _____ _____    ______ ____
ROOT
ATOM      1  O   UNL     1      55.388   6.863   9.148  0.00  0.00    +0.000 OA
ATOM      2  O   UNL     1      53.055   7.678  11.628  0.00  0.00    +0.000 OA
ATOM      3  O   UNL     1      55.124   6.911  12.501  0.00  0.00    +0.000 OA
ATOM      4  O   UNL     1      53.218   6.605  13.738  0.00  0.00    +0.000 OA
ATOM      5  O   UNL     1      51.100   6.287   6.249  0.00  0.00    +0.000 OA
ATOM      6  C   UNL     1      54.206   5.700  10.807  0.00  0.00    +0.000 C 
ATOM      7  C   UNL     1      52.878   6.472  10.822  0.00  0.00    +0.000 C 
ATOM      8  C   UNL     1      55.143   5.641   9.721  0.00  0.00    +0.000 C 
ATOM      9  C   UNL     1      55.067   5.779   8.266  0.00  0.00    +0.000 C 
ATOM     10  C   UNL     1      54.653   5.633  12.204  0.00  0.00    +0.000 C 
ATOM     11  C   UNL     1      52.467   6.915   9.451  0.00  0.00    +0.000 C 
ATOM     12  C   UNL     1      51.792   5.581  11.496  0.00  0.00    +0.000 C 
ATOM     13  C   UNL     1      53.577   5.278  13.258  0.00  0.00    +0.000 C 
ATOM     14  C   UNL     1      52.436   5.947   8.289  0.00  0.00    +0.000 C 
ATOM     15  C   UNL     1      53.743   5.723   7.588  0.00  0.00    +0.000 C 
ATOM     16  C   UNL     1      52.295   4.789  12.607  0.00  0.00    +0.000 C 
ATOM     17  C   UNL     1      53.855   7.492  12.821  0.00  0.00    +0.000 C 
ATOM     18  C   UNL     1      51.661   8.036   9.124  0.00  0.00    +0.000 C 
ATOM     19  C   UNL     1      50.285   5.653  11.250  0.00  0.00    +0.000 C 
ATOM     20  C   UNL     1      51.445   6.710   7.349  0.00  0.00    +0.000 C 
ATOM     21  C   UNL     1      51.031   7.997   7.998  0.00  0.00    +0.000 C 
ATOM     22  C   UNL     1      50.503   9.207   7.299  0.00  0.00    +0.000 C 
ENDROOT
BRANCH  13  23
ATOM     23  C   UNL     1      54.193   4.383  14.358  0.00  0.00    +0.000 C 
ATOM     24  C   UNL     1      53.878   4.514  15.848  0.00  0.00    +0.000 C 
ATOM     25  C   UNL     1      55.271   3.596  14.161  0.00  0.00    +0.000 C 
ENDBRANCH  13  23
BRANCH  14  26
ATOM     26  O   UNL     1      51.935   4.688   8.687  0.00  0.00    +0.000 OA
ATOM     27  H   UNL     1      51.239   4.851   9.354  0.00  0.00    +0.000 HD
ENDBRANCH  14  26
BRANCH  15  28
ATOM     28  O   UNL     1      53.681   5.260   6.271  0.00  0.00    +0.000 OA
ATOM     29  H   UNL     1      53.464   5.943   5.601  0.00  0.00    +0.000 HD
ENDBRANCH  15  28
BRANCH  17  30
ATOM     30  C   UNL     1      54.054   8.789  13.460  0.00  0.00    +0.000 C 
ATOM     31  C   UNL     1      54.219   9.856  13.984  0.00  0.00    +0.000 C 
BRANCH  31  32
ATOM     32  C   UNL     1      54.428  11.218  14.651  0.00  0.00    +0.000 C 
ATOM     33  C   UNL     1      54.592  12.286  15.174  0.00  0.00    +0.000 C 
BRANCH  33  34
ATOM     34  C   UNL     1      54.798  13.650  15.840  0.00  0.00    +0.000 C 
ATOM     35  C   UNL     1      55.005  15.012  16.507  0.00  0.00    +0.000 C 
BRANCH  35  36
ATOM     36  C   UNL     1      55.213  16.376  17.175  0.00  0.00    +0.000 C 
ATOM     37  C   UNL     1      55.421  17.738  17.843  0.00  0.00    +0.000 C 
ATOM     38  C   UNL     1      55.631  19.101  18.511  0.00  0.00    +0.000 C 
ENDBRANCH  35  36
ENDBRANCH  33  34
ENDBRANCH  31  32
ENDBRANCH  17  30
BRANCH  16  39
ATOM     39  O   UNL     1      51.545   3.674  13.017  0.00  0.00    +0.000 OA
BRANCH  39  41
ATOM     40  O   UNL     1      51.337   2.404  11.114  0.00  0.00    +0.000 OA
ATOM     41  C   UNL     1      51.736   2.557  12.256  0.00  0.00    +0.000 C 
BRANCH  41  42
ATOM     42  C   UNL     1      52.461   1.530  13.025  0.00  0.00    +0.000 A 
ATOM     43  C   UNL     1      53.496   0.788  12.457  0.00  0.00    +0.000 A 
ATOM     44  C   UNL     1      52.089   1.313  14.351  0.00  0.00    +0.000 A 
ATOM     45  C   UNL     1      54.159  -0.173  13.218  0.00  0.00    +0.000 A 
ATOM     46  C   UNL     1      52.753   0.353  15.109  0.00  0.00    +0.000 A 
ATOM     47  C   UNL     1      53.787  -0.389  14.543  0.00  0.00    +0.000 A 
ENDBRANCH  41  42
ENDBRANCH  39  41
ENDBRANCH  16  39
BRANCH   9  48
ATOM     48  C   UNL     1      56.241   5.420   7.483  0.00  0.00    +0.000 C 
BRANCH  48  49
ATOM     49  O   UNL     1      57.313   5.097   6.764  0.00  0.00    +0.000 OA
ATOM     50  H   UNL     1      57.300   5.558   5.907  0.00  0.00    +0.000 HD
ENDBRANCH  48  49
ENDBRANCH   9  48
TORSDOF 12
ENDMDL
MODEL 5
REMARK VINA RESULT:      -5.6     20.919     26.206
REMARK  Name = 5358691_Yuanhuacine.pdbqt.pdb
REMARK  12 active torsions:
REMARK  status: ('A' for Active; 'I' for Inactive)
REMARK    1  A    between atoms: C_9  and  C_48
REMARK    2  A    between atoms: C_13  and  C_23
REMARK    3  A    between atoms: C_14  and  O_26
REMARK    4  A    between atoms: C_15  and  O_28
REMARK    5  A    between atoms: C_16  and  O_39
REMARK    6  A    between atoms: C_17  and  C_30
REMARK    7  A    between atoms: C_31  and  C_32
REMARK    8  A    between atoms: C_33  and  C_34
REMARK    9  A    between atoms: C_35  and  C_36
REMARK   10  A    between atoms: O_39  and  C_41
REMARK   11  A    between atoms: C_41  and  C_42
REMARK   12  A    between atoms: C_48  and  O_49
REMARK                            x       y       z     vdW  Elec       q    Type
REMARK                         _______ _______ _______ _____ _____    ______ ____
ROOT
ATOM      1  O   UNL     1      35.901  17.822  18.494  0.00  0.00    +0.000 OA
ATOM      2  O   UNL     1      32.537  17.110  19.153  0.00  0.00    +0.000 OA
ATOM      3  O   UNL     1      32.866  19.227  18.134  0.00  0.00    +0.000 OA
ATOM      4  O   UNL     1      31.035  18.918  19.479  0.00  0.00    +0.000 OA
ATOM      5  O   UNL     1      36.683  14.357  22.303  0.00  0.00    +0.000 OA
ATOM      6  C   UNL     1      34.225  18.700  19.881  0.00  0.00    +0.000 C 
ATOM      7  C   UNL     1      33.448  17.427  20.250  0.00  0.00    +0.000 C 
ATOM      8  C   UNL     1      35.590  18.765  19.440  0.00  0.00    +0.000 C 
ATOM      9  C   UNL     1      36.786  17.940  19.617  0.00  0.00    +0.000 C 
ATOM     10  C   UNL     1      33.225  19.664  19.408  0.00  0.00    +0.000 C 
ATOM     11  C   UNL     1      34.351  16.246  20.429  0.00  0.00    +0.000 C 
ATOM     12  C   UNL     1      32.604  17.713  21.528  0.00  0.00    +0.000 C 
ATOM     13  C   UNL     1      31.926  19.780  20.242  0.00  0.00    +0.000 C 
ATOM     14  C   UNL     1      35.577  16.321  21.311  0.00  0.00    +0.000 C 
ATOM     15  C   UNL     1      36.810  16.892  20.673  0.00  0.00    +0.000 C 
ATOM     16  C   UNL     1      32.050  19.057  21.572  0.00  0.00    +0.000 C 
ATOM     17  C   UNL     1      31.896  18.261  18.551  0.00  0.00    +0.000 C 
ATOM     18  C   UNL     1      34.014  14.880  20.243  0.00  0.00    +0.000 C 
ATOM     19  C   UNL     1      32.142  16.679  22.555  0.00  0.00    +0.000 C 
ATOM     20  C   UNL     1      35.777  14.796  21.599  0.00  0.00    +0.000 C 
ATOM     21  C   UNL     1      34.726  14.009  20.875  0.00  0.00    +0.000 C 
ATOM     22  C   UNL     1      34.811  12.568  20.491  0.00  0.00    +0.000 C 
ENDROOT
BRANCH  13  23
ATOM     23  C   UNL     1      31.455  21.253  20.283  0.00  0.00    +0.000 C 
ATOM     24  C   UNL     1      30.019  21.686  20.568  0.00  0.00    +0.000 C 
ATOM     25  C   UNL     1      32.182  22.280  19.797  0.00  0.00    +0.000 C 
ENDBRANCH  13  23
BRANCH  14  26
ATOM     26  O   UNL     1      35.316  17.058  22.487  0.00  0.00    +0.000 OA
ATOM     27  H   UNL     1      35.889  16.695  23.190  0.00  0.00    +0.000 HD
ENDBRANCH  14  26
BRANCH  15  28
ATOM     28  O   UNL     1      38.036  16.540  21.244  0.00  0.00    +0.000 OA
ATOM     29  H   UNL     1      37.974  16.097  22.117  0.00  0.00    +0.000 HD
ENDBRANCH  15  28
BRANCH  17  30
ATOM     30  C   UNL     1      31.117  17.816  17.399  0.00  0.00    +0.000 C 
ATOM     31  C   UNL     1      30.477  17.452  16.451  0.00  0.00    +0.000 C 
BRANCH  31  32
ATOM     32  C   UNL     1      29.662  16.988  15.241  0.00  0.00    +0.000 C 
ATOM     33  C   UNL     1      29.024  16.624  14.292  0.00  0.00    +0.000 C 
BRANCH  33  34
ATOM     34  C   UNL     1      28.211  16.158  13.080  0.00  0.00    +0.000 C 
ATOM     35  C   UNL     1      27.399  15.693  11.868  0.00  0.00    +0.000 C 
BRANCH  35  36
ATOM     36  C   UNL     1      26.588  15.227  10.654  0.00  0.00    +0.000 C 
ATOM     37  C   UNL     1      25.778  14.762   9.441  0.00  0.00    +0.000 C 
ATOM     38  C   UNL     1      24.969  14.295   8.226  0.00  0.00    +0.000 C 
ENDBRANCH  35  36
ENDBRANCH  33  34
ENDBRANCH  31  32
ENDBRANCH  17  30
BRANCH  16  39
ATOM     39  O   UNL     1      31.633  19.560  22.816  0.00  0.00    +0.000 OA
BRANCH  39  41
ATOM     40  O   UNL     1      32.912  19.155  24.682  0.00  0.00    +0.000 OA
ATOM     41  C   UNL     1      32.653  19.813  23.689  0.00  0.00    +0.000 C 
BRANCH  41  42
ATOM     42  C   UNL     1      33.379  21.032  23.288  0.00  0.00    +0.000 A 
ATOM     43  C   UNL     1      32.817  22.299  23.437  0.00  0.00    +0.000 A 
ATOM     44  C   UNL     1      34.658  20.891  22.751  0.00  0.00    +0.000 A 
ATOM     45  C   UNL     1      33.536  23.427  23.048  0.00  0.00    +0.000 A 
ATOM     46  C   UNL     1      35.375  22.019  22.364  0.00  0.00    +0.000 A 
ATOM     47  C   UNL     1      34.814  23.286  22.512  0.00  0.00    +0.000 A 
ENDBRANCH  41  42
ENDBRANCH  39  41
ENDBRANCH  16  39
BRANCH   9  48
ATOM     48  C   UNL     1      38.063  18.485  19.179  0.00  0.00    +0.000 C 
BRANCH  48  49
ATOM     49  O   UNL     1      39.229  18.988  18.783  0.00  0.00    +0.000 OA
ATOM     50  H   UNL     1      39.609  18.445  18.070  0.00  0.00    +0.000 HD
ENDBRANCH  48  49
ENDBRANCH   9  48
TORSDOF 12
ENDMDL
MODEL 6
REMARK VINA RESULT:      -5.4     17.170     20.798
REMARK  Name = 5358691_Yuanhuacine.pdbqt.pdb
REMARK  12 active torsions:
REMARK  status: ('A' for Active; 'I' for Inactive)
REMARK    1  A    between atoms: C_9  and  C_48
REMARK    2  A    between atoms: C_13  and  C_23
REMARK    3  A    between atoms: C_14  and  O_26
REMARK    4  A    between atoms: C_15  and  O_28
REMARK    5  A    between atoms: C_16  and  O_39
REMARK    6  A    between atoms: C_17  and  C_30
REMARK    7  A    between atoms: C_31  and  C_32
REMARK    8  A    between atoms: C_33  and  C_34
REMARK    9  A    between atoms: C_35  and  C_36
REMARK   10  A    between atoms: O_39  and  C_41
REMARK   11  A    between atoms: C_41  and  C_42
REMARK   12  A    between atoms: C_48  and  O_49
REMARK                            x       y       z     vdW  Elec       q    Type
REMARK                         _______ _______ _______ _____ _____    ______ ____
ROOT
ATOM      1  O   UNL     1      35.351   7.774  23.592  0.00  0.00    +0.000 OA
ATOM      2  O   UNL     1      36.498  10.606  25.301  0.00  0.00    +0.000 OA
ATOM      3  O   UNL     1      36.393   8.666  26.664  0.00  0.00    +0.000 OA
ATOM      4  O   UNL     1      36.175  10.725  27.649  0.00  0.00    +0.000 OA
ATOM      5  O   UNL     1      33.205  11.351  20.476  0.00  0.00    +0.000 OA
ATOM      6  C   UNL     1      34.582   9.111  25.359  0.00  0.00    +0.000 C 
ATOM      7  C   UNL     1      35.090  10.494  24.927  0.00  0.00    +0.000 C 
ATOM      8  C   UNL     1      34.345   7.986  24.500  0.00  0.00    +0.000 C 
ATOM      9  C   UNL     1      34.010   7.803  23.087  0.00  0.00    +0.000 C 
ATOM     10  C   UNL     1      35.027   8.930  26.747  0.00  0.00    +0.000 C 
ATOM     11  C   UNL     1      35.012  10.688  23.444  0.00  0.00    +0.000 C 
ATOM     12  C   UNL     1      34.285  11.583  25.699  0.00  0.00    +0.000 C 
ATOM     13  C   UNL     1      34.844  10.139  27.696  0.00  0.00    +0.000 C 
ATOM     14  C   UNL     1      33.740  10.393  22.680  0.00  0.00    +0.000 C 
ATOM     15  C   UNL     1      33.529   8.961  22.286  0.00  0.00    +0.000 C 
ATOM     16  C   UNL     1      33.972  11.213  27.070  0.00  0.00    +0.000 C 
ATOM     17  C   UNL     1      36.827  10.029  26.589  0.00  0.00    +0.000 C 
ATOM     18  C   UNL     1      35.826  11.536  22.651  0.00  0.00    +0.000 C 
ATOM     19  C   UNL     1      34.028  13.016  25.233  0.00  0.00    +0.000 C 
ATOM     20  C   UNL     1      33.999  11.268  21.409  0.00  0.00    +0.000 C 
ATOM     21  C   UNL     1      35.337  11.935  21.525  0.00  0.00    +0.000 C 
ATOM     22  C   UNL     1      36.166  12.453  20.396  0.00  0.00    +0.000 C 
ENDROOT
BRANCH  13  23
ATOM     23  C   UNL     1      34.448   9.645  29.107  0.00  0.00    +0.000 C 
ATOM     24  C   UNL     1      34.634  10.462  30.385  0.00  0.00    +0.000 C 
ATOM     25  C   UNL     1      34.170   8.357  29.395  0.00  0.00    +0.000 C 
ENDBRANCH  13  23
BRANCH  14  26
ATOM     26  O   UNL     1      32.602  10.818  23.400  0.00  0.00    +0.000 OA
ATOM     27  H   UNL     1      32.749  11.752  23.650  0.00  0.00    +0.000 HD
ENDBRANCH  14  26
BRANCH  15  28
ATOM     28  O   UNL     1      32.676   8.724  21.205  0.00  0.00    +0.000 OA
ATOM     29  H   UNL     1      31.947   8.093  21.383  0.00  0.00    +0.000 HD
ENDBRANCH  15  28
BRANCH  17  30
ATOM     30  C   UNL     1      38.272  10.097  26.780  0.00  0.00    +0.000 C 
ATOM     31  C   UNL     1      39.461  10.152  26.935  0.00  0.00    +0.000 C 
BRANCH  31  32
ATOM     32  C   UNL     1      40.977  10.223  27.131  0.00  0.00    +0.000 C 
ATOM     33  C   UNL     1      42.167  10.278  27.286  0.00  0.00    +0.000 C 
BRANCH  33  34
ATOM     34  C   UNL     1      43.684  10.345  27.484  0.00  0.00    +0.000 C 
ATOM     35  C   UNL     1      45.200  10.414  27.683  0.00  0.00    +0.000 C 
BRANCH  35  36
ATOM     36  C   UNL     1      46.718  10.483  27.883  0.00  0.00    +0.000 C 
ATOM     37  C   UNL     1      48.235  10.550  28.083  0.00  0.00    +0.000 C 
ATOM     38  C   UNL     1      49.753  10.616  28.283  0.00  0.00    +0.000 C 
ENDBRANCH  35  36
ENDBRANCH  33  34
ENDBRANCH  31  32
ENDBRANCH  17  30
BRANCH  16  39
ATOM     39  O   UNL     1      32.932  11.900  27.719  0.00  0.00    +0.000 OA
BRANCH  39  41
ATOM     40  O   UNL     1      31.001  12.257  26.525  0.00  0.00    +0.000 OA
ATOM     41  C   UNL     1      31.682  11.577  27.274  0.00  0.00    +0.000 C 
BRANCH  41  42
ATOM     42  C   UNL     1      31.243  10.299  27.864  0.00  0.00    +0.000 A 
ATOM     43  C   UNL     1      31.196   9.126  27.112  0.00  0.00    +0.000 A 
ATOM     44  C   UNL     1      30.872  10.286  29.208  0.00  0.00    +0.000 A 
ATOM     45  C   UNL     1      30.777   7.938  27.706  0.00  0.00    +0.000 A 
ATOM     46  C   UNL     1      30.454   9.097  29.799  0.00  0.00    +0.000 A 
ATOM     47  C   UNL     1      30.407   7.924  29.048  0.00  0.00    +0.000 A 
ENDBRANCH  41  42
ENDBRANCH  39  41
ENDBRANCH  16  39
BRANCH   9  48
ATOM     48  C   UNL     1      33.625   6.470  22.643  0.00  0.00    +0.000 C 
BRANCH  48  49
ATOM     49  O   UNL     1      33.278   5.252  22.235  0.00  0.00    +0.000 OA
ATOM     50  H   UNL     1      34.040   4.649  22.278  0.00  0.00    +0.000 HD
ENDBRANCH  48  49
ENDBRANCH   9  48
TORSDOF 12
ENDMDL
MODEL 7
REMARK VINA RESULT:      -5.4     11.895     15.062
REMARK  Name = 5358691_Yuanhuacine.pdbqt.pdb
REMARK  12 active torsions:
REMARK  status: ('A' for Active; 'I' for Inactive)
REMARK    1  A    between atoms: C_9  and  C_48
REMARK    2  A    between atoms: C_13  and  C_23
REMARK    3  A    between atoms: C_14  and  O_26
REMARK    4  A    between atoms: C_15  and  O_28
REMARK    5  A    between atoms: C_16  and  O_39
REMARK    6  A    between atoms: C_17  and  C_30
REMARK    7  A    between atoms: C_31  and  C_32
REMARK    8  A    between atoms: C_33  and  C_34
REMARK    9  A    between atoms: C_35  and  C_36
REMARK   10  A    between atoms: O_39  and  C_41
REMARK   11  A    between atoms: C_41  and  C_42
REMARK   12  A    between atoms: C_48  and  O_49
REMARK                            x       y       z     vdW  Elec       q    Type
REMARK                         _______ _______ _______ _____ _____    ______ ____
ROOT
ATOM      1  O   UNL     1      54.621   4.205   9.033  0.00  0.00    +0.000 OA
ATOM      2  O   UNL     1      52.525   2.164  10.957  0.00  0.00    +0.000 OA
ATOM      3  O   UNL     1      54.178   0.951   9.761  0.00  0.00    +0.000 OA
ATOM      4  O   UNL     1      52.202  -0.088  10.283  0.00  0.00    +0.000 OA
ATOM      5  O   UNL     1      50.566   7.462   9.291  0.00  0.00    +0.000 OA
ATOM      6  C   UNL     1      53.026   2.538   8.608  0.00  0.00    +0.000 C 
ATOM      7  C   UNL     1      52.020   2.794   9.740  0.00  0.00    +0.000 C 
ATOM      8  C   UNL     1      53.960   3.486   8.070  0.00  0.00    +0.000 C 
ATOM      9  C   UNL     1      54.023   4.945   7.960  0.00  0.00    +0.000 C 
ATOM     10  C   UNL     1      53.340   1.105   8.659  0.00  0.00    +0.000 C 
ATOM     11  C   UNL     1      51.860   4.255  10.034  0.00  0.00    +0.000 C 
ATOM     12  C   UNL     1      50.665   2.125   9.361  0.00  0.00    +0.000 C 
ATOM     13  C   UNL     1      52.143   0.141   8.847  0.00  0.00    +0.000 C 
ATOM     14  C   UNL     1      51.591   5.253   8.930  0.00  0.00    +0.000 C 
ATOM     15  C   UNL     1      52.797   5.756   8.193  0.00  0.00    +0.000 C 
ATOM     16  C   UNL     1      50.815   0.856   8.666  0.00  0.00    +0.000 C 
ATOM     17  C   UNL     1      53.147   0.872  10.752  0.00  0.00    +0.000 C 
ATOM     18  C   UNL     1      51.480   4.838  11.270  0.00  0.00    +0.000 C 
ATOM     19  C   UNL     1      49.280   2.552   9.848  0.00  0.00    +0.000 C 
ATOM     20  C   UNL     1      50.959   6.405   9.779  0.00  0.00    +0.000 C 
ATOM     21  C   UNL     1      50.943   6.011  11.225  0.00  0.00    +0.000 C 
ATOM     22  C   UNL     1      50.878   6.940  12.392  0.00  0.00    +0.000 C 
ENDROOT
BRANCH  13  23
ATOM     23  C   UNL     1      52.368  -1.145   8.018  0.00  0.00    +0.000 C 
ATOM     24  C   UNL     1      53.479  -1.315   6.983  0.00  0.00    +0.000 C 
ATOM     25  C   UNL     1      51.454  -2.132   7.912  0.00  0.00    +0.000 C 
ENDBRANCH  13  23
BRANCH  14  26
ATOM     26  O   UNL     1      50.687   4.731   7.979  0.00  0.00    +0.000 OA
ATOM     27  H   UNL     1      50.505   3.804   8.230  0.00  0.00    +0.000 HD
ENDBRANCH  14  26
BRANCH  15  28
ATOM     28  O   UNL     1      52.671   6.986   7.543  0.00  0.00    +0.000 OA
ATOM     29  H   UNL     1      51.800   7.144   7.120  0.00  0.00    +0.000 HD
ENDBRANCH  15  28
BRANCH  17  30
ATOM     30  C   UNL     1      53.713   0.416  12.017  0.00  0.00    +0.000 C 
ATOM     31  C   UNL     1      54.177   0.042  13.059  0.00  0.00    +0.000 C 
BRANCH  31  32
ATOM     32  C   UNL     1      54.768  -0.435  14.389  0.00  0.00    +0.000 C 
ATOM     33  C   UNL     1      55.230  -0.809  15.431  0.00  0.00    +0.000 C 
BRANCH  33  34
ATOM     34  C   UNL     1      55.818  -1.286  16.763  0.00  0.00    +0.000 C 
ATOM     35  C   UNL     1      56.405  -1.761  18.094  0.00  0.00    +0.000 C 
BRANCH  35  36
ATOM     36  C   UNL     1      56.992  -2.237  19.428  0.00  0.00    +0.000 C 
ATOM     37  C   UNL     1      57.578  -2.711  20.761  0.00  0.00    +0.000 C 
ATOM     38  C   UNL     1      58.162  -3.187  22.095  0.00  0.00    +0.000 C 
ENDBRANCH  35  36
ENDBRANCH  33  34
ENDBRANCH  31  32
ENDBRANCH  17  30
BRANCH  16  39
ATOM     39  O   UNL     1      49.722   0.373   7.929  0.00  0.00    +0.000 OA
BRANCH  39  41
ATOM     40  O   UNL     1      48.346   1.789   6.754  0.00  0.00    +0.000 OA
ATOM     41  C   UNL     1      49.378   1.149   6.859  0.00  0.00    +0.000 C 
BRANCH  41  42
ATOM     42  C   UNL     1      50.417   1.072   5.816  0.00  0.00    +0.000 A 
ATOM     43  C   UNL     1      51.309   2.122   5.596  0.00  0.00    +0.000 A 
ATOM     44  C   UNL     1      50.493  -0.086   5.044  0.00  0.00    +0.000 A 
ATOM     45  C   UNL     1      52.278   2.011   4.602  0.00  0.00    +0.000 A 
ATOM     46  C   UNL     1      51.463  -0.194   4.051  0.00  0.00    +0.000 A 
ATOM     47  C   UNL     1      52.354   0.854   3.830  0.00  0.00    +0.000 A 
ENDBRANCH  41  42
ENDBRANCH  39  41
ENDBRANCH  16  39
BRANCH   9  48
ATOM     48  C   UNL     1      55.065   5.523   7.123  0.00  0.00    +0.000 C 
BRANCH  48  49
ATOM     49  O   UNL     1      56.017   6.046   6.355  0.00  0.00    +0.000 OA
ATOM     50  H   UNL     1      56.891   5.918   6.763  0.00  0.00    +0.000 HD
ENDBRANCH  48  49
ENDBRANCH   9  48
TORSDOF 12
ENDMDL
MODEL 8
REMARK VINA RESULT:      -5.2     14.538     19.517
REMARK  Name = 5358691_Yuanhuacine.pdbqt.pdb
REMARK  12 active torsions:
REMARK  status: ('A' for Active; 'I' for Inactive)
REMARK    1  A    between atoms: C_9  and  C_48
REMARK    2  A    between atoms: C_13  and  C_23
REMARK    3  A    between atoms: C_14  and  O_26
REMARK    4  A    between atoms: C_15  and  O_28
REMARK    5  A    between atoms: C_16  and  O_39
REMARK    6  A    between atoms: C_17  and  C_30
REMARK    7  A    between atoms: C_31  and  C_32
REMARK    8  A    between atoms: C_33  and  C_34
REMARK    9  A    between atoms: C_35  and  C_36
REMARK   10  A    between atoms: O_39  and  C_41
REMARK   11  A    between atoms: C_41  and  C_42
REMARK   12  A    between atoms: C_48  and  O_49
REMARK                            x       y       z     vdW  Elec       q    Type
REMARK                         _______ _______ _______ _____ _____    ______ ____
ROOT
ATOM      1  O   UNL     1      31.095   6.309  21.656  0.00  0.00    +0.000 OA
ATOM      2  O   UNL     1      33.000   8.218  23.889  0.00  0.00    +0.000 OA
ATOM      3  O   UNL     1      34.306   7.122  22.238  0.00  0.00    +0.000 OA
ATOM      4  O   UNL     1      35.261   7.604  24.266  0.00  0.00    +0.000 OA
ATOM      5  O   UNL     1      27.696   6.315  25.602  0.00  0.00    +0.000 OA
ATOM      6  C   UNL     1      32.720   5.878  23.292  0.00  0.00    +0.000 C 
ATOM      7  C   UNL     1      32.393   6.964  24.328  0.00  0.00    +0.000 C 
ATOM      8  C   UNL     1      31.822   5.345  22.307  0.00  0.00    +0.000 C 
ATOM      9  C   UNL     1      30.371   5.192  22.190  0.00  0.00    +0.000 C 
ATOM     10  C   UNL     1      34.160   5.986  23.031  0.00  0.00    +0.000 C 
ATOM     11  C   UNL     1      30.919   7.205  24.448  0.00  0.00    +0.000 C 
ATOM     12  C   UNL     1      33.028   6.557  25.692  0.00  0.00    +0.000 C 
ATOM     13  C   UNL     1      35.076   6.160  24.266  0.00  0.00    +0.000 C 
ATOM     14  C   UNL     1      29.949   6.061  24.643  0.00  0.00    +0.000 C 
ATOM     15  C   UNL     1      29.511   5.354  23.394  0.00  0.00    +0.000 C 
ATOM     16  C   UNL     1      34.323   5.909  25.561  0.00  0.00    +0.000 C 
ATOM     17  C   UNL     1      34.318   8.076  23.306  0.00  0.00    +0.000 C 
ATOM     18  C   UNL     1      30.283   8.408  24.851  0.00  0.00    +0.000 C 
ATOM     19  C   UNL     1      32.539   6.979  27.078  0.00  0.00    +0.000 C 
ATOM     20  C   UNL     1      28.749   6.849  25.263  0.00  0.00    +0.000 C 
ATOM     21  C   UNL     1      29.095   8.306  25.344  0.00  0.00    +0.000 C 
ATOM     22  C   UNL     1      28.126   9.440  25.418  0.00  0.00    +0.000 C 
ENDROOT
BRANCH  13  23
ATOM     23  C   UNL     1      36.396   5.381  24.057  0.00  0.00    +0.000 C 
ATOM     24  C   UNL     1      37.693   5.675  24.809  0.00  0.00    +0.000 C 
ATOM     25  C   UNL     1      36.621   4.566  23.006  0.00  0.00    +0.000 C 
ENDBRANCH  13  23
BRANCH  14  26
ATOM     26  O   UNL     1      30.471   5.095  25.530  0.00  0.00    +0.000 OA
ATOM     27  H   UNL     1      29.711   4.656  25.961  0.00  0.00    +0.000 HD
ENDBRANCH  14  26
BRANCH  15  28
ATOM     28  O   UNL     1      28.300   4.660  23.454  0.00  0.00    +0.000 OA
ATOM     29  H   UNL     1      28.084   4.133  22.655  0.00  0.00    +0.000 HD
ENDBRANCH  15  28
BRANCH  17  30
ATOM     30  C   UNL     1      34.751   9.376  22.801  0.00  0.00    +0.000 C 
ATOM     31  C   UNL     1      35.108  10.444  22.386  0.00  0.00    +0.000 C 
BRANCH  31  32
ATOM     32  C   UNL     1      35.566  11.805  21.856  0.00  0.00    +0.000 C 
ATOM     33  C   UNL     1      35.925  12.873  21.441  0.00  0.00    +0.000 C 
BRANCH  33  34
ATOM     34  C   UNL     1      36.384  14.236  20.914  0.00  0.00    +0.000 C 
ATOM     35  C   UNL     1      36.843  15.598  20.388  0.00  0.00    +0.000 C 
BRANCH  35  36
ATOM     36  C   UNL     1      37.302  16.963  19.863  0.00  0.00    +0.000 C 
ATOM     37  C   UNL     1      37.761  18.326  19.337  0.00  0.00    +0.000 C 
ATOM     38  C   UNL     1      38.220  19.689  18.810  0.00  0.00    +0.000 C 
ENDBRANCH  35  36
ENDBRANCH  33  34
ENDBRANCH  31  32
ENDBRANCH  17  30
BRANCH  16  39
ATOM     39  O   UNL     1      34.794   5.147  26.644  0.00  0.00    +0.000 OA
BRANCH  39  41
ATOM     40  O   UNL     1      33.276   3.712  27.601  0.00  0.00    +0.000 OA
ATOM     41  C   UNL     1      34.166   3.945  26.801  0.00  0.00    +0.000 C 
BRANCH  41  42
ATOM     42  C   UNL     1      34.746   2.941  25.890  0.00  0.00    +0.000 A 
ATOM     43  C   UNL     1      34.041   2.463  24.786  0.00  0.00    +0.000 A 
ATOM     44  C   UNL     1      36.032   2.474  26.157  0.00  0.00    +0.000 A 
ATOM     45  C   UNL     1      34.625   1.516  23.948  0.00  0.00    +0.000 A 
ATOM     46  C   UNL     1      36.613   1.527  25.317  0.00  0.00    +0.000 A 
ATOM     47  C   UNL     1      35.909   1.049  24.214  0.00  0.00    +0.000 A 
ENDBRANCH  41  42
ENDBRANCH  39  41
ENDBRANCH  16  39
BRANCH   9  48
ATOM     48  C   UNL     1      29.856   4.375  21.099  0.00  0.00    +0.000 C 
BRANCH  48  49
ATOM     49  O   UNL     1      29.385   3.625  20.107  0.00  0.00    +0.000 OA
ATOM     50  H   UNL     1      30.095   3.409  19.477  0.00  0.00    +0.000 HD
ENDBRANCH  48  49
ENDBRANCH   9  48
TORSDOF 12
ENDMDL
MODEL 9
REMARK VINA RESULT:      -5.1     21.942     24.463
REMARK  Name = 5358691_Yuanhuacine.pdbqt.pdb
REMARK  12 active torsions:
REMARK  status: ('A' for Active; 'I' for Inactive)
REMARK    1  A    between atoms: C_9  and  C_48
REMARK    2  A    between atoms: C_13  and  C_23
REMARK    3  A    between atoms: C_14  and  O_26
REMARK    4  A    between atoms: C_15  and  O_28
REMARK    5  A    between atoms: C_16  and  O_39
REMARK    6  A    between atoms: C_17  and  C_30
REMARK    7  A    between atoms: C_31  and  C_32
REMARK    8  A    between atoms: C_33  and  C_34
REMARK    9  A    between atoms: C_35  and  C_36
REMARK   10  A    between atoms: O_39  and  C_41
REMARK   11  A    between atoms: C_41  and  C_42
REMARK   12  A    between atoms: C_48  and  O_49
REMARK                            x       y       z     vdW  Elec       q    Type
REMARK                         _______ _______ _______ _____ _____    ______ ____
ROOT
ATOM      1  O   UNL     1      54.102  19.817  15.580  0.00  0.00    +0.000 OA
ATOM      2  O   UNL     1      53.130  16.514  14.945  0.00  0.00    +0.000 OA
ATOM      3  O   UNL     1      55.188  17.101  13.918  0.00  0.00    +0.000 OA
ATOM      4  O   UNL     1      53.899  15.465  12.960  0.00  0.00    +0.000 OA
ATOM      5  O   UNL     1      48.998  20.453  16.392  0.00  0.00    +0.000 OA
ATOM      6  C   UNL     1      53.466  18.572  13.696  0.00  0.00    +0.000 C 
ATOM      7  C   UNL     1      52.425  17.622  14.306  0.00  0.00    +0.000 C 
ATOM      8  C   UNL     1      53.873  19.842  14.228  0.00  0.00    +0.000 C 
ATOM      9  C   UNL     1      53.260  20.864  15.079  0.00  0.00    +0.000 C 
ATOM     10  C   UNL     1      54.402  17.724  12.949  0.00  0.00    +0.000 C 
ATOM     11  C   UNL     1      51.602  18.290  15.366  0.00  0.00    +0.000 C 
ATOM     12  C   UNL     1      51.541  17.050  13.158  0.00  0.00    +0.000 C 
ATOM     13  C   UNL     1      53.779  16.612  12.071  0.00  0.00    +0.000 C 
ATOM     14  C   UNL     1      50.934  19.624  15.117  0.00  0.00    +0.000 C 
ATOM     15  C   UNL     1      51.793  20.836  15.326  0.00  0.00    +0.000 C 
ATOM     16  C   UNL     1      52.277  16.786  11.932  0.00  0.00    +0.000 C 
ATOM     17  C   UNL     1      54.282  16.031  14.211  0.00  0.00    +0.000 C 
ATOM     18  C   UNL     1      50.964  17.665  16.468  0.00  0.00    +0.000 C 
ATOM     19  C   UNL     1      50.102  16.550  13.289  0.00  0.00    +0.000 C 
ATOM     20  C   UNL     1      49.820  19.558  16.213  0.00  0.00    +0.000 C 
ATOM     21  C   UNL     1      49.949  18.276  16.981  0.00  0.00    +0.000 C 
ATOM     22  C   UNL     1      49.431  18.016  18.358  0.00  0.00    +0.000 C 
ENDROOT
BRANCH  13  23
ATOM     23  C   UNL     1      54.593  16.454  10.766  0.00  0.00    +0.000 C 
ATOM     24  C   UNL     1      54.886  17.596   9.795  0.00  0.00    +0.000 C 
ATOM     25  C   UNL     1      54.882  15.260  10.208  0.00  0.00    +0.000 C 
ENDBRANCH  13  23
BRANCH  14  26
ATOM     26  O   UNL     1      50.398  19.690  13.812  0.00  0.00    +0.000 OA
ATOM     27  H   UNL     1      50.293  20.636  13.590  0.00  0.00    +0.000 HD
ENDBRANCH  14  26
BRANCH  15  28
ATOM     28  O   UNL     1      51.132  22.039  15.589  0.00  0.00    +0.000 OA
ATOM     29  H   UNL     1      51.201  22.355  16.515  0.00  0.00    +0.000 HD
ENDBRANCH  15  28
BRANCH  17  30
ATOM     30  C   UNL     1      54.960  15.018  15.014  0.00  0.00    +0.000 C 
ATOM     31  C   UNL     1      55.517  14.183  15.672  0.00  0.00    +0.000 C 
BRANCH  31  32
ATOM     32  C   UNL     1      56.228  13.118  16.511  0.00  0.00    +0.000 C 
ATOM     33  C   UNL     1      56.786  12.282  17.168  0.00  0.00    +0.000 C 
BRANCH  33  34
ATOM     34  C   UNL     1      57.496  11.214  18.005  0.00  0.00    +0.000 C 
ATOM     35  C   UNL     1      58.206  10.146  18.841  0.00  0.00    +0.000 C 
BRANCH  35  36
ATOM     36  C   UNL     1      58.919   9.078  19.678  0.00  0.00    +0.000 C 
ATOM     37  C   UNL     1      59.631   8.011  20.514  0.00  0.00    +0.000 C 
ATOM     38  C   UNL     1      60.343   6.942  21.349  0.00  0.00    +0.000 C 
ENDBRANCH  35  36
ENDBRANCH  33  34
ENDBRANCH  31  32
ENDBRANCH  17  30
BRANCH  16  39
ATOM     39  O   UNL     1      51.549  16.666  10.736  0.00  0.00    +0.000 OA
BRANCH  39  41
ATOM     40  O   UNL     1      51.651  18.941  10.424  0.00  0.00    +0.000 OA
ATOM     41  C   UNL     1      51.136  17.857  10.209  0.00  0.00    +0.000 C 
BRANCH  41  42
ATOM     42  C   UNL     1      49.942  17.657   9.368  0.00  0.00    +0.000 A 
ATOM     43  C   UNL     1      49.993  17.803   7.982  0.00  0.00    +0.000 A 
ATOM     44  C   UNL     1      48.744  17.314   9.994  0.00  0.00    +0.000 A 
ATOM     45  C   UNL     1      48.842  17.604   7.221  0.00  0.00    +0.000 A 
ATOM     46  C   UNL     1      47.597  17.116   9.231  0.00  0.00    +0.000 A 
ATOM     47  C   UNL     1      47.646  17.261   7.846  0.00  0.00    +0.000 A 
ENDBRANCH  41  42
ENDBRANCH  39  41
ENDBRANCH  16  39
BRANCH   9  48
ATOM     48  C   UNL     1      53.941  22.145  15.208  0.00  0.00    +0.000 C 
BRANCH  48  49
ATOM     49  O   UNL     1      54.558  23.317  15.323  0.00  0.00    +0.000 OA
ATOM     50  H   UNL     1      55.369  23.225  15.853  0.00  0.00    +0.000 HD
ENDBRANCH  48  49
ENDBRANCH   9  48
TORSDOF 12
ENDMDL
