MODEL 1
REMARK VINA RESULT:      -6.2      0.000      0.000
REMARK  Name = 5386_Tegafur.pdbqt.pdb
REMARK  1 active torsions:
REMARK  status: ('A' for Active; 'I' for Inactive)
REMARK    1  A    between atoms: N_4  and  C_12
REMARK                            x       y       z     vdW  Elec       q    Type
REMARK                         _______ _______ _______ _____ _____    ______ ____
ROOT
ATOM      1  F   UNL     1      38.131  -1.962  14.247  0.00  0.00    +0.000 F 
ATOM      2  O   UNL     1      42.701  -1.170  11.419  0.00  0.00    +0.000 OA
ATOM      3  O   UNL     1      38.557   0.354  12.681  0.00  0.00    +0.000 OA
ATOM      4  N   UNL     1      41.523  -2.394  13.066  0.00  0.00    +0.000 N 
ATOM      5  N   UNL     1      40.663  -0.409  12.147  0.00  0.00    +0.000 N 
ATOM      6  C   UNL     1      41.734  -1.333  12.155  0.00  0.00    +0.000 C 
ATOM      7  C   UNL     1      40.373  -2.381  13.770  0.00  0.00    +0.000 C 
ATOM      8  C   UNL     1      39.354  -1.593  13.833  0.00  0.00    +0.000 C 
ATOM      9  C   UNL     1      39.457  -0.458  12.859  0.00  0.00    +0.000 C 
ATOM     10  H   UNL     1      40.751   0.346  11.483  0.00  0.00    +0.000 HD
ENDROOT
BRANCH   4  12
ATOM     11  O   UNL     1      42.181  -4.713  12.786  0.00  0.00    +0.000 OA
ATOM     12  C   UNL     1      42.406  -3.416  13.260  0.00  0.00    +0.000 C 
ATOM     13  C   UNL     1      43.653  -3.402  13.942  0.00  0.00    +0.000 C 
ATOM     14  C   UNL     1      44.524  -4.653  14.074  0.00  0.00    +0.000 C 
ATOM     15  C   UNL     1      43.332  -5.186  13.282  0.00  0.00    +0.000 C 
ENDBRANCH   4  12
TORSDOF 1
ENDMDL
MODEL 2
REMARK VINA RESULT:      -6.1      3.239      4.939
REMARK  Name = 5386_Tegafur.pdbqt.pdb
REMARK  1 active torsions:
REMARK  status: ('A' for Active; 'I' for Inactive)
REMARK    1  A    between atoms: N_4  and  C_12
REMARK                            x       y       z     vdW  Elec       q    Type
REMARK                         _______ _______ _______ _____ _____    ______ ____
ROOT
ATOM      1  F   UNL     1      43.095  -2.000  12.850  0.00  0.00    +0.000 F 
ATOM      2  O   UNL     1      39.228   1.670  13.890  0.00  0.00    +0.000 OA
ATOM      3  O   UNL     1      41.484  -0.883  10.811  0.00  0.00    +0.000 OA
ATOM      4  N   UNL     1      40.768   0.063  14.695  0.00  0.00    +0.000 N 
ATOM      5  N   UNL     1      40.322   0.311  12.401  0.00  0.00    +0.000 N 
ATOM      6  C   UNL     1      40.033   0.762  13.710  0.00  0.00    +0.000 C 
ATOM      7  C   UNL     1      41.613  -0.897  14.268  0.00  0.00    +0.000 C 
ATOM      8  C   UNL     1      41.937  -1.374  13.115  0.00  0.00    +0.000 C 
ATOM      9  C   UNL     1      41.249  -0.657  11.992  0.00  0.00    +0.000 C 
ATOM     10  H   UNL     1      39.849   0.808  11.660  0.00  0.00    +0.000 HD
ENDROOT
BRANCH   4  12
ATOM     11  O   UNL     1      41.633   1.041  16.742  0.00  0.00    +0.000 OA
ATOM     12  C   UNL     1      40.671   0.311  16.034  0.00  0.00    +0.000 C 
ATOM     13  C   UNL     1      39.658  -0.090  16.946  0.00  0.00    +0.000 C 
ATOM     14  C   UNL     1      39.708   0.271  18.432  0.00  0.00    +0.000 C 
ATOM     15  C   UNL     1      40.990   0.918  17.910  0.00  0.00    +0.000 C 
ENDBRANCH   4  12
TORSDOF 1
ENDMDL
MODEL 3
REMARK VINA RESULT:      -5.0      2.238      4.649
REMARK  Name = 5386_Tegafur.pdbqt.pdb
REMARK  1 active torsions:
REMARK  status: ('A' for Active; 'I' for Inactive)
REMARK    1  A    between atoms: N_4  and  C_12
REMARK                            x       y       z     vdW  Elec       q    Type
REMARK                         _______ _______ _______ _____ _____    ______ ____
ROOT
ATOM      1  F   UNL     1      41.921  -4.441  14.993  0.00  0.00    +0.000 F 
ATOM      2  O   UNL     1      41.056  -0.411  11.455  0.00  0.00    +0.000 OA
ATOM      3  O   UNL     1      42.234  -4.785  12.202  0.00  0.00    +0.000 OA
ATOM      4  N   UNL     1      40.857  -1.252  13.657  0.00  0.00    +0.000 N 
ATOM      5  N   UNL     1      41.552  -2.611  11.870  0.00  0.00    +0.000 N 
ATOM      6  C   UNL     1      41.135  -1.321  12.272  0.00  0.00    +0.000 C 
ATOM      7  C   UNL     1      41.024  -2.381  14.376  0.00  0.00    +0.000 C 
ATOM      8  C   UNL     1      41.392  -3.586  14.101  0.00  0.00    +0.000 C 
ATOM      9  C   UNL     1      41.765  -3.750  12.659  0.00  0.00    +0.000 C 
ATOM     10  H   UNL     1      41.800  -2.699  10.895  0.00  0.00    +0.000 HD
ENDROOT
BRANCH   4  12
ATOM     11  O   UNL     1      39.622   0.838  13.679  0.00  0.00    +0.000 OA
ATOM     12  C   UNL     1      40.439  -0.119  14.293  0.00  0.00    +0.000 C 
ATOM     13  C   UNL     1      40.721   0.319  15.615  0.00  0.00    +0.000 C 
ATOM     14  C   UNL     1      40.172   1.633  16.173  0.00  0.00    +0.000 C 
ATOM     15  C   UNL     1      39.595   1.630  14.758  0.00  0.00    +0.000 C 
ENDBRANCH   4  12
TORSDOF 1
ENDMDL
MODEL 4
REMARK VINA RESULT:      -4.8      2.862      5.228
REMARK  Name = 5386_Tegafur.pdbqt.pdb
REMARK  1 active torsions:
REMARK  status: ('A' for Active; 'I' for Inactive)
REMARK    1  A    between atoms: N_4  and  C_12
REMARK                            x       y       z     vdW  Elec       q    Type
REMARK                         _______ _______ _______ _____ _____    ______ ____
ROOT
ATOM      1  F   UNL     1      43.991  -2.362  17.204  0.00  0.00    +0.000 F 
ATOM      2  O   UNL     1      42.434  -1.377  12.095  0.00  0.00    +0.000 OA
ATOM      3  O   UNL     1      45.077  -3.759  14.997  0.00  0.00    +0.000 OA
ATOM      4  N   UNL     1      42.073  -1.088  14.415  0.00  0.00    +0.000 N 
ATOM      5  N   UNL     1      43.669  -2.602  13.589  0.00  0.00    +0.000 N 
ATOM      6  C   UNL     1      42.679  -1.646  13.265  0.00  0.00    +0.000 C 
ATOM      7  C   UNL     1      42.509  -1.525  15.614  0.00  0.00    +0.000 C 
ATOM      8  C   UNL     1      43.391  -2.382  16.003  0.00  0.00    +0.000 C 
ATOM      9  C   UNL     1      44.132  -2.993  14.853  0.00  0.00    +0.000 C 
ATOM     10  H   UNL     1      44.157  -3.000  12.799  0.00  0.00    +0.000 HD
ENDROOT
BRANCH   4  12
ATOM     11  O   UNL     1      40.333   0.115  13.224  0.00  0.00    +0.000 OA
ATOM     12  C   UNL     1      41.091  -0.142  14.373  0.00  0.00    +0.000 C 
ATOM     13  C   UNL     1      40.651   0.736  15.400  0.00  0.00    +0.000 C 
ATOM     14  C   UNL     1      39.529   1.752  15.179  0.00  0.00    +0.000 C 
ATOM     15  C   UNL     1      39.613   1.080  13.810  0.00  0.00    +0.000 C 
ENDBRANCH   4  12
TORSDOF 1
ENDMDL
MODEL 5
REMARK VINA RESULT:      -4.8     21.190     22.524
REMARK  Name = 5386_Tegafur.pdbqt.pdb
REMARK  1 active torsions:
REMARK  status: ('A' for Active; 'I' for Inactive)
REMARK    1  A    between atoms: N_4  and  C_12
REMARK                            x       y       z     vdW  Elec       q    Type
REMARK                         _______ _______ _______ _____ _____    ______ ____
ROOT
ATOM      1  F   UNL     1      52.366  16.248  13.703  0.00  0.00    +0.000 F 
ATOM      2  O   UNL     1      49.047  16.944   9.460  0.00  0.00    +0.000 OA
ATOM      3  O   UNL     1      49.747  15.180  13.640  0.00  0.00    +0.000 OA
ATOM      4  N   UNL     1      51.040  17.530  10.591  0.00  0.00    +0.000 N 
ATOM      5  N   UNL     1      49.411  16.158  11.584  0.00  0.00    +0.000 N 
ATOM      6  C   UNL     1      49.782  16.903  10.439  0.00  0.00    +0.000 C 
ATOM      7  C   UNL     1      51.689  17.337  11.758  0.00  0.00    +0.000 C 
ATOM      8  C   UNL     1      51.433  16.688  12.843  0.00  0.00    +0.000 C 
ATOM      9  C   UNL     1      50.137  15.938  12.761  0.00  0.00    +0.000 C 
ATOM     10  H   UNL     1      48.536  15.660  11.507  0.00  0.00    +0.000 HD
ENDROOT
BRANCH   4  12
ATOM     11  O   UNL     1      51.029  19.467   9.129  0.00  0.00    +0.000 OA
ATOM     12  C   UNL     1      51.624  18.303   9.630  0.00  0.00    +0.000 C 
ATOM     13  C   UNL     1      52.866  18.117   8.965  0.00  0.00    +0.000 C 
ATOM     14  C   UNL     1      53.372  19.087   7.896  0.00  0.00    +0.000 C 
ATOM     15  C   UNL     1      52.036  19.719   8.282  0.00  0.00    +0.000 C 
ENDBRANCH   4  12
TORSDOF 1
ENDMDL
MODEL 6
REMARK VINA RESULT:      -4.6     10.950     12.367
REMARK  Name = 5386_Tegafur.pdbqt.pdb
REMARK  1 active torsions:
REMARK  status: ('A' for Active; 'I' for Inactive)
REMARK    1  A    between atoms: N_4  and  C_12
REMARK                            x       y       z     vdW  Elec       q    Type
REMARK                         _______ _______ _______ _____ _____    ______ ____
ROOT
ATOM      1  F   UNL     1      52.367   1.240  10.862  0.00  0.00    +0.000 F 
ATOM      2  O   UNL     1      48.067   4.505  10.266  0.00  0.00    +0.000 OA
ATOM      3  O   UNL     1      49.727   0.375  11.393  0.00  0.00    +0.000 OA
ATOM      4  N   UNL     1      50.416   4.248  10.385  0.00  0.00    +0.000 N 
ATOM      5  N   UNL     1      48.950   2.487  10.904  0.00  0.00    +0.000 N 
ATOM      6  C   UNL     1      49.068   3.835  10.493  0.00  0.00    +0.000 C 
ATOM      7  C   UNL     1      51.366   3.335  10.672  0.00  0.00    +0.000 C 
ATOM      8  C   UNL     1      51.356   2.102  11.052  0.00  0.00    +0.000 C 
ATOM      9  C   UNL     1      49.965   1.551  11.144  0.00  0.00    +0.000 C 
ATOM     10  H   UNL     1      48.005   2.134  10.958  0.00  0.00    +0.000 HD
ENDROOT
BRANCH   4  12
ATOM     11  O   UNL     1      50.831   5.911   8.666  0.00  0.00    +0.000 OA
ATOM     12  C   UNL     1      50.798   5.502  10.004  0.00  0.00    +0.000 C 
ATOM     13  C   UNL     1      51.226   6.590  10.812  0.00  0.00    +0.000 C 
ATOM     14  C   UNL     1      51.629   7.940  10.215  0.00  0.00    +0.000 C 
ATOM     15  C   UNL     1      51.265   7.143   8.964  0.00  0.00    +0.000 C 
ENDBRANCH   4  12
TORSDOF 1
ENDMDL
MODEL 7
REMARK VINA RESULT:      -4.5      4.180      5.035
REMARK  Name = 5386_Tegafur.pdbqt.pdb
REMARK  1 active torsions:
REMARK  status: ('A' for Active; 'I' for Inactive)
REMARK    1  A    between atoms: N_4  and  C_12
REMARK                            x       y       z     vdW  Elec       q    Type
REMARK                         _______ _______ _______ _____ _____    ______ ____
ROOT
ATOM      1  F   UNL     1      42.402  -1.564  18.603  0.00  0.00    +0.000 F 
ATOM      2  O   UNL     1      40.197   2.116  15.273  0.00  0.00    +0.000 OA
ATOM      3  O   UNL     1      41.336   0.881  19.545  0.00  0.00    +0.000 OA
ATOM      4  N   UNL     1      41.475   0.145  15.554  0.00  0.00    +0.000 N 
ATOM      5  N   UNL     1      40.864   1.496  17.377  0.00  0.00    +0.000 N 
ATOM      6  C   UNL     1      40.799   1.313  15.976  0.00  0.00    +0.000 C 
ATOM      7  C   UNL     1      42.062  -0.606  16.508  0.00  0.00    +0.000 C 
ATOM      8  C   UNL     1      42.176  -0.520  17.789  0.00  0.00    +0.000 C 
ATOM      9  C   UNL     1      41.441   0.662  18.345  0.00  0.00    +0.000 C 
ATOM     10  H   UNL     1      40.362   2.298  17.731  0.00  0.00    +0.000 HD
ENDROOT
BRANCH   4  12
ATOM     11  O   UNL     1      40.868   0.386  13.216  0.00  0.00    +0.000 OA
ATOM     12  C   UNL     1      41.557  -0.256  14.252  0.00  0.00    +0.000 C 
ATOM     13  C   UNL     1      42.292  -1.337  13.695  0.00  0.00    +0.000 C 
ATOM     14  C   UNL     1      42.267  -1.655  12.199  0.00  0.00    +0.000 C 
ATOM     15  C   UNL     1      41.340  -0.443  12.275  0.00  0.00    +0.000 C 
ENDBRANCH   4  12
TORSDOF 1
ENDMDL
MODEL 8
REMARK VINA RESULT:      -4.5     20.999     22.015
REMARK  Name = 5386_Tegafur.pdbqt.pdb
REMARK  1 active torsions:
REMARK  status: ('A' for Active; 'I' for Inactive)
REMARK    1  A    between atoms: N_4  and  C_12
REMARK                            x       y       z     vdW  Elec       q    Type
REMARK                         _______ _______ _______ _____ _____    ______ ____
ROOT
ATOM      1  F   UNL     1      38.347   4.648 -10.248  0.00  0.00    +0.000 F 
ATOM      2  O   UNL     1      39.197   1.558  -5.863  0.00  0.00    +0.000 OA
ATOM      3  O   UNL     1      36.955   5.054  -7.820  0.00  0.00    +0.000 OA
ATOM      4  N   UNL     1      39.509   1.917  -8.180  0.00  0.00    +0.000 N 
ATOM      5  N   UNL     1      38.039   3.238  -6.910  0.00  0.00    +0.000 N 
ATOM      6  C   UNL     1      38.955   2.160  -6.903  0.00  0.00    +0.000 C 
ATOM      7  C   UNL     1      39.107   2.718  -9.189  0.00  0.00    +0.000 C 
ATOM      8  C   UNL     1      38.288   3.708  -9.291  0.00  0.00    +0.000 C 
ATOM      9  C   UNL     1      37.685   4.082  -7.971  0.00  0.00    +0.000 C 
ATOM     10  H   UNL     1      37.646   3.474  -6.009  0.00  0.00    +0.000 HD
ENDROOT
BRANCH   4  12
ATOM     11  O   UNL     1      40.050  -0.353  -8.847  0.00  0.00    +0.000 OA
ATOM     12  C   UNL     1      40.420   0.934  -8.439  0.00  0.00    +0.000 C 
ATOM     13  C   UNL     1      41.837   0.983  -8.353  0.00  0.00    +0.000 C 
ATOM     14  C   UNL     1      42.716  -0.226  -8.676  0.00  0.00    +0.000 C 
ATOM     15  C   UNL     1      41.316  -0.787  -8.916  0.00  0.00    +0.000 C 
ENDBRANCH   4  12
TORSDOF 1
ENDMDL
MODEL 9
REMARK VINA RESULT:      -4.4     13.658     15.049
REMARK  Name = 5386_Tegafur.pdbqt.pdb
REMARK  1 active torsions:
REMARK  status: ('A' for Active; 'I' for Inactive)
REMARK    1  A    between atoms: N_4  and  C_12
REMARK                            x       y       z     vdW  Elec       q    Type
REMARK                         _______ _______ _______ _____ _____    ______ ____
ROOT
ATOM      1  F   UNL     1      53.994   7.820  12.692  0.00  0.00    +0.000 F 
ATOM      2  O   UNL     1      50.037   5.359   9.901  0.00  0.00    +0.000 OA
ATOM      3  O   UNL     1      52.528   5.643  13.747  0.00  0.00    +0.000 OA
ATOM      4  N   UNL     1      51.524   7.185  10.127  0.00  0.00    +0.000 N 
ATOM      5  N   UNL     1      51.246   5.596  11.836  0.00  0.00    +0.000 N 
ATOM      6  C   UNL     1      50.858   6.008  10.539  0.00  0.00    +0.000 C 
ATOM      7  C   UNL     1      52.405   7.730  10.991  0.00  0.00    +0.000 C 
ATOM      8  C   UNL     1      52.815   7.433  12.177  0.00  0.00    +0.000 C 
ATOM      9  C   UNL     1      52.206   6.161  12.685  0.00  0.00    +0.000 C 
ATOM     10  H   UNL     1      50.825   4.736  12.158  0.00  0.00    +0.000 HD
ENDROOT
BRANCH   4  12
ATOM     11  O   UNL     1      50.602   8.974   8.769  0.00  0.00    +0.000 OA
ATOM     12  C   UNL     1      51.327   7.785   8.917  0.00  0.00    +0.000 C 
ATOM     13  C   UNL     1      51.770   7.372   7.632  0.00  0.00    +0.000 C 
ATOM     14  C   UNL     1      51.453   8.168   6.365  0.00  0.00    +0.000 C 
ATOM     15  C   UNL     1      50.769   9.010   7.441  0.00  0.00    +0.000 C 
ENDBRANCH   4  12
TORSDOF 1
ENDMDL
