MODEL 1
REMARK VINA RESULT:      -5.7      0.000      0.000
REMARK  Name = 5470187_Zerumbone.pdbqt.pdb
REMARK  0 active torsions:
REMARK  status: ('A' for Active; 'I' for Inactive)
REMARK                            x       y       z     vdW  Elec       q    Type
REMARK                         _______ _______ _______ _____ _____    ______ ____
ROOT
ATOM      1  O   UNL     1      38.704   0.767  18.652  0.00  0.00    +0.000 OA
ATOM      2  C   UNL     1      39.871  -3.125  15.939  0.00  0.00    +0.000 C 
ATOM      3  C   UNL     1      40.267  -2.835  14.540  0.00  0.00    +0.000 C 
ATOM      4  C   UNL     1      41.037  -3.816  16.687  0.00  0.00    +0.000 C 
ATOM      5  C   UNL     1      38.606  -4.019  15.945  0.00  0.00    +0.000 C 
ATOM      6  C   UNL     1      39.563  -1.804  16.576  0.00  0.00    +0.000 C 
ATOM      7  C   UNL     1      40.604  -2.129  13.214  0.00  0.00    +0.000 C 
ATOM      8  C   UNL     1      40.788  -1.184  12.341  0.00  0.00    +0.000 C 
ATOM      9  C   UNL     1      40.476   0.087  12.887  0.00  0.00    +0.000 C 
ATOM     10  C   UNL     1      40.046   1.092  13.958  0.00  0.00    +0.000 C 
ATOM     11  C   UNL     1      39.331  -0.701  17.007  0.00  0.00    +0.000 C 
ATOM     12  C   UNL     1      41.850  -1.315  11.300  0.00  0.00    +0.000 C 
ATOM     13  C   UNL     1      39.590   1.621  15.322  0.00  0.00    +0.000 C 
ATOM     14  C   UNL     1      39.211   1.829  16.549  0.00  0.00    +0.000 C 
ATOM     15  C   UNL     1      39.057   0.656  17.484  0.00  0.00    +0.000 C 
ATOM     16  C   UNL     1      38.935   3.258  16.949  0.00  0.00    +0.000 C 
ENDROOT
TORSDOF 0
ENDMDL
MODEL 2
REMARK VINA RESULT:      -5.5     15.157     17.876
REMARK  Name = 5470187_Zerumbone.pdbqt.pdb
REMARK  0 active torsions:
REMARK  status: ('A' for Active; 'I' for Inactive)
REMARK                            x       y       z     vdW  Elec       q    Type
REMARK                         _______ _______ _______ _____ _____    ______ ____
ROOT
ATOM      1  O   UNL     1      32.633  14.394  25.731  0.00  0.00    +0.000 OA
ATOM      2  C   UNL     1      34.920  12.353  21.927  0.00  0.00    +0.000 C 
ATOM      3  C   UNL     1      35.720  13.278  21.089  0.00  0.00    +0.000 C 
ATOM      4  C   UNL     1      35.835  11.261  22.532  0.00  0.00    +0.000 C 
ATOM      5  C   UNL     1      33.797  11.718  21.070  0.00  0.00    +0.000 C 
ATOM      6  C   UNL     1      34.318  13.182  23.020  0.00  0.00    +0.000 C 
ATOM      7  C   UNL     1      36.407  14.526  20.505  0.00  0.00    +0.000 C 
ATOM      8  C   UNL     1      36.785  15.761  20.358  0.00  0.00    +0.000 C 
ATOM      9  C   UNL     1      36.212  16.595  21.352  0.00  0.00    +0.000 C 
ATOM     10  C   UNL     1      35.381  16.945  22.588  0.00  0.00    +0.000 C 
ATOM     11  C   UNL     1      33.872  13.925  23.860  0.00  0.00    +0.000 C 
ATOM     12  C   UNL     1      38.132  16.076  19.797  0.00  0.00    +0.000 C 
ATOM     13  C   UNL     1      34.471  16.742  23.803  0.00  0.00    +0.000 C 
ATOM     14  C   UNL     1      33.701  16.328  24.767  0.00  0.00    +0.000 C 
ATOM     15  C   UNL     1      33.350  14.863  24.855  0.00  0.00    +0.000 C 
ATOM     16  C   UNL     1      33.198  17.367  25.739  0.00  0.00    +0.000 C 
ENDROOT
TORSDOF 0
ENDMDL
MODEL 3
REMARK VINA RESULT:      -5.0     11.665     13.911
REMARK  Name = 5470187_Zerumbone.pdbqt.pdb
REMARK  0 active torsions:
REMARK  status: ('A' for Active; 'I' for Inactive)
REMARK                            x       y       z     vdW  Elec       q    Type
REMARK                         _______ _______ _______ _____ _____    ______ ____
ROOT
ATOM      1  O   UNL     1      50.240   5.292  11.927  0.00  0.00    +0.000 OA
ATOM      2  C   UNL     1      50.098   1.719   8.598  0.00  0.00    +0.000 C 
ATOM      3  C   UNL     1      50.589   2.083   7.247  0.00  0.00    +0.000 C 
ATOM      4  C   UNL     1      50.957   0.574   9.184  0.00  0.00    +0.000 C 
ATOM      5  C   UNL     1      48.608   1.302   8.512  0.00  0.00    +0.000 C 
ATOM      6  C   UNL     1      50.234   2.948   9.444  0.00  0.00    +0.000 C 
ATOM      7  C   UNL     1      51.161   2.841   6.036  0.00  0.00    +0.000 C 
ATOM      8  C   UNL     1      51.661   3.799   5.314  0.00  0.00    +0.000 C 
ATOM      9  C   UNL     1      51.778   4.998   6.064  0.00  0.00    +0.000 C 
ATOM     10  C   UNL     1      51.687   5.903   7.294  0.00  0.00    +0.000 C 
ATOM     11  C   UNL     1      50.372   3.982  10.050  0.00  0.00    +0.000 C 
ATOM     12  C   UNL     1      52.636   3.495   4.225  0.00  0.00    +0.000 C 
ATOM     13  C   UNL     1      51.411   6.328   8.739  0.00  0.00    +0.000 C 
ATOM     14  C   UNL     1      51.102   6.450   9.997  0.00  0.00    +0.000 C 
ATOM     15  C   UNL     1      50.554   5.259  10.743  0.00  0.00    +0.000 C 
ATOM     16  C   UNL     1      51.308   7.807  10.626  0.00  0.00    +0.000 C 
ENDROOT
TORSDOF 0
ENDMDL
MODEL 4
REMARK VINA RESULT:      -5.0      1.795      2.035
REMARK  Name = 5470187_Zerumbone.pdbqt.pdb
REMARK  0 active torsions:
REMARK  status: ('A' for Active; 'I' for Inactive)
REMARK                            x       y       z     vdW  Elec       q    Type
REMARK                         _______ _______ _______ _____ _____    ______ ____
ROOT
ATOM      1  O   UNL     1      38.170   0.783  17.786  0.00  0.00    +0.000 OA
ATOM      2  C   UNL     1      39.533  -3.760  16.613  0.00  0.00    +0.000 C 
ATOM      3  C   UNL     1      40.727  -3.865  15.741  0.00  0.00    +0.000 C 
ATOM      4  C   UNL     1      39.797  -4.473  17.961  0.00  0.00    +0.000 C 
ATOM      5  C   UNL     1      38.309  -4.379  15.893  0.00  0.00    +0.000 C 
ATOM      6  C   UNL     1      39.302  -2.298  16.843  0.00  0.00    +0.000 C 
ATOM      7  C   UNL     1      41.951  -3.546  14.864  0.00  0.00    +0.000 C 
ATOM      8  C   UNL     1      42.864  -2.869  14.234  0.00  0.00    +0.000 C 
ATOM      9  C   UNL     1      42.668  -1.473  14.393  0.00  0.00    +0.000 C 
ATOM     10  C   UNL     1      42.004  -0.194  14.907  0.00  0.00    +0.000 C 
ATOM     11  C   UNL     1      39.187  -1.103  16.970  0.00  0.00    +0.000 C 
ATOM     12  C   UNL     1      44.242  -3.422  14.079  0.00  0.00    +0.000 C 
ATOM     13  C   UNL     1      41.017   0.699  15.665  0.00  0.00    +0.000 C 
ATOM     14  C   UNL     1      40.075   1.240  16.382  0.00  0.00    +0.000 C 
ATOM     15  C   UNL     1      39.085   0.352  17.093  0.00  0.00    +0.000 C 
ATOM     16  C   UNL     1      40.037   2.748  16.439  0.00  0.00    +0.000 C 
ENDROOT
TORSDOF 0
ENDMDL
MODEL 5
REMARK VINA RESULT:      -4.7      4.001      6.869
REMARK  Name = 5470187_Zerumbone.pdbqt.pdb
REMARK  0 active torsions:
REMARK  status: ('A' for Active; 'I' for Inactive)
REMARK                            x       y       z     vdW  Elec       q    Type
REMARK                         _______ _______ _______ _____ _____    ______ ____
ROOT
ATOM      1  O   UNL     1      38.215   3.578  17.005  0.00  0.00    +0.000 OA
ATOM      2  C   UNL     1      40.246   3.343  21.443  0.00  0.00    +0.000 C 
ATOM      3  C   UNL     1      41.348   2.364  21.591  0.00  0.00    +0.000 C 
ATOM      4  C   UNL     1      40.762   4.772  21.736  0.00  0.00    +0.000 C 
ATOM      5  C   UNL     1      39.087   2.969  22.401  0.00  0.00    +0.000 C 
ATOM      6  C   UNL     1      39.781   3.248  20.021  0.00  0.00    +0.000 C 
ATOM      7  C   UNL     1      42.404   1.275  21.330  0.00  0.00    +0.000 C 
ATOM      8  C   UNL     1      43.117   0.381  20.711  0.00  0.00    +0.000 C 
ATOM      9  C   UNL     1      42.691   0.228  19.367  0.00  0.00    +0.000 C 
ATOM     10  C   UNL     1      41.862   0.510  18.112  0.00  0.00    +0.000 C 
ATOM     11  C   UNL     1      39.467   3.102  18.865  0.00  0.00    +0.000 C 
ATOM     12  C   UNL     1      44.549   0.172  21.075  0.00  0.00    +0.000 C 
ATOM     13  C   UNL     1      40.810   1.163  17.211  0.00  0.00    +0.000 C 
ATOM     14  C   UNL     1      39.861   1.854  16.648  0.00  0.00    +0.000 C 
ATOM     15  C   UNL     1      39.119   2.887  17.459  0.00  0.00    +0.000 C 
ATOM     16  C   UNL     1      39.560   1.555  15.200  0.00  0.00    +0.000 C 
ENDROOT
TORSDOF 0
ENDMDL
MODEL 6
REMARK VINA RESULT:      -4.2     21.048     21.914
REMARK  Name = 5470187_Zerumbone.pdbqt.pdb
REMARK  0 active torsions:
REMARK  status: ('A' for Active; 'I' for Inactive)
REMARK                            x       y       z     vdW  Elec       q    Type
REMARK                         _______ _______ _______ _____ _____    ______ ____
ROOT
ATOM      1  O   UNL     1      21.119  -2.352   4.661  0.00  0.00    +0.000 OA
ATOM      2  C   UNL     1      23.541  -0.538   0.824  0.00  0.00    +0.000 C 
ATOM      3  C   UNL     1      23.595   0.941   0.743  0.00  0.00    +0.000 C 
ATOM      4  C   UNL     1      24.973  -1.116   0.929  0.00  0.00    +0.000 C 
ATOM      5  C   UNL     1      22.810  -1.100  -0.420  0.00  0.00    +0.000 C 
ATOM      6  C   UNL     1      22.763  -0.866   2.062  0.00  0.00    +0.000 C 
ATOM      7  C   UNL     1      23.422   2.445   1.020  0.00  0.00    +0.000 C 
ATOM      8  C   UNL     1      23.064   3.551   1.602  0.00  0.00    +0.000 C 
ATOM      9  C   UNL     1      22.293   3.293   2.764  0.00  0.00    +0.000 C 
ATOM     10  C   UNL     1      21.599   2.447   3.833  0.00  0.00    +0.000 C 
ATOM     11  C   UNL     1      22.123  -1.040   3.070  0.00  0.00    +0.000 C 
ATOM     12  C   UNL     1      23.940   4.759   1.533  0.00  0.00    +0.000 C 
ATOM     13  C   UNL     1      21.127   1.198   4.585  0.00  0.00    +0.000 C 
ATOM     14  C   UNL     1      20.846   0.013   5.042  0.00  0.00    +0.000 C 
ATOM     15  C   UNL     1      21.340  -1.202   4.297  0.00  0.00    +0.000 C 
ATOM     16  C   UNL     1      20.021  -0.059   6.304  0.00  0.00    +0.000 C 
ENDROOT
TORSDOF 0
ENDMDL
MODEL 7
REMARK VINA RESULT:      -3.9     16.239     19.057
REMARK  Name = 5470187_Zerumbone.pdbqt.pdb
REMARK  0 active torsions:
REMARK  status: ('A' for Active; 'I' for Inactive)
REMARK                            x       y       z     vdW  Elec       q    Type
REMARK                         _______ _______ _______ _____ _____    ______ ____
ROOT
ATOM      1  O   UNL     1      45.524  11.602  33.190  0.00  0.00    +0.000 OA
ATOM      2  C   UNL     1      46.224   9.571  28.801  0.00  0.00    +0.000 C 
ATOM      3  C   UNL     1      45.042   9.556  27.907  0.00  0.00    +0.000 C 
ATOM      4  C   UNL     1      47.371  10.381  28.149  0.00  0.00    +0.000 C 
ATOM      5  C   UNL     1      46.673   8.118  29.092  0.00  0.00    +0.000 C 
ATOM      6  C   UNL     1      45.787  10.233  30.072  0.00  0.00    +0.000 C 
ATOM      7  C   UNL     1      43.632   9.735  27.316  0.00  0.00    +0.000 C 
ATOM      8  C   UNL     1      42.381  10.072  27.209  0.00  0.00    +0.000 C 
ATOM      9  C   UNL     1      41.909  10.674  28.404  0.00  0.00    +0.000 C 
ATOM     10  C   UNL     1      41.988  11.223  29.830  0.00  0.00    +0.000 C 
ATOM     11  C   UNL     1      45.349  10.770  31.060  0.00  0.00    +0.000 C 
ATOM     12  C   UNL     1      41.820  10.482  25.888  0.00  0.00    +0.000 C 
ATOM     13  C   UNL     1      42.595  11.605  31.183  0.00  0.00    +0.000 C 
ATOM     14  C   UNL     1      43.322  11.834  32.237  0.00  0.00    +0.000 C 
ATOM     15  C   UNL     1      44.773  11.422  32.238  0.00  0.00    +0.000 C 
ATOM     16  C   UNL     1      42.641  12.497  33.411  0.00  0.00    +0.000 C 
ENDROOT
TORSDOF 0
ENDMDL
MODEL 8
REMARK VINA RESULT:      -3.7     16.391     18.422
REMARK  Name = 5470187_Zerumbone.pdbqt.pdb
REMARK  0 active torsions:
REMARK  status: ('A' for Active; 'I' for Inactive)
REMARK                            x       y       z     vdW  Elec       q    Type
REMARK                         _______ _______ _______ _____ _____    ______ ____
ROOT
ATOM      1  O   UNL     1      42.268  13.188  31.235  0.00  0.00    +0.000 OA
ATOM      2  C   UNL     1      41.481  10.068  27.558  0.00  0.00    +0.000 C 
ATOM      3  C   UNL     1      40.093  10.025  27.041  0.00  0.00    +0.000 C 
ATOM      4  C   UNL     1      42.452  10.501  26.433  0.00  0.00    +0.000 C 
ATOM      5  C   UNL     1      41.871   8.676  28.115  0.00  0.00    +0.000 C 
ATOM      6  C   UNL     1      41.492  11.079  28.663  0.00  0.00    +0.000 C 
ATOM      7  C   UNL     1      38.592  10.277  26.809  0.00  0.00    +0.000 C 
ATOM      8  C   UNL     1      37.398  10.774  26.940  0.00  0.00    +0.000 C 
ATOM      9  C   UNL     1      37.348  11.715  28.000  0.00  0.00    +0.000 C 
ATOM     10  C   UNL     1      37.886  12.574  29.146  0.00  0.00    +0.000 C 
ATOM     11  C   UNL     1      41.409  11.903  29.541  0.00  0.00    +0.000 C 
ATOM     12  C   UNL     1      36.513  10.935  25.749  0.00  0.00    +0.000 C 
ATOM     13  C   UNL     1      38.892  13.171  30.135  0.00  0.00    +0.000 C 
ATOM     14  C   UNL     1      39.912  13.530  30.859  0.00  0.00    +0.000 C 
ATOM     15  C   UNL     1      41.259  12.905  30.598  0.00  0.00    +0.000 C 
ATOM     16  C   UNL     1      39.662  14.558  31.937  0.00  0.00    +0.000 C 
ENDROOT
TORSDOF 0
ENDMDL
MODEL 9
REMARK VINA RESULT:      -3.6     19.314     23.086
REMARK  Name = 5470187_Zerumbone.pdbqt.pdb
REMARK  0 active torsions:
REMARK  status: ('A' for Active; 'I' for Inactive)
REMARK                            x       y       z     vdW  Elec       q    Type
REMARK                         _______ _______ _______ _____ _____    ______ ____
ROOT
ATOM      1  O   UNL     1      44.048 -12.189  -7.488  0.00  0.00    +0.000 OA
ATOM      2  C   UNL     1      47.577 -11.390  -4.204  0.00  0.00    +0.000 C 
ATOM      3  C   UNL     1      47.201 -10.530  -3.057  0.00  0.00    +0.000 C 
ATOM      4  C   UNL     1      47.998 -12.791  -3.700  0.00  0.00    +0.000 C 
ATOM      5  C   UNL     1      48.728 -10.722  -4.998  0.00  0.00    +0.000 C 
ATOM      6  C   UNL     1      46.359 -11.500  -5.070  0.00  0.00    +0.000 C 
ATOM      7  C   UNL     1      46.433  -9.631  -2.072  0.00  0.00    +0.000 C 
ATOM      8  C   UNL     1      45.467  -8.948  -1.532  0.00  0.00    +0.000 C 
ATOM      9  C   UNL     1      44.298  -8.993  -2.335  0.00  0.00    +0.000 C 
ATOM     10  C   UNL     1      43.417  -9.402  -3.517  0.00  0.00    +0.000 C 
ATOM     11  C   UNL     1      45.336 -11.530  -5.709  0.00  0.00    +0.000 C 
ATOM     12  C   UNL     1      45.357  -8.839  -0.047  0.00  0.00    +0.000 C 
ATOM     13  C   UNL     1      43.007 -10.083  -4.826  0.00  0.00    +0.000 C 
ATOM     14  C   UNL     1      42.892 -10.753  -5.935  0.00  0.00    +0.000 C 
ATOM     15  C   UNL     1      44.075 -11.534  -6.452  0.00  0.00    +0.000 C 
ATOM     16  C   UNL     1      41.560 -10.688  -6.643  0.00  0.00    +0.000 C 
ENDROOT
TORSDOF 0
ENDMDL
