MODEL 1
REMARK VINA RESULT:      -6.2      0.000      0.000
REMARK  Name = 5azacytidine.pdbqt.pdb
REMARK  5 active torsions:
REMARK  status: ('A' for Active; 'I' for Inactive)
REMARK    1  A    between atoms: C2*_2  and  O2*_16
REMARK    2  A    between atoms: C3*_3  and  O3*_21
REMARK    3  A    between atoms: C4*_4  and  C5*_18
REMARK    4  A    between atoms: C1*_5  and  N_6
REMARK    5  A    between atoms: C5*_18  and  O5*_19
REMARK                            x       y       z     vdW  Elec       q    Type
REMARK                         _______ _______ _______ _____ _____    ______ ____
ROOT
ATOM      1  O4* UNL     1      39.390   0.143  16.629  0.00  0.00    +0.000 OA
ATOM      2  C2* UNL     1      39.684   2.152  15.535  0.00  0.00    +0.000 A 
ATOM      3  C3* UNL     1      39.087   2.415  16.810  0.00  0.00    +0.000 A 
ATOM      4  C4* UNL     1      38.921   1.158  17.481  0.00  0.00    +0.000 A 
ATOM      5  C1* UNL     1      39.847   0.723  15.426  0.00  0.00    +0.000 A 
ENDROOT
BRANCH   5   6
ATOM      6  N   UNL     1      40.297  -0.048  14.397  0.00  0.00    +0.000 N 
ATOM      7  C   UNL     1      39.736  -0.178  13.132  0.00  0.00    +0.000 A 
ATOM      8  O   UNL     1      38.702   0.389  12.786  0.00  0.00    +0.000 OA
ATOM      9  N   UNL     1      40.425  -1.023  12.266  0.00  0.00    +0.000 NA
ATOM     10  C   UNL     1      41.514  -1.634  12.659  0.00  0.00    +0.000 A 
ATOM     11  N   UNL     1      42.051  -1.524  13.930  0.00  0.00    +0.000 NA
ATOM     12  C   UNL     1      41.396  -0.784  14.548  0.00  0.00    +0.000 A 
ATOM     13  N   UNL     1      42.153  -2.446  11.779  0.00  0.00    +0.000 N 
ATOM     14  H   UNL     1      42.706  -3.176  12.208  0.00  0.00    +0.000 HD
ATOM     15  H   UNL     1      41.568  -2.750  11.010  0.00  0.00    +0.000 HD
ENDBRANCH   5   6
BRANCH   2  16
ATOM     16  O2* UNL     1      39.445   2.998  14.488  0.00  0.00    +0.000 OA
ATOM     17  H2* UNL     1      39.911   3.856  14.594  0.00  0.00    +0.000 HD
ENDBRANCH   2  16
BRANCH   3  18
ATOM     18  O3* UNL     1      38.217   3.455  16.981  0.00  0.00    +0.000 OA
ATOM     19  H3* UNL     1      37.318   3.181  16.719  0.00  0.00    +0.000 HD
ENDBRANCH   3  18
BRANCH   4  20
ATOM     20  C5* UNL     1      38.141   0.887  18.621  0.00  0.00    +0.000 C 
BRANCH  20  21
ATOM     21  O5* UNL     1      37.408   0.621  19.698  0.00  0.00    +0.000 OA
ATOM     22  H5* UNL     1      36.863  -0.170  19.543  0.00  0.00    +0.000 HD
ENDBRANCH  20  21
ENDBRANCH   4  20
TORSDOF 5
ENDMDL
MODEL 2
REMARK VINA RESULT:      -6.0      2.945      4.481
REMARK  Name = 5azacytidine.pdbqt.pdb
REMARK  5 active torsions:
REMARK  status: ('A' for Active; 'I' for Inactive)
REMARK    1  A    between atoms: C2*_2  and  O2*_16
REMARK    2  A    between atoms: C3*_3  and  O3*_21
REMARK    3  A    between atoms: C4*_4  and  C5*_18
REMARK    4  A    between atoms: C1*_5  and  N_6
REMARK    5  A    between atoms: C5*_18  and  O5*_19
REMARK                            x       y       z     vdW  Elec       q    Type
REMARK                         _______ _______ _______ _____ _____    ______ ____
ROOT
ATOM      1  O4* UNL     1      41.629  -0.995  14.775  0.00  0.00    +0.000 OA
ATOM      2  C2* UNL     1      41.426  -0.996  12.477  0.00  0.00    +0.000 A 
ATOM      3  C3* UNL     1      40.641   0.081  12.999  0.00  0.00    +0.000 A 
ATOM      4  C4* UNL     1      40.787   0.075  14.427  0.00  0.00    +0.000 A 
ATOM      5  C1* UNL     1      42.020  -1.677  13.602  0.00  0.00    +0.000 A 
ENDROOT
BRANCH   5   6
ATOM      6  N   UNL     1      42.791  -2.799  13.661  0.00  0.00    +0.000 N 
ATOM      7  C   UNL     1      42.521  -4.038  13.093  0.00  0.00    +0.000 A 
ATOM      8  O   UNL     1      41.493  -4.290  12.467  0.00  0.00    +0.000 OA
ATOM      9  N   UNL     1      43.502  -5.005  13.296  0.00  0.00    +0.000 NA
ATOM     10  C   UNL     1      44.581  -4.724  13.982  0.00  0.00    +0.000 A 
ATOM     11  N   UNL     1      44.830  -3.497  14.571  0.00  0.00    +0.000 NA
ATOM     12  C   UNL     1      43.948  -2.777  14.319  0.00  0.00    +0.000 A 
ATOM     13  N   UNL     1      45.512  -5.697  14.150  0.00  0.00    +0.000 N 
ATOM     14  H   UNL     1      46.086  -5.589  14.976  0.00  0.00    +0.000 HD
ATOM     15  H   UNL     1      45.151  -6.632  14.001  0.00  0.00    +0.000 HD
ENDBRANCH   5   6
BRANCH   2  16
ATOM     16  O2* UNL     1      41.060  -1.593  11.302  0.00  0.00    +0.000 OA
ATOM     17  H2* UNL     1      41.220  -2.562  11.317  0.00  0.00    +0.000 HD
ENDBRANCH   2  16
BRANCH   3  18
ATOM     18  O3* UNL     1      39.486   0.476  12.384  0.00  0.00    +0.000 OA
ATOM     19  H3* UNL     1      38.728  -0.010  12.760  0.00  0.00    +0.000 HD
ENDBRANCH   3  18
BRANCH   4  20
ATOM     20  C5* UNL     1      40.003   0.759  15.375  0.00  0.00    +0.000 C 
BRANCH  20  21
ATOM     21  O5* UNL     1      39.272   1.407  16.277  0.00  0.00    +0.000 OA
ATOM     22  H5* UNL     1      38.333   1.172  16.175  0.00  0.00    +0.000 HD
ENDBRANCH  20  21
ENDBRANCH   4  20
TORSDOF 5
ENDMDL
MODEL 3
REMARK VINA RESULT:      -5.6      4.515      6.119
REMARK  Name = 5azacytidine.pdbqt.pdb
REMARK  5 active torsions:
REMARK  status: ('A' for Active; 'I' for Inactive)
REMARK    1  A    between atoms: C2*_2  and  O2*_16
REMARK    2  A    between atoms: C3*_3  and  O3*_21
REMARK    3  A    between atoms: C4*_4  and  C5*_18
REMARK    4  A    between atoms: C1*_5  and  N_6
REMARK    5  A    between atoms: C5*_18  and  O5*_19
REMARK                            x       y       z     vdW  Elec       q    Type
REMARK                         _______ _______ _______ _____ _____    ______ ____
ROOT
ATOM      1  O4* UNL     1      43.586  -2.369  17.045  0.00  0.00    +0.000 OA
ATOM      2  C2* UNL     1      44.850  -3.145  15.278  0.00  0.00    +0.000 A 
ATOM      3  C3* UNL     1      45.457  -3.587  16.496  0.00  0.00    +0.000 A 
ATOM      4  C4* UNL     1      44.655  -3.106  17.583  0.00  0.00    +0.000 A 
ATOM      5  C1* UNL     1      43.691  -2.363  15.637  0.00  0.00    +0.000 A 
ENDROOT
BRANCH   5   6
ATOM      6  N   UNL     1      42.813  -1.663  14.866  0.00  0.00    +0.000 N 
ATOM      7  C   UNL     1      42.383  -0.355  15.054  0.00  0.00    +0.000 A 
ATOM      8  O   UNL     1      42.735   0.347  15.999  0.00  0.00    +0.000 OA
ATOM      9  N   UNL     1      41.493   0.116  14.092  0.00  0.00    +0.000 NA
ATOM     10  C   UNL     1      41.113  -0.653  13.103  0.00  0.00    +0.000 A 
ATOM     11  N   UNL     1      41.522  -1.965  12.938  0.00  0.00    +0.000 NA
ATOM     12  C   UNL     1      42.269  -2.232  13.793  0.00  0.00    +0.000 A 
ATOM     13  N   UNL     1      40.247  -0.149  12.188  0.00  0.00    +0.000 N 
ATOM     14  H   UNL     1      39.687  -0.845  11.715  0.00  0.00    +0.000 HD
ATOM     15  H   UNL     1      39.734   0.659  12.518  0.00  0.00    +0.000 HD
ENDBRANCH   5   6
BRANCH   2  16
ATOM     16  O2* UNL     1      45.625  -2.937  14.170  0.00  0.00    +0.000 OA
ATOM     17  H2* UNL     1      46.551  -3.233  14.310  0.00  0.00    +0.000 HD
ENDBRANCH   2  16
BRANCH   3  18
ATOM     18  O3* UNL     1      46.813  -3.732  16.596  0.00  0.00    +0.000 OA
ATOM     19  H3* UNL     1      47.091  -3.613  17.524  0.00  0.00    +0.000 HD
ENDBRANCH   3  18
BRANCH   4  20
ATOM     20  C5* UNL     1      44.996  -3.055  18.948  0.00  0.00    +0.000 C 
BRANCH  20  21
ATOM     21  O5* UNL     1      45.324  -3.014  20.236  0.00  0.00    +0.000 OA
ATOM     22  H5* UNL     1      46.277  -3.179  20.342  0.00  0.00    +0.000 HD
ENDBRANCH  20  21
ENDBRANCH   4  20
TORSDOF 5
ENDMDL
MODEL 4
REMARK VINA RESULT:      -5.2     13.254     14.434
REMARK  Name = 5azacytidine.pdbqt.pdb
REMARK  5 active torsions:
REMARK  status: ('A' for Active; 'I' for Inactive)
REMARK    1  A    between atoms: C2*_2  and  O2*_16
REMARK    2  A    between atoms: C3*_3  and  O3*_21
REMARK    3  A    between atoms: C4*_4  and  C5*_18
REMARK    4  A    between atoms: C1*_5  and  N_6
REMARK    5  A    between atoms: C5*_18  and  O5*_19
REMARK                            x       y       z     vdW  Elec       q    Type
REMARK                         _______ _______ _______ _____ _____    ______ ____
ROOT
ATOM      1  O4* UNL     1      50.487   5.007   9.371  0.00  0.00    +0.000 OA
ATOM      2  C2* UNL     1      51.279   6.570  10.871  0.00  0.00    +0.000 A 
ATOM      3  C3* UNL     1      50.789   5.444  11.607  0.00  0.00    +0.000 A 
ATOM      4  C4* UNL     1      50.311   4.478  10.661  0.00  0.00    +0.000 A 
ATOM      5  C1* UNL     1      51.062   6.291   9.471  0.00  0.00    +0.000 A 
ENDROOT
BRANCH   5   6
ATOM      6  N   UNL     1      51.281   7.056   8.365  0.00  0.00    +0.000 N 
ATOM      7  C   UNL     1      51.051   8.419   8.223  0.00  0.00    +0.000 A 
ATOM      8  O   UNL     1      50.570   9.123   9.108  0.00  0.00    +0.000 OA
ATOM      9  N   UNL     1      51.389   8.947   6.979  0.00  0.00    +0.000 NA
ATOM     10  C   UNL     1      51.882   8.177   6.042  0.00  0.00    +0.000 A 
ATOM     11  N   UNL     1      52.081   6.814   6.180  0.00  0.00    +0.000 NA
ATOM     12  C   UNL     1      51.774   6.501   7.260  0.00  0.00    +0.000 A 
ATOM     13  N   UNL     1      52.200   8.736   4.847  0.00  0.00    +0.000 N 
ATOM     14  H   UNL     1      52.180   8.095   4.066  0.00  0.00    +0.000 HD
ATOM     15  H   UNL     1      51.743   9.625   4.681  0.00  0.00    +0.000 HD
ENDBRANCH   5   6
BRANCH   2  16
ATOM     16  O2* UNL     1      51.253   7.814  11.438  0.00  0.00    +0.000 OA
ATOM     17  H2* UNL     1      50.808   7.809  12.313  0.00  0.00    +0.000 HD
ENDBRANCH   2  16
BRANCH   3  18
ATOM     18  O3* UNL     1      50.223   5.601  12.842  0.00  0.00    +0.000 OA
ATOM     19  H3* UNL     1      49.338   6.001  12.751  0.00  0.00    +0.000 HD
ENDBRANCH   3  18
BRANCH   4  20
ATOM     20  C5* UNL     1      49.503   3.353  10.913  0.00  0.00    +0.000 C 
BRANCH  20  21
ATOM     21  O5* UNL     1      48.733   2.296  11.156  0.00  0.00    +0.000 OA
ATOM     22  H5* UNL     1      49.215   1.653  11.705  0.00  0.00    +0.000 HD
ENDBRANCH  20  21
ENDBRANCH   4  20
TORSDOF 5
ENDMDL
MODEL 5
REMARK VINA RESULT:      -5.2     11.885     13.217
REMARK  Name = 5azacytidine.pdbqt.pdb
REMARK  5 active torsions:
REMARK  status: ('A' for Active; 'I' for Inactive)
REMARK    1  A    between atoms: C2*_2  and  O2*_16
REMARK    2  A    between atoms: C3*_3  and  O3*_21
REMARK    3  A    between atoms: C4*_4  and  C5*_18
REMARK    4  A    between atoms: C1*_5  and  N_6
REMARK    5  A    between atoms: C5*_18  and  O5*_19
REMARK                            x       y       z     vdW  Elec       q    Type
REMARK                         _______ _______ _______ _____ _____    ______ ____
ROOT
ATOM      1  O4* UNL     1      51.524   5.822  10.900  0.00  0.00    +0.000 OA
ATOM      2  C2* UNL     1      50.643   6.778   8.994  0.00  0.00    +0.000 A 
ATOM      3  C3* UNL     1      51.305   7.800   9.747  0.00  0.00    +0.000 A 
ATOM      4  C4* UNL     1      51.856   7.188  10.922  0.00  0.00    +0.000 A 
ATOM      5  C1* UNL     1      50.768   5.549   9.739  0.00  0.00    +0.000 A 
ENDROOT
BRANCH   5   6
ATOM      6  N   UNL     1      50.261   4.306   9.503  0.00  0.00    +0.000 N 
ATOM      7  C   UNL     1      49.037   3.801   9.923  0.00  0.00    +0.000 A 
ATOM      8  O   UNL     1      48.243   4.433  10.616  0.00  0.00    +0.000 OA
ATOM      9  N   UNL     1      48.767   2.497   9.515  0.00  0.00    +0.000 NA
ATOM     10  C   UNL     1      49.634   1.833   8.794  0.00  0.00    +0.000 A 
ATOM     11  N   UNL     1      50.865   2.331   8.405  0.00  0.00    +0.000 NA
ATOM     12  C   UNL     1      50.963   3.425   8.794  0.00  0.00    +0.000 A 
ATOM     13  N   UNL     1      49.325   0.566   8.417  0.00  0.00    +0.000 N 
ATOM     14  H   UNL     1      50.126  -0.025   8.238  0.00  0.00    +0.000 HD
ATOM     15  H   UNL     1      48.600   0.140   8.982  0.00  0.00    +0.000 HD
ENDBRANCH   5   6
BRANCH   2  16
ATOM     16  O2* UNL     1      49.586   7.106   8.191  0.00  0.00    +0.000 OA
ATOM     17  H2* UNL     1      49.450   8.077   8.141  0.00  0.00    +0.000 HD
ENDBRANCH   2  16
BRANCH   3  18
ATOM     18  O3* UNL     1      50.850   9.089   9.739  0.00  0.00    +0.000 OA
ATOM     19  H3* UNL     1      51.603   9.705   9.656  0.00  0.00    +0.000 HD
ENDBRANCH   3  18
BRANCH   4  20
ATOM     20  C5* UNL     1      52.347   7.827  12.076  0.00  0.00    +0.000 C 
BRANCH  20  21
ATOM     21  O5* UNL     1      52.809   8.440  13.162  0.00  0.00    +0.000 OA
ATOM     22  H5* UNL     1      52.135   8.427  13.863  0.00  0.00    +0.000 HD
ENDBRANCH  20  21
ENDBRANCH   4  20
TORSDOF 5
ENDMDL
MODEL 6
REMARK VINA RESULT:      -5.1     12.588     14.019
REMARK  Name = 5azacytidine.pdbqt.pdb
REMARK  5 active torsions:
REMARK  status: ('A' for Active; 'I' for Inactive)
REMARK    1  A    between atoms: C2*_2  and  O2*_16
REMARK    2  A    between atoms: C3*_3  and  O3*_21
REMARK    3  A    between atoms: C4*_4  and  C5*_18
REMARK    4  A    between atoms: C1*_5  and  N_6
REMARK    5  A    between atoms: C5*_18  and  O5*_19
REMARK                            x       y       z     vdW  Elec       q    Type
REMARK                         _______ _______ _______ _____ _____    ______ ____
ROOT
ATOM      1  O4* UNL     1      50.159   5.033  11.818  0.00  0.00    +0.000 OA
ATOM      2  C2* UNL     1      51.293   6.633  10.604  0.00  0.00    +0.000 A 
ATOM      3  C3* UNL     1      50.442   5.907   9.710  0.00  0.00    +0.000 A 
ATOM      4  C4* UNL     1      49.737   4.924  10.482  0.00  0.00    +0.000 A 
ATOM      5  C1* UNL     1      51.122   6.060  11.917  0.00  0.00    +0.000 A 
ENDROOT
BRANCH   5   6
ATOM      6  N   UNL     1      51.744   6.334  13.098  0.00  0.00    +0.000 N 
ATOM      7  C   UNL     1      51.305   7.183  14.106  0.00  0.00    +0.000 A 
ATOM      8  O   UNL     1      50.271   7.843  14.036  0.00  0.00    +0.000 OA
ATOM      9  N   UNL     1      52.137   7.255  15.220  0.00  0.00    +0.000 NA
ATOM     10  C   UNL     1      53.245   6.559  15.268  0.00  0.00    +0.000 A 
ATOM     11  N   UNL     1      53.693   5.738  14.248  0.00  0.00    +0.000 NA
ATOM     12  C   UNL     1      52.907   5.754  13.386  0.00  0.00    +0.000 A 
ATOM     13  N   UNL     1      54.023   6.658  16.376  0.00  0.00    +0.000 N 
ATOM     14  H   UNL     1      55.002   6.458  16.219  0.00  0.00    +0.000 HD
ATOM     15  H   UNL     1      53.841   7.489  16.926  0.00  0.00    +0.000 HD
ENDBRANCH   5   6
BRANCH   2  16
ATOM     16  O2* UNL     1      52.450   7.191  10.134  0.00  0.00    +0.000 OA
ATOM     17  H2* UNL     1      53.110   7.323  10.849  0.00  0.00    +0.000 HD
ENDBRANCH   2  16
BRANCH   3  18
ATOM     18  O3* UNL     1      50.804   5.693   8.409  0.00  0.00    +0.000 OA
ATOM     19  H3* UNL     1      50.012   5.706   7.839  0.00  0.00    +0.000 HD
ENDBRANCH   3  18
BRANCH   4  20
ATOM     20  C5* UNL     1      49.010   3.816  10.007  0.00  0.00    +0.000 C 
BRANCH  20  21
ATOM     21  O5* UNL     1      48.319   2.775   9.552  0.00  0.00    +0.000 OA
ATOM     22  H5* UNL     1      48.614   2.547   8.654  0.00  0.00    +0.000 HD
ENDBRANCH  20  21
ENDBRANCH   4  20
TORSDOF 5
ENDMDL
MODEL 7
REMARK VINA RESULT:      -5.0      1.957      2.010
REMARK  Name = 5azacytidine.pdbqt.pdb
REMARK  5 active torsions:
REMARK  status: ('A' for Active; 'I' for Inactive)
REMARK    1  A    between atoms: C2*_2  and  O2*_16
REMARK    2  A    between atoms: C3*_3  and  O3*_21
REMARK    3  A    between atoms: C4*_4  and  C5*_18
REMARK    4  A    between atoms: C1*_5  and  N_6
REMARK    5  A    between atoms: C5*_18  and  O5*_19
REMARK                            x       y       z     vdW  Elec       q    Type
REMARK                         _______ _______ _______ _____ _____    ______ ____
ROOT
ATOM      1  O4* UNL     1      40.849  -0.737  16.934  0.00  0.00    +0.000 OA
ATOM      2  C2* UNL     1      40.782   1.564  16.777  0.00  0.00    +0.000 A 
ATOM      3  C3* UNL     1      40.695   1.203  18.159  0.00  0.00    +0.000 A 
ATOM      4  C4* UNL     1      40.749  -0.229  18.240  0.00  0.00    +0.000 A 
ATOM      5  C1* UNL     1      40.855   0.338  16.019  0.00  0.00    +0.000 A 
ENDROOT
BRANCH   5   6
ATOM      6  N   UNL     1      40.880   0.121  14.674  0.00  0.00    +0.000 N 
ATOM      7  C   UNL     1      40.035   0.666  13.715  0.00  0.00    +0.000 A 
ATOM      8  O   UNL     1      39.101   1.419  13.982  0.00  0.00    +0.000 OA
ATOM      9  N   UNL     1      40.307   0.284  12.404  0.00  0.00    +0.000 NA
ATOM     10  C   UNL     1      41.294  -0.535  12.142  0.00  0.00    +0.000 A 
ATOM     11  N   UNL     1      42.114  -1.099  13.104  0.00  0.00    +0.000 NA
ATOM     12  C   UNL     1      41.795  -0.692  14.149  0.00  0.00    +0.000 A 
ATOM     13  N   UNL     1      41.523  -0.877  10.848  0.00  0.00    +0.000 N 
ATOM     14  H   UNL     1      41.983  -1.770  10.726  0.00  0.00    +0.000 HD
ATOM     15  H   UNL     1      40.728  -0.720  10.241  0.00  0.00    +0.000 HD
ENDBRANCH   5   6
BRANCH   2  16
ATOM     16  O2* UNL     1      40.202   2.723  16.342  0.00  0.00    +0.000 OA
ATOM     17  H2* UNL     1      40.524   2.983  15.451  0.00  0.00    +0.000 HD
ENDBRANCH   2  16
BRANCH   3  18
ATOM     18  O3* UNL     1      39.974   1.958  19.042  0.00  0.00    +0.000 OA
ATOM     19  H3* UNL     1      39.814   1.449  19.859  0.00  0.00    +0.000 HD
ENDBRANCH   3  18
BRANCH   4  20
ATOM     20  C5* UNL     1      40.427  -1.042  19.344  0.00  0.00    +0.000 C 
BRANCH  20  21
ATOM     21  O5* UNL     1      40.123  -1.817  20.380  0.00  0.00    +0.000 OA
ATOM     22  H5* UNL     1      39.625  -2.597  20.077  0.00  0.00    +0.000 HD
ENDBRANCH  20  21
ENDBRANCH   4  20
TORSDOF 5
ENDMDL
MODEL 8
REMARK VINA RESULT:      -4.9     11.541     12.739
REMARK  Name = 5azacytidine.pdbqt.pdb
REMARK  5 active torsions:
REMARK  status: ('A' for Active; 'I' for Inactive)
REMARK    1  A    between atoms: C2*_2  and  O2*_16
REMARK    2  A    between atoms: C3*_3  and  O3*_21
REMARK    3  A    between atoms: C4*_4  and  C5*_18
REMARK    4  A    between atoms: C1*_5  and  N_6
REMARK    5  A    between atoms: C5*_18  and  O5*_19
REMARK                            x       y       z     vdW  Elec       q    Type
REMARK                         _______ _______ _______ _____ _____    ______ ____
ROOT
ATOM      1  O4* UNL     1      50.488   0.014   9.124  0.00  0.00    +0.000 OA
ATOM      2  C2* UNL     1      49.301   1.424   7.738  0.00  0.00    +0.000 A 
ATOM      3  C3* UNL     1      49.335   2.001   9.047  0.00  0.00    +0.000 A 
ATOM      4  C4* UNL     1      50.085   1.119   9.893  0.00  0.00    +0.000 A 
ATOM      5  C1* UNL     1      50.007   0.168   7.806  0.00  0.00    +0.000 A 
ENDROOT
BRANCH   5   6
ATOM      6  N   UNL     1      50.204  -0.798   6.864  0.00  0.00    +0.000 N 
ATOM      7  C   UNL     1      50.449  -0.617   5.509  0.00  0.00    +0.000 A 
ATOM      8  O   UNL     1      50.489   0.485   4.966  0.00  0.00    +0.000 OA
ATOM      9  N   UNL     1      50.634  -1.790   4.782  0.00  0.00    +0.000 NA
ATOM     10  C   UNL     1      50.569  -2.956   5.374  0.00  0.00    +0.000 A 
ATOM     11  N   UNL     1      50.294  -3.131   6.719  0.00  0.00    +0.000 NA
ATOM     12  C   UNL     1      50.174  -2.082   7.214  0.00  0.00    +0.000 A 
ATOM     13  N   UNL     1      50.759  -4.072   4.626  0.00  0.00    +0.000 N 
ATOM     14  H   UNL     1      50.317  -4.904   4.994  0.00  0.00    +0.000 HD
ATOM     15  H   UNL     1      50.625  -3.922   3.633  0.00  0.00    +0.000 HD
ENDBRANCH   5   6
BRANCH   2  16
ATOM     16  O2* UNL     1      48.246   1.689   6.908  0.00  0.00    +0.000 OA
ATOM     17  H2* UNL     1      48.489   1.589   5.962  0.00  0.00    +0.000 HD
ENDBRANCH   2  16
BRANCH   3  18
ATOM     18  O3* UNL     1      48.292   2.752   9.515  0.00  0.00    +0.000 OA
ATOM     19  H3* UNL     1      47.468   2.231   9.482  0.00  0.00    +0.000 HD
ENDBRANCH   3  18
BRANCH   4  20
ATOM     20  C5* UNL     1      50.153   1.125  11.300  0.00  0.00    +0.000 C 
BRANCH  20  21
ATOM     21  O5* UNL     1      50.227   1.127  12.627  0.00  0.00    +0.000 OA
ATOM     22  H5* UNL     1      51.139   0.942  12.910  0.00  0.00    +0.000 HD
ENDBRANCH  20  21
ENDBRANCH   4  20
TORSDOF 5
ENDMDL
MODEL 9
REMARK VINA RESULT:      -4.8     19.700     21.330
REMARK  Name = 5azacytidine.pdbqt.pdb
REMARK  5 active torsions:
REMARK  status: ('A' for Active; 'I' for Inactive)
REMARK    1  A    between atoms: C2*_2  and  O2*_16
REMARK    2  A    between atoms: C3*_3  and  O3*_21
REMARK    3  A    between atoms: C4*_4  and  C5*_18
REMARK    4  A    between atoms: C1*_5  and  N_6
REMARK    5  A    between atoms: C5*_18  and  O5*_19
REMARK                            x       y       z     vdW  Elec       q    Type
REMARK                         _______ _______ _______ _____ _____    ______ ____
ROOT
ATOM      1  O4* UNL     1      50.665  17.924  10.701  0.00  0.00    +0.000 OA
ATOM      2  C2* UNL     1      52.652  16.810  11.064  0.00  0.00    +0.000 A 
ATOM      3  C3* UNL     1      52.506  17.027   9.656  0.00  0.00    +0.000 A 
ATOM      4  C4* UNL     1      51.272  17.729   9.448  0.00  0.00    +0.000 A 
ATOM      5  C1* UNL     1      51.480  17.357  11.704  0.00  0.00    +0.000 A 
ENDROOT
BRANCH   5   6
ATOM      6  N   UNL     1      51.091  17.351  13.010  0.00  0.00    +0.000 N 
ATOM      7  C   UNL     1      50.362  16.368  13.668  0.00  0.00    +0.000 A 
ATOM      8  O   UNL     1      49.934  15.356  13.117  0.00  0.00    +0.000 OA
ATOM      9  N   UNL     1      50.125  16.615  15.018  0.00  0.00    +0.000 NA
ATOM     10  C   UNL     1      50.572  17.708  15.582  0.00  0.00    +0.000 A 
ATOM     11  N   UNL     1      51.272  18.698  14.914  0.00  0.00    +0.000 NA
ATOM     12  C   UNL     1      51.415  18.368  13.805  0.00  0.00    +0.000 A 
ATOM     13  N   UNL     1      50.320  17.904  16.901  0.00  0.00    +0.000 N 
ATOM     14  H   UNL     1      50.308  18.874  17.186  0.00  0.00    +0.000 HD
ATOM     15  H   UNL     1      49.551  17.347  17.254  0.00  0.00    +0.000 HD
ENDBRANCH   5   6
BRANCH   2  16
ATOM     16  O2* UNL     1      53.361  15.731  11.513  0.00  0.00    +0.000 OA
ATOM     17  H2* UNL     1      54.330  15.868  11.429  0.00  0.00    +0.000 HD
ENDBRANCH   2  16
BRANCH   3  18
ATOM     18  O3* UNL     1      52.998  16.130   8.749  0.00  0.00    +0.000 OA
ATOM     19  H3* UNL     1      53.870  15.805   9.044  0.00  0.00    +0.000 HD
ENDBRANCH   3  18
BRANCH   4  20
ATOM     20  C5* UNL     1      50.581  17.916   8.236  0.00  0.00    +0.000 C 
BRANCH  20  21
ATOM     21  O5* UNL     1      49.936  18.087   7.086  0.00  0.00    +0.000 OA
ATOM     22  H5* UNL     1      49.109  17.575   7.090  0.00  0.00    +0.000 HD
ENDBRANCH  20  21
ENDBRANCH   4  20
TORSDOF 5
ENDMDL
