MODEL 1
REMARK VINA RESULT:      -7.1      0.000      0.000
REMARK  Name = 60953_Capecitabine.pdbqt.pdb
REMARK  6 active torsions:
REMARK  status: ('A' for Active; 'I' for Inactive)
REMARK    1  A    between atoms: N_4  and  C_16
REMARK    2  A    between atoms: C_11  and  O_23
REMARK    3  A    between atoms: C_14  and  O_19
REMARK    4  A    between atoms: C_15  and  O_21
REMARK    5  A    between atoms: O_23  and  C_24
REMARK    6  A    between atoms: C_25  and  C_26
REMARK                            x       y       z     vdW  Elec       q    Type
REMARK                         _______ _______ _______ _____ _____    ______ ____
ROOT
ATOM      1  F   UNL     1      39.892   0.547  19.245  0.00  0.00    +0.000 F 
ATOM      2  O   UNL     1      39.699   2.337  14.199  0.00  0.00    +0.000 OA
ATOM      3  O   UNL     1      39.242   5.279  17.804  0.00  0.00    +0.000 OA
ATOM      4  N   UNL     1      39.731   0.523  15.651  0.00  0.00    +0.000 N 
ATOM      5  N   UNL     1      39.485   2.778  16.436  0.00  0.00    +0.000 NA
ATOM      6  N   UNL     1      39.318   3.157  18.755  0.00  0.00    +0.000 N 
ATOM      7  C   UNL     1      39.643   0.181  16.952  0.00  0.00    +0.000 C 
ATOM      8  C   UNL     1      39.636   1.906  15.349  0.00  0.00    +0.000 C 
ATOM      9  C   UNL     1      39.455   0.878  18.018  0.00  0.00    +0.000 C 
ATOM     10  C   UNL     1      39.420   2.330  17.655  0.00  0.00    +0.000 C 
ATOM     11  C   UNL     1      39.259   4.533  18.771  0.00  0.00    +0.000 C 
ATOM     12  H   UNL     1      39.308   2.736  19.674  0.00  0.00    +0.000 HD
ENDROOT
BRANCH   4  16
ATOM     13  O   UNL     1      40.891  -1.457  14.883  0.00  0.00    +0.000 OA
ATOM     14  C   UNL     1      39.178  -0.766  13.502  0.00  0.00    +0.000 A 
ATOM     15  C   UNL     1      39.813  -1.899  12.900  0.00  0.00    +0.000 A 
ATOM     16  C   UNL     1      39.881  -0.482  14.732  0.00  0.00    +0.000 A 
ATOM     17  C   UNL     1      40.867  -2.324  13.779  0.00  0.00    +0.000 A 
ATOM     18  C   UNL     1      41.994  -3.274  13.563  0.00  0.00    +0.000 C 
BRANCH  14  19
ATOM     19  O   UNL     1      38.572   0.165  12.708  0.00  0.00    +0.000 OA
ATOM     20  H   UNL     1      37.618   0.273  12.924  0.00  0.00    +0.000 HD
ENDBRANCH  14  19
BRANCH  15  21
ATOM     21  O   UNL     1      39.854  -2.044  11.538  0.00  0.00    +0.000 OA
ATOM     22  H   UNL     1      39.812  -1.173  11.101  0.00  0.00    +0.000 HD
ENDBRANCH  15  21
ENDBRANCH   4  16
BRANCH  11  23
ATOM     23  O   UNL     1      39.207   4.948  20.072  0.00  0.00    +0.000 OA
BRANCH  23  24
ATOM     24  C   UNL     1      40.221   4.563  20.844  0.00  0.00    +0.000 C 
ATOM     25  C   UNL     1      41.389   4.118  21.730  0.00  0.00    +0.000 C 
BRANCH  25  26
ATOM     26  C   UNL     1      42.556   3.671  22.616  0.00  0.00    +0.000 C 
ATOM     27  C   UNL     1      43.721   3.229  23.506  0.00  0.00    +0.000 C 
ATOM     28  C   UNL     1      44.881   2.792  24.408  0.00  0.00    +0.000 C 
ENDBRANCH  25  26
ENDBRANCH  23  24
ENDBRANCH  11  23
TORSDOF 6
ENDMDL
MODEL 2
REMARK VINA RESULT:      -7.1      2.769      3.498
REMARK  Name = 60953_Capecitabine.pdbqt.pdb
REMARK  6 active torsions:
REMARK  status: ('A' for Active; 'I' for Inactive)
REMARK    1  A    between atoms: N_4  and  C_16
REMARK    2  A    between atoms: C_11  and  O_23
REMARK    3  A    between atoms: C_14  and  O_19
REMARK    4  A    between atoms: C_15  and  O_21
REMARK    5  A    between atoms: O_23  and  C_24
REMARK    6  A    between atoms: C_25  and  C_26
REMARK                            x       y       z     vdW  Elec       q    Type
REMARK                         _______ _______ _______ _____ _____    ______ ____
ROOT
ATOM      1  F   UNL     1      41.685   0.835  20.463  0.00  0.00    +0.000 F 
ATOM      2  O   UNL     1      38.440   3.562  17.187  0.00  0.00    +0.000 OA
ATOM      3  O   UNL     1      38.960   4.841  21.653  0.00  0.00    +0.000 OA
ATOM      4  N   UNL     1      39.760   1.684  17.545  0.00  0.00    +0.000 N 
ATOM      5  N   UNL     1      39.251   3.236  19.303  0.00  0.00    +0.000 NA
ATOM      6  N   UNL     1      40.160   2.859  21.443  0.00  0.00    +0.000 N 
ATOM      7  C   UNL     1      40.448   1.013  18.491  0.00  0.00    +0.000 C 
ATOM      8  C   UNL     1      39.100   2.870  17.958  0.00  0.00    +0.000 C 
ATOM      9  C   UNL     1      40.614   1.221  19.749  0.00  0.00    +0.000 C 
ATOM     10  C   UNL     1      39.950   2.510  20.125  0.00  0.00    +0.000 C 
ATOM     11  C   UNL     1      39.691   3.973  22.104  0.00  0.00    +0.000 C 
ATOM     12  H   UNL     1      40.744   2.262  22.011  0.00  0.00    +0.000 HD
ENDROOT
BRANCH   4  16
ATOM     13  O   UNL     1      39.973  -0.213  16.056  0.00  0.00    +0.000 OA
ATOM     14  C   UNL     1      39.528   1.783  14.991  0.00  0.00    +0.000 A 
ATOM     15  C   UNL     1      39.691   0.768  13.995  0.00  0.00    +0.000 A 
ATOM     16  C   UNL     1      39.735   1.161  16.278  0.00  0.00    +0.000 A 
ATOM     17  C   UNL     1      39.954  -0.470  14.676  0.00  0.00    +0.000 A 
ATOM     18  C   UNL     1      40.439  -1.782  14.163  0.00  0.00    +0.000 C 
BRANCH  14  19
ATOM     19  O   UNL     1      39.831   3.080  14.684  0.00  0.00    +0.000 OA
ATOM     20  H   UNL     1      39.132   3.505  14.138  0.00  0.00    +0.000 HD
ENDBRANCH  14  19
BRANCH  15  21
ATOM     21  O   UNL     1      40.182   1.070  12.752  0.00  0.00    +0.000 OA
ATOM     22  H   UNL     1      40.054   0.317  12.143  0.00  0.00    +0.000 HD
ENDBRANCH  15  21
ENDBRANCH   4  16
BRANCH  11  23
ATOM     23  O   UNL     1      40.172   3.950  23.383  0.00  0.00    +0.000 OA
BRANCH  23  24
ATOM     24  C   UNL     1      40.699   5.090  23.824  0.00  0.00    +0.000 C 
ATOM     25  C   UNL     1      41.303   6.404  24.332  0.00  0.00    +0.000 C 
BRANCH  25  26
ATOM     26  C   UNL     1      41.906   7.718  24.838  0.00  0.00    +0.000 C 
ATOM     27  C   UNL     1      42.503   9.031  25.351  0.00  0.00    +0.000 C 
ATOM     28  C   UNL     1      43.098  10.343  25.875  0.00  0.00    +0.000 C 
ENDBRANCH  25  26
ENDBRANCH  23  24
ENDBRANCH  11  23
TORSDOF 6
ENDMDL
MODEL 3
REMARK VINA RESULT:      -7.0      3.357      6.116
REMARK  Name = 60953_Capecitabine.pdbqt.pdb
REMARK  6 active torsions:
REMARK  status: ('A' for Active; 'I' for Inactive)
REMARK    1  A    between atoms: N_4  and  C_16
REMARK    2  A    between atoms: C_11  and  O_23
REMARK    3  A    between atoms: C_14  and  O_19
REMARK    4  A    between atoms: C_15  and  O_21
REMARK    5  A    between atoms: O_23  and  C_24
REMARK    6  A    between atoms: C_25  and  C_26
REMARK                            x       y       z     vdW  Elec       q    Type
REMARK                         _______ _______ _______ _____ _____    ______ ____
ROOT
ATOM      1  F   UNL     1      43.072  -0.019  15.810  0.00  0.00    +0.000 F 
ATOM      2  O   UNL     1      41.470  -4.102  12.735  0.00  0.00    +0.000 OA
ATOM      3  O   UNL     1      39.262   0.016  12.589  0.00  0.00    +0.000 OA
ATOM      4  N   UNL     1      42.814  -3.349  14.474  0.00  0.00    +0.000 N 
ATOM      5  N   UNL     1      41.109  -1.972  13.495  0.00  0.00    +0.000 NA
ATOM      6  N   UNL     1      40.829   0.225  14.297  0.00  0.00    +0.000 N 
ATOM      7  C   UNL     1      43.045  -2.292  15.279  0.00  0.00    +0.000 C 
ATOM      8  C   UNL     1      41.774  -3.206  13.519  0.00  0.00    +0.000 C 
ATOM      9  C   UNL     1      42.474  -1.144  15.382  0.00  0.00    +0.000 C 
ATOM     10  C   UNL     1      41.427  -1.018  14.319  0.00  0.00    +0.000 C 
ATOM     11  C   UNL     1      39.834   0.665  13.452  0.00  0.00    +0.000 C 
ATOM     12  H   UNL     1      41.154   0.926  14.948  0.00  0.00    +0.000 HD
ENDROOT
BRANCH   4  16
ATOM     13  O   UNL     1      44.565  -4.836  13.712  0.00  0.00    +0.000 OA
ATOM     14  C   UNL     1      43.564  -5.483  15.686  0.00  0.00    +0.000 A 
ATOM     15  C   UNL     1      44.527  -6.477  15.323  0.00  0.00    +0.000 A 
ATOM     16  C   UNL     1      43.577  -4.472  14.654  0.00  0.00    +0.000 A 
ATOM     17  C   UNL     1      45.150  -6.051  14.099  0.00  0.00    +0.000 A 
ATOM     18  C   UNL     1      46.028  -6.785  13.145  0.00  0.00    +0.000 C 
BRANCH  14  19
ATOM     19  O   UNL     1      42.470  -5.844  16.421  0.00  0.00    +0.000 OA
ATOM     20  H   UNL     1      42.167  -6.756  16.212  0.00  0.00    +0.000 HD
ENDBRANCH  14  19
BRANCH  15  21
ATOM     21  O   UNL     1      44.351  -7.791  15.669  0.00  0.00    +0.000 OA
ATOM     22  H   UNL     1      43.657  -8.198  15.117  0.00  0.00    +0.000 HD
ENDBRANCH  15  21
ENDBRANCH   4  16
BRANCH  11  23
ATOM     23  O   UNL     1      39.566   1.973  13.746  0.00  0.00    +0.000 OA
BRANCH  23  24
ATOM     24  C   UNL     1      39.540   2.282  15.040  0.00  0.00    +0.000 C 
ATOM     25  C   UNL     1      39.509   2.637  16.530  0.00  0.00    +0.000 C 
BRANCH  25  26
ATOM     26  C   UNL     1      39.475   2.991  18.020  0.00  0.00    +0.000 C 
ATOM     27  C   UNL     1      39.449   3.344  19.510  0.00  0.00    +0.000 C 
ATOM     28  C   UNL     1      39.434   3.703  21.000  0.00  0.00    +0.000 C 
ENDBRANCH  25  26
ENDBRANCH  23  24
ENDBRANCH  11  23
TORSDOF 6
ENDMDL
MODEL 4
REMARK VINA RESULT:      -6.5      1.421      2.221
REMARK  Name = 60953_Capecitabine.pdbqt.pdb
REMARK  6 active torsions:
REMARK  status: ('A' for Active; 'I' for Inactive)
REMARK    1  A    between atoms: N_4  and  C_16
REMARK    2  A    between atoms: C_11  and  O_23
REMARK    3  A    between atoms: C_14  and  O_19
REMARK    4  A    between atoms: C_15  and  O_21
REMARK    5  A    between atoms: O_23  and  C_24
REMARK    6  A    between atoms: C_25  and  C_26
REMARK                            x       y       z     vdW  Elec       q    Type
REMARK                         _______ _______ _______ _____ _____    ______ ____
ROOT
ATOM      1  F   UNL     1      41.457   1.380  20.229  0.00  0.00    +0.000 F 
ATOM      2  O   UNL     1      38.332   3.499  16.428  0.00  0.00    +0.000 OA
ATOM      3  O   UNL     1      38.574   5.427  20.680  0.00  0.00    +0.000 OA
ATOM      4  N   UNL     1      39.676   1.736  17.124  0.00  0.00    +0.000 N 
ATOM      5  N   UNL     1      39.033   3.508  18.608  0.00  0.00    +0.000 NA
ATOM      6  N   UNL     1      39.832   3.475  20.824  0.00  0.00    +0.000 N 
ATOM      7  C   UNL     1      40.327   1.231  18.191  0.00  0.00    +0.000 C 
ATOM      8  C   UNL     1      38.965   2.947  17.325  0.00  0.00    +0.000 C 
ATOM      9  C   UNL     1      40.418   1.625  19.413  0.00  0.00    +0.000 C 
ATOM     10  C   UNL     1      39.703   2.933  19.562  0.00  0.00    +0.000 C 
ATOM     11  C   UNL     1      39.301   4.657  21.289  0.00  0.00    +0.000 C 
ATOM     12  H   UNL     1      40.399   2.985  21.502  0.00  0.00    +0.000 HD
ENDROOT
BRANCH   4  16
ATOM     13  O   UNL     1      40.122  -0.323  15.931  0.00  0.00    +0.000 OA
ATOM     14  C   UNL     1      39.487   1.437  14.582  0.00  0.00    +0.000 A 
ATOM     15  C   UNL     1      39.778   0.311  13.747  0.00  0.00    +0.000 A 
ATOM     16  C   UNL     1      39.732   1.035  15.947  0.00  0.00    +0.000 A 
ATOM     17  C   UNL     1      40.159  -0.778  14.604  0.00  0.00    +0.000 A 
ATOM     18  C   UNL     1      40.792  -2.089  14.291  0.00  0.00    +0.000 C 
BRANCH  14  19
ATOM     19  O   UNL     1      39.655   2.700  14.089  0.00  0.00    +0.000 OA
ATOM     20  H   UNL     1      39.912   3.340  14.790  0.00  0.00    +0.000 HD
ENDBRANCH  14  19
BRANCH  15  21
ATOM     21  O   UNL     1      40.258   0.481  12.475  0.00  0.00    +0.000 OA
ATOM     22  H   UNL     1      39.558   0.827  11.889  0.00  0.00    +0.000 HD
ENDBRANCH  15  21
ENDBRANCH   4  16
BRANCH  11  23
ATOM     23  O   UNL     1      39.711   4.836  22.581  0.00  0.00    +0.000 OA
BRANCH  23  24
ATOM     24  C   UNL     1      40.836   4.211  22.923  0.00  0.00    +0.000 C 
ATOM     25  C   UNL     1      42.130   3.491  23.318  0.00  0.00    +0.000 C 
BRANCH  25  26
ATOM     26  C   UNL     1      43.422   2.772  23.715  0.00  0.00    +0.000 C 
ATOM     27  C   UNL     1      44.714   2.057  24.119  0.00  0.00    +0.000 C 
ATOM     28  C   UNL     1      46.005   1.342  24.536  0.00  0.00    +0.000 C 
ENDBRANCH  25  26
ENDBRANCH  23  24
ENDBRANCH  11  23
TORSDOF 6
ENDMDL
MODEL 5
REMARK VINA RESULT:      -5.9     16.966     19.062
REMARK  Name = 60953_Capecitabine.pdbqt.pdb
REMARK  6 active torsions:
REMARK  status: ('A' for Active; 'I' for Inactive)
REMARK    1  A    between atoms: N_4  and  C_16
REMARK    2  A    between atoms: C_11  and  O_23
REMARK    3  A    between atoms: C_14  and  O_19
REMARK    4  A    between atoms: C_15  and  O_21
REMARK    5  A    between atoms: O_23  and  C_24
REMARK    6  A    between atoms: C_25  and  C_26
REMARK                            x       y       z     vdW  Elec       q    Type
REMARK                         _______ _______ _______ _____ _____    ______ ____
ROOT
ATOM      1  F   UNL     1      54.965   6.997   6.989  0.00  0.00    +0.000 F 
ATOM      2  O   UNL     1      49.692   7.790   7.507  0.00  0.00    +0.000 OA
ATOM      3  O   UNL     1      51.983   9.312   3.727  0.00  0.00    +0.000 OA
ATOM      4  N   UNL     1      51.692   7.112   8.477  0.00  0.00    +0.000 N 
ATOM      5  N   UNL     1      51.615   8.166   6.323  0.00  0.00    +0.000 NA
ATOM      6  N   UNL     1      53.630   8.477   5.143  0.00  0.00    +0.000 N 
ATOM      7  C   UNL     1      53.026   7.079   8.288  0.00  0.00    +0.000 C 
ATOM      8  C   UNL     1      50.916   7.700   7.445  0.00  0.00    +0.000 C 
ATOM      9  C   UNL     1      53.774   7.515   7.336  0.00  0.00    +0.000 C 
ATOM     10  C   UNL     1      52.910   8.073   6.248  0.00  0.00    +0.000 C 
ATOM     11  C   UNL     1      53.145   9.032   3.979  0.00  0.00    +0.000 C 
ATOM     12  H   UNL     1      54.631   8.341   5.145  0.00  0.00    +0.000 HD
ENDROOT
BRANCH   4  16
ATOM     13  O   UNL     1      51.489   7.212  10.887  0.00  0.00    +0.000 OA
ATOM     14  C   UNL     1      50.388   5.433   9.916  0.00  0.00    +0.000 A 
ATOM     15  C   UNL     1      50.239   5.333  11.336  0.00  0.00    +0.000 A 
ATOM     16  C   UNL     1      51.197   6.600   9.648  0.00  0.00    +0.000 A 
ATOM     17  C   UNL     1      50.919   6.455  11.923  0.00  0.00    +0.000 A 
ATOM     18  C   UNL     1      51.301   6.734  13.336  0.00  0.00    +0.000 C 
BRANCH  14  19
ATOM     19  O   UNL     1      50.368   4.297   9.157  0.00  0.00    +0.000 OA
ATOM     20  H   UNL     1      51.214   3.799   9.211  0.00  0.00    +0.000 HD
ENDBRANCH  14  19
BRANCH  15  21
ATOM     21  O   UNL     1      50.115   4.115  11.949  0.00  0.00    +0.000 OA
ATOM     22  H   UNL     1      49.719   4.218  12.836  0.00  0.00    +0.000 HD
ENDBRANCH  15  21
ENDBRANCH   4  16
BRANCH  11  23
ATOM     23  O   UNL     1      54.196   9.242   3.130  0.00  0.00    +0.000 OA
BRANCH  23  24
ATOM     24  C   UNL     1      54.039   8.782   1.891  0.00  0.00    +0.000 C 
ATOM     25  C   UNL     1      53.860   8.256   0.463  0.00  0.00    +0.000 C 
BRANCH  25  26
ATOM     26  C   UNL     1      53.681   7.731  -0.965  0.00  0.00    +0.000 C 
ATOM     27  C   UNL     1      53.509   7.206  -2.393  0.00  0.00    +0.000 C 
ATOM     28  C   UNL     1      53.349   6.673  -3.821  0.00  0.00    +0.000 C 
ENDBRANCH  25  26
ENDBRANCH  23  24
ENDBRANCH  11  23
TORSDOF 6
ENDMDL
MODEL 6
REMARK VINA RESULT:      -5.9     13.611     16.317
REMARK  Name = 60953_Capecitabine.pdbqt.pdb
REMARK  6 active torsions:
REMARK  status: ('A' for Active; 'I' for Inactive)
REMARK    1  A    between atoms: N_4  and  C_16
REMARK    2  A    between atoms: C_11  and  O_23
REMARK    3  A    between atoms: C_14  and  O_19
REMARK    4  A    between atoms: C_15  and  O_21
REMARK    5  A    between atoms: O_23  and  C_24
REMARK    6  A    between atoms: C_25  and  C_26
REMARK                            x       y       z     vdW  Elec       q    Type
REMARK                         _______ _______ _______ _____ _____    ______ ____
ROOT
ATOM      1  F   UNL     1      35.454  16.780  22.723  0.00  0.00    +0.000 F 
ATOM      2  O   UNL     1      35.697  11.924  20.472  0.00  0.00    +0.000 OA
ATOM      3  O   UNL     1      38.545  15.357  19.073  0.00  0.00    +0.000 OA
ATOM      4  N   UNL     1      34.581  13.392  21.885  0.00  0.00    +0.000 N 
ATOM      5  N   UNL     1      36.401  14.103  20.493  0.00  0.00    +0.000 NA
ATOM      6  N   UNL     1      37.101  16.349  20.605  0.00  0.00    +0.000 N 
ATOM      7  C   UNL     1      34.535  14.678  22.287  0.00  0.00    +0.000 C 
ATOM      8  C   UNL     1      35.563  13.062  20.916  0.00  0.00    +0.000 C 
ATOM      9  C   UNL     1      35.209  15.717  21.937  0.00  0.00    +0.000 C 
ATOM     10  C   UNL     1      36.268  15.309  20.960  0.00  0.00    +0.000 C 
ATOM     11  C   UNL     1      38.166  16.314  19.732  0.00  0.00    +0.000 C 
ATOM     12  H   UNL     1      36.956  17.251  21.037  0.00  0.00    +0.000 HD
ENDROOT
BRANCH   4  16
ATOM     13  O   UNL     1      34.084  11.480  23.284  0.00  0.00    +0.000 OA
ATOM     14  C   UNL     1      32.241  12.403  22.250  0.00  0.00    +0.000 A 
ATOM     15  C   UNL     1      31.814  11.252  22.987  0.00  0.00    +0.000 A 
ATOM     16  C   UNL     1      33.670  12.519  22.421  0.00  0.00    +0.000 A 
ATOM     17  C   UNL     1      32.972  10.698  23.634  0.00  0.00    +0.000 A 
ATOM     18  C   UNL     1      33.175   9.390  24.316  0.00  0.00    +0.000 C 
BRANCH  14  19
ATOM     19  O   UNL     1      31.547  12.781  21.135  0.00  0.00    +0.000 OA
ATOM     20  H   UNL     1      32.130  12.870  20.348  0.00  0.00    +0.000 HD
ENDBRANCH  14  19
BRANCH  15  21
ATOM     21  O   UNL     1      30.745  10.503  22.572  0.00  0.00    +0.000 OA
ATOM     22  H   UNL     1      30.739  10.428  21.598  0.00  0.00    +0.000 HD
ENDBRANCH  15  21
ENDBRANCH   4  16
BRANCH  11  23
ATOM     23  O   UNL     1      38.743  17.553  19.705  0.00  0.00    +0.000 OA
BRANCH  23  24
ATOM     24  C   UNL     1      37.914  18.573  19.494  0.00  0.00    +0.000 C 
ATOM     25  C   UNL     1      36.962  19.748  19.248  0.00  0.00    +0.000 C 
BRANCH  25  26
ATOM     26  C   UNL     1      36.012  20.923  19.003  0.00  0.00    +0.000 C 
ATOM     27  C   UNL     1      35.058  22.097  18.763  0.00  0.00    +0.000 C 
ATOM     28  C   UNL     1      34.100  23.272  18.536  0.00  0.00    +0.000 C 
ENDBRANCH  25  26
ENDBRANCH  23  24
ENDBRANCH  11  23
TORSDOF 6
ENDMDL
MODEL 7
REMARK VINA RESULT:      -5.7     13.062     13.584
REMARK  Name = 60953_Capecitabine.pdbqt.pdb
REMARK  6 active torsions:
REMARK  status: ('A' for Active; 'I' for Inactive)
REMARK    1  A    between atoms: N_4  and  C_16
REMARK    2  A    between atoms: C_11  and  O_23
REMARK    3  A    between atoms: C_14  and  O_19
REMARK    4  A    between atoms: C_15  and  O_21
REMARK    5  A    between atoms: O_23  and  C_24
REMARK    6  A    between atoms: C_25  and  C_26
REMARK                            x       y       z     vdW  Elec       q    Type
REMARK                         _______ _______ _______ _____ _____    ______ ____
ROOT
ATOM      1  F   UNL     1      53.783   4.770  12.251  0.00  0.00    +0.000 F 
ATOM      2  O   UNL     1      48.522   4.512  11.273  0.00  0.00    +0.000 OA
ATOM      3  O   UNL     1      50.300   7.926  13.927  0.00  0.00    +0.000 OA
ATOM      4  N   UNL     1      50.608   3.500  11.133  0.00  0.00    +0.000 N 
ATOM      5  N   UNL     1      50.253   5.514  12.388  0.00  0.00    +0.000 NA
ATOM      6  N   UNL     1      52.091   6.513  13.470  0.00  0.00    +0.000 N 
ATOM      7  C   UNL     1      51.887   3.603  11.547  0.00  0.00    +0.000 C 
ATOM      8  C   UNL     1      49.712   4.504  11.581  0.00  0.00    +0.000 C 
ATOM      9  C   UNL     1      52.481   4.444  12.318  0.00  0.00    +0.000 C 
ATOM     10  C   UNL     1      51.511   5.514  12.716  0.00  0.00    +0.000 C 
ATOM     11  C   UNL     1      51.484   7.632  13.994  0.00  0.00    +0.000 C 
ATOM     12  H   UNL     1      53.083   6.460  13.655  0.00  0.00    +0.000 HD
ENDROOT
BRANCH   4  16
ATOM     13  O   UNL     1      50.697   2.370   8.994  0.00  0.00    +0.000 OA
ATOM     14  C   UNL     1      49.474   1.259  10.603  0.00  0.00    +0.000 A 
ATOM     15  C   UNL     1      49.389   0.518   9.382  0.00  0.00    +0.000 A 
ATOM     16  C   UNL     1      50.274   2.433  10.340  0.00  0.00    +0.000 A 
ATOM     17  C   UNL     1      50.167   1.216   8.396  0.00  0.00    +0.000 A 
ATOM     18  C   UNL     1      50.241   1.052   6.917  0.00  0.00    +0.000 C 
BRANCH  14  19
ATOM     19  O   UNL     1      48.449   1.190  11.504  0.00  0.00    +0.000 OA
ATOM     20  H   UNL     1      47.850   1.967  11.445  0.00  0.00    +0.000 HD
ENDBRANCH  14  19
BRANCH  15  21
ATOM     21  O   UNL     1      48.281  -0.231   9.085  0.00  0.00    +0.000 OA
ATOM     22  H   UNL     1      47.468   0.285   9.249  0.00  0.00    +0.000 HD
ENDBRANCH  15  21
ENDBRANCH   4  16
BRANCH  11  23
ATOM     23  O   UNL     1      52.433   8.379  14.634  0.00  0.00    +0.000 OA
BRANCH  23  24
ATOM     24  C   UNL     1      53.653   8.342  14.103  0.00  0.00    +0.000 C 
ATOM     25  C   UNL     1      55.057   8.299  13.489  0.00  0.00    +0.000 C 
BRANCH  25  26
ATOM     26  C   UNL     1      56.459   8.255  12.875  0.00  0.00    +0.000 C 
ATOM     27  C   UNL     1      57.860   8.217  12.258  0.00  0.00    +0.000 C 
ATOM     28  C   UNL     1      59.263   8.193  11.641  0.00  0.00    +0.000 C 
ENDBRANCH  25  26
ENDBRANCH  23  24
ENDBRANCH  11  23
TORSDOF 6
ENDMDL
MODEL 8
REMARK VINA RESULT:      -5.7     15.656     17.693
REMARK  Name = 60953_Capecitabine.pdbqt.pdb
REMARK  6 active torsions:
REMARK  status: ('A' for Active; 'I' for Inactive)
REMARK    1  A    between atoms: N_4  and  C_16
REMARK    2  A    between atoms: C_11  and  O_23
REMARK    3  A    between atoms: C_14  and  O_19
REMARK    4  A    between atoms: C_15  and  O_21
REMARK    5  A    between atoms: O_23  and  C_24
REMARK    6  A    between atoms: C_25  and  C_26
REMARK                            x       y       z     vdW  Elec       q    Type
REMARK                         _______ _______ _______ _____ _____    ______ ____
ROOT
ATOM      1  F   UNL     1      32.065  16.208  18.884  0.00  0.00    +0.000 F 
ATOM      2  O   UNL     1      36.298  14.741  21.821  0.00  0.00    +0.000 OA
ATOM      3  O   UNL     1      32.191  12.556  22.281  0.00  0.00    +0.000 OA
ATOM      4  N   UNL     1      35.349  16.269  20.350  0.00  0.00    +0.000 N 
ATOM      5  N   UNL     1      34.066  14.514  21.366  0.00  0.00    +0.000 NA
ATOM      6  N   UNL     1      31.785  14.314  20.812  0.00  0.00    +0.000 N 
ATOM      7  C   UNL     1      34.189  16.622  19.761  0.00  0.00    +0.000 C 
ATOM      8  C   UNL     1      35.306  15.152  21.224  0.00  0.00    +0.000 C 
ATOM      9  C   UNL     1      32.996  16.150  19.852  0.00  0.00    +0.000 C 
ATOM     10  C   UNL     1      33.012  14.941  20.736  0.00  0.00    +0.000 C 
ATOM     11  C   UNL     1      31.459  13.188  21.534  0.00  0.00    +0.000 C 
ATOM     12  H   UNL     1      31.020  14.686  20.266  0.00  0.00    +0.000 HD
ENDROOT
BRANCH   4  16
ATOM     13  O   UNL     1      36.355  18.411  19.841  0.00  0.00    +0.000 OA
ATOM     14  C   UNL     1      37.853  16.660  19.941  0.00  0.00    +0.000 A 
ATOM     15  C   UNL     1      38.568  17.844  19.572  0.00  0.00    +0.000 A 
ATOM     16  C   UNL     1      36.461  17.023  20.080  0.00  0.00    +0.000 A 
ATOM     17  C   UNL     1      37.623  18.925  19.527  0.00  0.00    +0.000 A 
ATOM     18  C   UNL     1      37.744  20.304  18.975  0.00  0.00    +0.000 C 
BRANCH  14  19
ATOM     19  O   UNL     1      38.312  15.441  19.529  0.00  0.00    +0.000 OA
ATOM     20  H   UNL     1      38.004  14.712  20.112  0.00  0.00    +0.000 HD
ENDBRANCH  14  19
BRANCH  15  21
ATOM     21  O   UNL     1      39.684  17.776  18.780  0.00  0.00    +0.000 OA
ATOM     22  H   UNL     1      40.314  18.483  19.019  0.00  0.00    +0.000 HD
ENDBRANCH  15  21
ENDBRANCH   4  16
BRANCH  11  23
ATOM     23  O   UNL     1      30.149  12.883  21.291  0.00  0.00    +0.000 OA
BRANCH  23  24
ATOM     24  C   UNL     1      29.635  13.388  20.172  0.00  0.00    +0.000 C 
ATOM     25  C   UNL     1      29.046  13.969  18.882  0.00  0.00    +0.000 C 
BRANCH  25  26
ATOM     26  C   UNL     1      28.459  14.551  17.593  0.00  0.00    +0.000 C 
ATOM     27  C   UNL     1      27.873  15.127  16.301  0.00  0.00    +0.000 C 
ATOM     28  C   UNL     1      27.284  15.691  15.004  0.00  0.00    +0.000 C 
ENDBRANCH  25  26
ENDBRANCH  23  24
ENDBRANCH  11  23
TORSDOF 6
ENDMDL
MODEL 9
REMARK VINA RESULT:      -5.3     24.790     26.739
REMARK  Name = 60953_Capecitabine.pdbqt.pdb
REMARK  6 active torsions:
REMARK  status: ('A' for Active; 'I' for Inactive)
REMARK    1  A    between atoms: N_4  and  C_16
REMARK    2  A    between atoms: C_11  and  O_23
REMARK    3  A    between atoms: C_14  and  O_19
REMARK    4  A    between atoms: C_15  and  O_21
REMARK    5  A    between atoms: O_23  and  C_24
REMARK    6  A    between atoms: C_25  and  C_26
REMARK                            x       y       z     vdW  Elec       q    Type
REMARK                         _______ _______ _______ _____ _____    ______ ____
ROOT
ATOM      1  F   UNL     1      41.312   4.400  -8.818  0.00  0.00    +0.000 F 
ATOM      2  O   UNL     1      41.343  -0.949  -8.532  0.00  0.00    +0.000 OA
ATOM      3  O   UNL     1      37.768   1.520  -6.807  0.00  0.00    +0.000 OA
ATOM      4  N   UNL     1      42.497   1.009  -9.014  0.00  0.00    +0.000 N 
ATOM      5  N   UNL     1      40.333   1.029  -7.976  0.00  0.00    +0.000 NA
ATOM      6  N   UNL     1      39.336   3.104  -7.477  0.00  0.00    +0.000 N 
ATOM      7  C   UNL     1      42.429   2.352  -8.919  0.00  0.00    +0.000 C 
ATOM      8  C   UNL     1      41.393   0.279  -8.504  0.00  0.00    +0.000 C 
ATOM      9  C   UNL     1      41.544   3.139  -8.416  0.00  0.00    +0.000 C 
ATOM     10  C   UNL     1      40.376   2.328  -7.946  0.00  0.00    +0.000 C 
ATOM     11  C   UNL     1      38.128   2.676  -6.974  0.00  0.00    +0.000 C 
ATOM     12  H   UNL     1      39.430   4.109  -7.517  0.00  0.00    +0.000 HD
ENDROOT
BRANCH   4  16
ATOM     13  O   UNL     1      44.857   0.487  -8.878  0.00  0.00    +0.000 OA
ATOM     14  C   UNL     1      43.851  -0.171 -10.847  0.00  0.00    +0.000 A 
ATOM     15  C   UNL     1      45.246  -0.481 -10.928  0.00  0.00    +0.000 A 
ATOM     16  C   UNL     1      43.624   0.461  -9.568  0.00  0.00    +0.000 A 
ATOM     17  C   UNL     1      45.853  -0.077  -9.690  0.00  0.00    +0.000 A 
ATOM     18  C   UNL     1      47.286   0.070  -9.309  0.00  0.00    +0.000 C 
BRANCH  14  19
ATOM     19  O   UNL     1      43.154   0.094 -11.992  0.00  0.00    +0.000 OA
ATOM     20  H   UNL     1      42.791  -0.722 -12.402  0.00  0.00    +0.000 HD
ENDBRANCH  14  19
BRANCH  15  21
ATOM     21  O   UNL     1      45.901  -0.479 -12.132  0.00  0.00    +0.000 OA
ATOM     22  H   UNL     1      45.604   0.272 -12.680  0.00  0.00    +0.000 HD
ENDBRANCH  15  21
ENDBRANCH   4  16
BRANCH  11  23
ATOM     23  O   UNL     1      37.375   3.775  -6.667  0.00  0.00    +0.000 OA
BRANCH  23  24
ATOM     24  C   UNL     1      37.634   4.871  -7.376  0.00  0.00    +0.000 C 
ATOM     25  C   UNL     1      37.936   6.133  -8.193  0.00  0.00    +0.000 C 
BRANCH  25  26
ATOM     26  C   UNL     1      38.239   7.393  -9.008  0.00  0.00    +0.000 C 
ATOM     27  C   UNL     1      38.547   8.656  -9.818  0.00  0.00    +0.000 C 
ATOM     28  C   UNL     1      38.867   9.920 -10.622  0.00  0.00    +0.000 C 
ENDBRANCH  25  26
ENDBRANCH  23  24
ENDBRANCH  11  23
TORSDOF 6
ENDMDL
