MODEL 1
REMARK VINA RESULT:      -6.6      0.000      0.000
REMARK  Name = 6223_Gliotoxin.pdbqt.pdb
REMARK  3 active torsions:
REMARK  status: ('A' for Active; 'I' for Inactive)
REMARK    1  A    between atoms: C_10  and  C_21
REMARK    2  A    between atoms: C_14  and  O_19
REMARK    3  A    between atoms: C_21  and  O_22
REMARK                            x       y       z     vdW  Elec       q    Type
REMARK                         _______ _______ _______ _____ _____    ______ ____
ROOT
ATOM      1  S   UNL     1      39.857  -2.288  16.829  0.00  0.00    +0.000 S 
ATOM      2  S   UNL     1      38.905  -0.676  17.699  0.00  0.00    +0.000 S 
ATOM      3  O   UNL     1      40.052   1.656  15.172  0.00  0.00    +0.000 OA
ATOM      4  O   UNL     1      43.067  -1.481  18.122  0.00  0.00    +0.000 OA
ATOM      5  N   UNL     1      41.166  -0.338  15.423  0.00  0.00    +0.000 N 
ATOM      6  N   UNL     1      41.482   0.255  18.056  0.00  0.00    +0.000 N 
ATOM      7  C   UNL     1      41.425  -1.499  16.331  0.00  0.00    +0.000 C 
ATOM      8  C   UNL     1      41.679  -0.568  14.145  0.00  0.00    +0.000 A 
ATOM      9  C   UNL     1      42.238  -2.357  15.473  0.00  0.00    +0.000 C 
ATOM     10  C   UNL     1      40.178   0.665  17.439  0.00  0.00    +0.000 C 
ATOM     11  C   UNL     1      42.471  -1.846  14.189  0.00  0.00    +0.000 A 
ATOM     12  C   UNL     1      40.450   0.751  15.903  0.00  0.00    +0.000 C 
ATOM     13  C   UNL     1      42.114  -0.927  17.572  0.00  0.00    +0.000 C 
ATOM     14  C   UNL     1      41.245  -0.007  12.844  0.00  0.00    +0.000 A 
ATOM     15  C   UNL     1      42.493  -2.482  13.053  0.00  0.00    +0.000 A 
ATOM     16  C   UNL     1      41.505  -0.919  11.764  0.00  0.00    +0.000 A 
ATOM     17  C   UNL     1      41.935   0.997  19.232  0.00  0.00    +0.000 C 
ATOM     18  C   UNL     1      42.003  -2.010  11.675  0.00  0.00    +0.000 A 
ENDROOT
BRANCH  14  19
ATOM     19  O   UNL     1      40.274   0.946  12.733  0.00  0.00    +0.000 OA
ATOM     20  H   UNL     1      40.531   1.692  12.155  0.00  0.00    +0.000 HD
ENDBRANCH  14  19
BRANCH  10  21
ATOM     21  C   UNL     1      39.623   1.948  17.946  0.00  0.00    +0.000 C 
BRANCH  21  22
ATOM     22  O   UNL     1      39.108   3.093  18.403  0.00  0.00    +0.000 OA
ATOM     23  H   UNL     1      38.133   3.086  18.355  0.00  0.00    +0.000 HD
ENDBRANCH  21  22
ENDBRANCH  10  21
TORSDOF 3
ENDMDL
MODEL 2
REMARK VINA RESULT:      -6.5      2.403      5.553
REMARK  Name = 6223_Gliotoxin.pdbqt.pdb
REMARK  3 active torsions:
REMARK  status: ('A' for Active; 'I' for Inactive)
REMARK    1  A    between atoms: C_10  and  C_21
REMARK    2  A    between atoms: C_14  and  O_19
REMARK    3  A    between atoms: C_21  and  O_22
REMARK                            x       y       z     vdW  Elec       q    Type
REMARK                         _______ _______ _______ _____ _____    ______ ____
ROOT
ATOM      1  S   UNL     1      41.956  -0.336  17.314  0.00  0.00    +0.000 S 
ATOM      2  S   UNL     1      42.008  -0.286  15.252  0.00  0.00    +0.000 S 
ATOM      3  O   UNL     1      39.596   2.412  15.029  0.00  0.00    +0.000 OA
ATOM      4  O   UNL     1      38.923  -2.179  17.500  0.00  0.00    +0.000 OA
ATOM      5  N   UNL     1      39.705   1.184  16.969  0.00  0.00    +0.000 N 
ATOM      6  N   UNL     1      39.365  -1.062  15.478  0.00  0.00    +0.000 N 
ATOM      7  C   UNL     1      40.168  -0.094  17.593  0.00  0.00    +0.000 C 
ATOM      8  C   UNL     1      39.274   2.095  17.934  0.00  0.00    +0.000 A 
ATOM      9  C   UNL     1      39.845   0.140  18.998  0.00  0.00    +0.000 C 
ATOM     10  C   UNL     1      40.206   0.017  14.863  0.00  0.00    +0.000 C 
ATOM     11  C   UNL     1      39.267   1.389  19.263  0.00  0.00    +0.000 A 
ATOM     12  C   UNL     1      39.793   1.337  15.591  0.00  0.00    +0.000 C 
ATOM     13  C   UNL     1      39.397  -1.216  16.894  0.00  0.00    +0.000 C 
ATOM     14  C   UNL     1      39.236   3.575  17.879  0.00  0.00    +0.000 A 
ATOM     15  C   UNL     1      39.477   2.184  20.273  0.00  0.00    +0.000 A 
ATOM     16  C   UNL     1      39.392   4.155  19.185  0.00  0.00    +0.000 A 
ATOM     17  C   UNL     1      38.700  -1.998  14.571  0.00  0.00    +0.000 C 
ATOM     18  C   UNL     1      39.526   3.720  20.298  0.00  0.00    +0.000 A 
ENDROOT
BRANCH  14  19
ATOM     19  O   UNL     1      39.558   4.285  16.758  0.00  0.00    +0.000 OA
ATOM     20  H   UNL     1      40.261   4.949  16.912  0.00  0.00    +0.000 HD
ENDBRANCH  14  19
BRANCH  10  21
ATOM     21  C   UNL     1      40.058   0.162  13.390  0.00  0.00    +0.000 C 
BRANCH  21  22
ATOM     22  O   UNL     1      39.927   0.273  12.066  0.00  0.00    +0.000 OA
ATOM     23  H   UNL     1      39.006   0.111  11.786  0.00  0.00    +0.000 HD
ENDBRANCH  21  22
ENDBRANCH  10  21
TORSDOF 3
ENDMDL
MODEL 3
REMARK VINA RESULT:      -6.1      2.360      3.005
REMARK  Name = 6223_Gliotoxin.pdbqt.pdb
REMARK  3 active torsions:
REMARK  status: ('A' for Active; 'I' for Inactive)
REMARK    1  A    between atoms: C_10  and  C_21
REMARK    2  A    between atoms: C_14  and  O_19
REMARK    3  A    between atoms: C_21  and  O_22
REMARK                            x       y       z     vdW  Elec       q    Type
REMARK                         _______ _______ _______ _____ _____    ______ ____
ROOT
ATOM      1  S   UNL     1      42.182  -0.268  17.904  0.00  0.00    +0.000 S 
ATOM      2  S   UNL     1      40.494  -0.328  19.090  0.00  0.00    +0.000 S 
ATOM      3  O   UNL     1      38.509  -2.024  16.575  0.00  0.00    +0.000 OA
ATOM      4  O   UNL     1      41.099   2.511  15.971  0.00  0.00    +0.000 OA
ATOM      5  N   UNL     1      40.412  -0.914  15.919  0.00  0.00    +0.000 N 
ATOM      6  N   UNL     1      39.441   1.315  17.132  0.00  0.00    +0.000 N 
ATOM      7  C   UNL     1      41.423   0.124  16.291  0.00  0.00    +0.000 C 
ATOM      8  C   UNL     1      40.804  -1.622  14.781  0.00  0.00    +0.000 A 
ATOM      9  C   UNL     1      42.369   0.012  15.184  0.00  0.00    +0.000 C 
ATOM     10  C   UNL     1      39.164   0.012  17.824  0.00  0.00    +0.000 C 
ATOM     11  C   UNL     1      42.038  -0.960  14.230  0.00  0.00    +0.000 A 
ATOM     12  C   UNL     1      39.289  -1.084  16.718  0.00  0.00    +0.000 C 
ATOM     13  C   UNL     1      40.659   1.445  16.405  0.00  0.00    +0.000 C 
ATOM     14  C   UNL     1      40.448  -2.997  14.361  0.00  0.00    +0.000 A 
ATOM     15  C   UNL     1      42.827  -1.781  13.598  0.00  0.00    +0.000 A 
ATOM     16  C   UNL     1      41.496  -3.598  13.582  0.00  0.00    +0.000 A 
ATOM     17  C   UNL     1      38.525   2.425  17.393  0.00  0.00    +0.000 C 
ATOM     18  C   UNL     1      42.572  -3.239  13.185  0.00  0.00    +0.000 A 
ENDROOT
BRANCH  14  19
ATOM     19  O   UNL     1      39.551  -3.772  15.039  0.00  0.00    +0.000 OA
ATOM     20  H   UNL     1      39.859  -4.022  15.934  0.00  0.00    +0.000 HD
ENDBRANCH  14  19
BRANCH  10  21
ATOM     21  C   UNL     1      37.839  -0.068  18.496  0.00  0.00    +0.000 C 
BRANCH  21  22
ATOM     22  O   UNL     1      36.641  -0.140  19.082  0.00  0.00    +0.000 OA
ATOM     23  H   UNL     1      35.967  -0.484  18.466  0.00  0.00    +0.000 HD
ENDBRANCH  21  22
ENDBRANCH  10  21
TORSDOF 3
ENDMDL
MODEL 4
REMARK VINA RESULT:      -5.9      2.682      3.508
REMARK  Name = 6223_Gliotoxin.pdbqt.pdb
REMARK  3 active torsions:
REMARK  status: ('A' for Active; 'I' for Inactive)
REMARK    1  A    between atoms: C_10  and  C_21
REMARK    2  A    between atoms: C_14  and  O_19
REMARK    3  A    between atoms: C_21  and  O_22
REMARK                            x       y       z     vdW  Elec       q    Type
REMARK                         _______ _______ _______ _____ _____    ______ ____
ROOT
ATOM      1  S   UNL     1      41.598  -4.355  16.623  0.00  0.00    +0.000 S 
ATOM      2  S   UNL     1      41.927  -3.275  18.351  0.00  0.00    +0.000 S 
ATOM      3  O   UNL     1      42.732  -0.226  16.562  0.00  0.00    +0.000 OA
ATOM      4  O   UNL     1      45.043  -4.908  15.947  0.00  0.00    +0.000 OA
ATOM      5  N   UNL     1      42.857  -2.230  15.443  0.00  0.00    +0.000 N 
ATOM      6  N   UNL     1      44.517  -3.132  17.396  0.00  0.00    +0.000 N 
ATOM      7  C   UNL     1      42.957  -3.716  15.585  0.00  0.00    +0.000 C 
ATOM      8  C   UNL     1      42.601  -1.861  14.122  0.00  0.00    +0.000 A 
ATOM      9  C   UNL     1      42.849  -4.144  14.193  0.00  0.00    +0.000 C 
ATOM     10  C   UNL     1      43.396  -2.240  17.842  0.00  0.00    +0.000 C 
ATOM     11  C   UNL     1      42.690  -3.100  13.272  0.00  0.00    +0.000 A 
ATOM     12  C   UNL     1      42.974  -1.431  16.574  0.00  0.00    +0.000 C 
ATOM     13  C   UNL     1      44.291  -3.991  16.282  0.00  0.00    +0.000 C 
ATOM     14  C   UNL     1      41.931  -0.648  13.598  0.00  0.00    +0.000 A 
ATOM     15  C   UNL     1      41.934  -3.058  12.213  0.00  0.00    +0.000 A 
ATOM     16  C   UNL     1      41.267  -0.910  12.350  0.00  0.00    +0.000 A 
ATOM     17  C   UNL     1      45.711  -3.188  18.239  0.00  0.00    +0.000 C 
ATOM     18  C   UNL     1      41.147  -1.870  11.636  0.00  0.00    +0.000 A 
ENDROOT
BRANCH  14  19
ATOM     19  O   UNL     1      41.529   0.383  14.398  0.00  0.00    +0.000 OA
ATOM     20  H   UNL     1      42.039   1.205  14.250  0.00  0.00    +0.000 HD
ENDBRANCH  14  19
BRANCH  10  21
ATOM     21  C   UNL     1      43.737  -1.321  18.961  0.00  0.00    +0.000 C 
BRANCH  21  22
ATOM     22  O   UNL     1      44.062  -0.497  19.961  0.00  0.00    +0.000 OA
ATOM     23  H   UNL     1      44.863   0.019  19.748  0.00  0.00    +0.000 HD
ENDBRANCH  21  22
ENDBRANCH  10  21
TORSDOF 3
ENDMDL
MODEL 5
REMARK VINA RESULT:      -5.8     11.716     12.965
REMARK  Name = 6223_Gliotoxin.pdbqt.pdb
REMARK  3 active torsions:
REMARK  status: ('A' for Active; 'I' for Inactive)
REMARK    1  A    between atoms: C_10  and  C_21
REMARK    2  A    between atoms: C_14  and  O_19
REMARK    3  A    between atoms: C_21  and  O_22
REMARK                            x       y       z     vdW  Elec       q    Type
REMARK                         _______ _______ _______ _____ _____    ______ ____
ROOT
ATOM      1  S   UNL     1      53.259   3.420   8.686  0.00  0.00    +0.000 S 
ATOM      2  S   UNL     1      53.267   4.973  10.046  0.00  0.00    +0.000 S 
ATOM      3  O   UNL     1      49.864   4.345  11.128  0.00  0.00    +0.000 OA
ATOM      4  O   UNL     1      51.462   5.207   6.194  0.00  0.00    +0.000 OA
ATOM      5  N   UNL     1      50.555   3.501   9.104  0.00  0.00    +0.000 N 
ATOM      6  N   UNL     1      51.309   6.014   8.397  0.00  0.00    +0.000 N 
ATOM      7  C   UNL     1      51.572   3.598   8.012  0.00  0.00    +0.000 C 
ATOM      8  C   UNL     1      49.750   2.371   8.951  0.00  0.00    +0.000 A 
ATOM      9  C   UNL     1      51.187   2.476   7.161  0.00  0.00    +0.000 C 
ATOM     10  C   UNL     1      51.535   5.636   9.832  0.00  0.00    +0.000 C 
ATOM     11  C   UNL     1      50.088   1.741   7.627  0.00  0.00    +0.000 A 
ATOM     12  C   UNL     1      50.551   4.456  10.114  0.00  0.00    +0.000 C 
ATOM     13  C   UNL     1      51.419   4.996   7.407  0.00  0.00    +0.000 C 
ATOM     14  C   UNL     1      49.015   1.595   9.978  0.00  0.00    +0.000 A 
ATOM     15  C   UNL     1      49.902   0.452   7.604  0.00  0.00    +0.000 A 
ATOM     16  C   UNL     1      48.886   0.214   9.601  0.00  0.00    +0.000 A 
ATOM     17  C   UNL     1      51.161   7.436   8.090  0.00  0.00    +0.000 C 
ATOM     18  C   UNL     1      49.218  -0.443   8.650  0.00  0.00    +0.000 A 
ENDROOT
BRANCH  14  19
ATOM     19  O   UNL     1      48.955   1.968  11.289  0.00  0.00    +0.000 OA
ATOM     20  H   UNL     1      49.072   2.931  11.421  0.00  0.00    +0.000 HD
ENDBRANCH  14  19
BRANCH  10  21
ATOM     21  C   UNL     1      51.325   6.738  10.808  0.00  0.00    +0.000 C 
BRANCH  21  22
ATOM     22  O   UNL     1      51.156   7.732  11.684  0.00  0.00    +0.000 OA
ATOM     23  H   UNL     1      51.560   7.517  12.546  0.00  0.00    +0.000 HD
ENDBRANCH  21  22
ENDBRANCH  10  21
TORSDOF 3
ENDMDL
MODEL 6
REMARK VINA RESULT:      -5.2     12.018     13.618
REMARK  Name = 6223_Gliotoxin.pdbqt.pdb
REMARK  3 active torsions:
REMARK  status: ('A' for Active; 'I' for Inactive)
REMARK    1  A    between atoms: C_10  and  C_21
REMARK    2  A    between atoms: C_14  and  O_19
REMARK    3  A    between atoms: C_21  and  O_22
REMARK                            x       y       z     vdW  Elec       q    Type
REMARK                         _______ _______ _______ _____ _____    ______ ____
ROOT
ATOM      1  S   UNL     1      52.403   2.087  10.183  0.00  0.00    +0.000 S 
ATOM      2  S   UNL     1      52.855   1.907   8.177  0.00  0.00    +0.000 S 
ATOM      3  O   UNL     1      51.688   5.245   7.379  0.00  0.00    +0.000 OA
ATOM      4  O   UNL     1      48.928   1.464   9.772  0.00  0.00    +0.000 OA
ATOM      5  N   UNL     1      50.974   4.261   9.330  0.00  0.00    +0.000 N 
ATOM      6  N   UNL     1      50.119   2.142   7.860  0.00  0.00    +0.000 N 
ATOM      7  C   UNL     1      50.810   2.972  10.071  0.00  0.00    +0.000 C 
ATOM      8  C   UNL     1      50.734   5.358  10.158  0.00  0.00    +0.000 A 
ATOM      9  C   UNL     1      50.339   3.446  11.370  0.00  0.00    +0.000 C 
ATOM     10  C   UNL     1      51.397   2.785   7.409  0.00  0.00    +0.000 C 
ATOM     11  C   UNL     1      50.221   4.839  11.474  0.00  0.00    +0.000 A 
ATOM     12  C   UNL     1      51.368   4.232   7.998  0.00  0.00    +0.000 C 
ATOM     13  C   UNL     1      49.827   2.130   9.255  0.00  0.00    +0.000 C 
ATOM     14  C   UNL     1      51.253   6.743  10.057  0.00  0.00    +0.000 A 
ATOM     15  C   UNL     1      50.514   5.606  12.484  0.00  0.00    +0.000 A 
ATOM     16  C   UNL     1      51.363   7.359  11.351  0.00  0.00    +0.000 A 
ATOM     17  C   UNL     1      49.340   1.414   6.859  0.00  0.00    +0.000 C 
ATOM     18  C   UNL     1      51.117   7.020  12.479  0.00  0.00    +0.000 A 
ENDROOT
BRANCH  14  19
ATOM     19  O   UNL     1      52.017   7.175   9.012  0.00  0.00    +0.000 OA
ATOM     20  H   UNL     1      51.640   6.943   8.139  0.00  0.00    +0.000 HD
ENDBRANCH  14  19
BRANCH  10  21
ATOM     21  C   UNL     1      51.590   2.823   5.935  0.00  0.00    +0.000 C 
BRANCH  21  22
ATOM     22  O   UNL     1      51.776   2.871   4.613  0.00  0.00    +0.000 OA
ATOM     23  H   UNL     1      51.223   3.562   4.203  0.00  0.00    +0.000 HD
ENDBRANCH  21  22
ENDBRANCH  10  21
TORSDOF 3
ENDMDL
MODEL 7
REMARK VINA RESULT:      -5.1     24.340     24.773
REMARK  Name = 6223_Gliotoxin.pdbqt.pdb
REMARK  3 active torsions:
REMARK  status: ('A' for Active; 'I' for Inactive)
REMARK    1  A    between atoms: C_10  and  C_21
REMARK    2  A    between atoms: C_14  and  O_19
REMARK    3  A    between atoms: C_21  and  O_22
REMARK                            x       y       z     vdW  Elec       q    Type
REMARK                         _______ _______ _______ _____ _____    ______ ____
ROOT
ATOM      1  S   UNL     1      38.786   2.853 -10.840  0.00  0.00    +0.000 S 
ATOM      2  S   UNL     1      38.693   4.870 -10.411  0.00  0.00    +0.000 S 
ATOM      3  O   UNL     1      41.368   4.706  -7.969  0.00  0.00    +0.000 OA
ATOM      4  O   UNL     1      36.958   1.843  -7.964  0.00  0.00    +0.000 OA
ATOM      5  N   UNL     1      40.277   2.767  -8.546  0.00  0.00    +0.000 N 
ATOM      6  N   UNL     1      37.933   3.983  -7.906  0.00  0.00    +0.000 N 
ATOM      7  C   UNL     1      39.045   2.183  -9.162  0.00  0.00    +0.000 C 
ATOM      8  C   UNL     1      41.252   1.791  -8.336  0.00  0.00    +0.000 A 
ATOM      9  C   UNL     1      39.375   0.761  -9.171  0.00  0.00    +0.000 C 
ATOM     10  C   UNL     1      38.967   4.848  -8.564  0.00  0.00    +0.000 C 
ATOM     11  C   UNL     1      40.640   0.452  -8.650  0.00  0.00    +0.000 A 
ATOM     12  C   UNL     1      40.333   4.134  -8.309  0.00  0.00    +0.000 C 
ATOM     13  C   UNL     1      37.877   2.606  -8.269  0.00  0.00    +0.000 C 
ATOM     14  C   UNL     1      42.725   1.935  -8.261  0.00  0.00    +0.000 A 
ATOM     15  C   UNL     1      41.502  -0.425  -9.074  0.00  0.00    +0.000 A 
ATOM     16  C   UNL     1      43.394   0.743  -8.706  0.00  0.00    +0.000 A 
ATOM     17  C   UNL     1      36.936   4.645  -7.065  0.00  0.00    +0.000 C 
ATOM     18  C   UNL     1      43.036  -0.335  -9.102  0.00  0.00    +0.000 A 
ENDROOT
BRANCH  14  19
ATOM     19  O   UNL     1      43.355   3.145  -8.302  0.00  0.00    +0.000 OA
ATOM     20  H   UNL     1      42.789   3.862  -8.651  0.00  0.00    +0.000 HD
ENDBRANCH  14  19
BRANCH  10  21
ATOM     21  C   UNL     1      39.009   6.252  -8.075  0.00  0.00    +0.000 C 
BRANCH  21  22
ATOM     22  O   UNL     1      39.056   7.507  -7.620  0.00  0.00    +0.000 OA
ATOM     23  H   UNL     1      38.209   7.968  -7.766  0.00  0.00    +0.000 HD
ENDBRANCH  21  22
ENDBRANCH  10  21
TORSDOF 3
ENDMDL
MODEL 8
REMARK VINA RESULT:      -5.0     12.391     14.758
REMARK  Name = 6223_Gliotoxin.pdbqt.pdb
REMARK  3 active torsions:
REMARK  status: ('A' for Active; 'I' for Inactive)
REMARK    1  A    between atoms: C_10  and  C_21
REMARK    2  A    between atoms: C_14  and  O_19
REMARK    3  A    between atoms: C_21  and  O_22
REMARK                            x       y       z     vdW  Elec       q    Type
REMARK                         _______ _______ _______ _____ _____    ______ ____
ROOT
ATOM      1  S   UNL     1      52.822  -1.492   6.390  0.00  0.00    +0.000 S 
ATOM      2  S   UNL     1      53.578  -0.414   4.800  0.00  0.00    +0.000 S 
ATOM      3  O   UNL     1      51.237   2.318   5.244  0.00  0.00    +0.000 OA
ATOM      4  O   UNL     1      50.025  -2.757   4.601  0.00  0.00    +0.000 OA
ATOM      5  N   UNL     1      50.743   0.276   6.178  0.00  0.00    +0.000 N 
ATOM      6  N   UNL     1      51.069  -0.842   3.722  0.00  0.00    +0.000 N 
ATOM      7  C   UNL     1      51.037  -1.190   6.158  0.00  0.00    +0.000 C 
ATOM      8  C   UNL     1      49.954   0.622   7.275  0.00  0.00    +0.000 A 
ATOM      9  C   UNL     1      50.238  -1.658   7.287  0.00  0.00    +0.000 C 
ATOM     10  C   UNL     1      52.006   0.278   4.068  0.00  0.00    +0.000 C 
ATOM     11  C   UNL     1      49.531  -0.650   7.959  0.00  0.00    +0.000 A 
ATOM     12  C   UNL     1      51.291   1.090   5.194  0.00  0.00    +0.000 C 
ATOM     13  C   UNL     1      50.621  -1.693   4.774  0.00  0.00    +0.000 C 
ATOM     14  C   UNL     1      49.850   1.918   7.987  0.00  0.00    +0.000 A 
ATOM     15  C   UNL     1      49.334  -0.510   9.238  0.00  0.00    +0.000 A 
ATOM     16  C   UNL     1      49.512   1.732   9.372  0.00  0.00    +0.000 A 
ATOM     17  C   UNL     1      50.813  -1.094   2.305  0.00  0.00    +0.000 C 
ATOM     18  C   UNL     1      49.281   0.781  10.070  0.00  0.00    +0.000 A 
ENDROOT
BRANCH  14  19
ATOM     19  O   UNL     1      50.496   3.047   7.572  0.00  0.00    +0.000 OA
ATOM     20  H   UNL     1      51.441   3.064   7.825  0.00  0.00    +0.000 HD
ENDBRANCH  14  19
BRANCH  10  21
ATOM     21  C   UNL     1      52.365   1.165   2.928  0.00  0.00    +0.000 C 
BRANCH  21  22
ATOM     22  O   UNL     1      52.673   1.954   1.896  0.00  0.00    +0.000 OA
ATOM     23  H   UNL     1      53.483   1.648   1.446  0.00  0.00    +0.000 HD
ENDBRANCH  21  22
ENDBRANCH  10  21
TORSDOF 3
ENDMDL
MODEL 9
REMARK VINA RESULT:      -5.0     12.486     13.678
REMARK  Name = 6223_Gliotoxin.pdbqt.pdb
REMARK  3 active torsions:
REMARK  status: ('A' for Active; 'I' for Inactive)
REMARK    1  A    between atoms: C_10  and  C_21
REMARK    2  A    between atoms: C_14  and  O_19
REMARK    3  A    between atoms: C_21  and  O_22
REMARK                            x       y       z     vdW  Elec       q    Type
REMARK                         _______ _______ _______ _____ _____    ______ ____
ROOT
ATOM      1  S   UNL     1      51.165   2.178   6.619  0.00  0.00    +0.000 S 
ATOM      2  S   UNL     1      49.841   1.392   7.994  0.00  0.00    +0.000 S 
ATOM      3  O   UNL     1      49.515   4.515   9.806  0.00  0.00    +0.000 OA
ATOM      4  O   UNL     1      53.993   1.967   8.761  0.00  0.00    +0.000 OA
ATOM      5  N   UNL     1      51.339   4.215   8.439  0.00  0.00    +0.000 N 
ATOM      6  N   UNL     1      51.877   1.918   9.787  0.00  0.00    +0.000 N 
ATOM      7  C   UNL     1      52.187   3.215   7.720  0.00  0.00    +0.000 C 
ATOM      8  C   UNL     1      51.656   5.520   8.059  0.00  0.00    +0.000 A 
ATOM      9  C   UNL     1      53.096   4.089   6.983  0.00  0.00    +0.000 C 
ATOM     10  C   UNL     1      50.427   2.225   9.559  0.00  0.00    +0.000 C 
ATOM     11  C   UNL     1      52.874   5.459   7.177  0.00  0.00    +0.000 A 
ATOM     12  C   UNL     1      50.358   3.767   9.315  0.00  0.00    +0.000 C 
ATOM     13  C   UNL     1      52.816   2.331   8.798  0.00  0.00    +0.000 C 
ATOM     14  C   UNL     1      50.809   6.735   8.073  0.00  0.00    +0.000 A 
ATOM     15  C   UNL     1      52.931   6.424   6.305  0.00  0.00    +0.000 A 
ATOM     16  C   UNL     1      51.199   7.661   7.044  0.00  0.00    +0.000 A 
ATOM     17  C   UNL     1      52.215   1.063  10.925  0.00  0.00    +0.000 C 
ATOM     18  C   UNL     1      52.053   7.681   6.199  0.00  0.00    +0.000 A 
ENDROOT
BRANCH  14  19
ATOM     19  O   UNL     1      49.543   6.752   8.582  0.00  0.00    +0.000 OA
ATOM     20  H   UNL     1      49.165   5.857   8.703  0.00  0.00    +0.000 HD
ENDBRANCH  14  19
BRANCH  10  21
ATOM     21  C   UNL     1      49.522   1.829  10.672  0.00  0.00    +0.000 C 
BRANCH  21  22
ATOM     22  O   UNL     1      48.696   1.482  11.662  0.00  0.00    +0.000 OA
ATOM     23  H   UNL     1      48.949   1.911  12.501  0.00  0.00    +0.000 HD
ENDBRANCH  21  22
ENDBRANCH  10  21
TORSDOF 3
ENDMDL
