MODEL 1
REMARK VINA RESULT:      -6.1      0.000      0.000
REMARK  Name = 6256_Trifluridine.pdbqt.pdb
REMARK  5 active torsions:
REMARK  status: ('A' for Active; 'I' for Inactive)
REMARK    1  A    between atoms: N_3  and  C1*_11
REMARK    2  A    between atoms: C_7  and  C_23
REMARK    3  A    between atoms: C3*_12  and  O3*_15
REMARK    4  A    between atoms: C4*_14  and  C5*_17
REMARK    5  A    between atoms: C5*_17  and  O5*_18
REMARK                            x       y       z     vdW  Elec       q    Type
REMARK                         _______ _______ _______ _____ _____    ______ ____
ROOT
ATOM      1  O   UNL     1      42.832  -0.833  17.657  0.00  0.00    +0.000 OA
ATOM      2  O   UNL     1      43.957  -2.992  13.766  0.00  0.00    +0.000 OA
ATOM      3  N   UNL     1      41.514  -0.421  15.733  0.00  0.00    +0.000 N 
ATOM      4  N   UNL     1      43.341  -1.889  15.682  0.00  0.00    +0.000 N 
ATOM      5  C   UNL     1      41.416  -0.768  14.435  0.00  0.00    +0.000 A 
ATOM      6  C   UNL     1      42.563  -1.010  16.475  0.00  0.00    +0.000 A 
ATOM      7  C   UNL     1      42.069  -1.545  13.635  0.00  0.00    +0.000 A 
ATOM      8  C   UNL     1      43.199  -2.215  14.328  0.00  0.00    +0.000 A 
ATOM      9  H   UNL     1      44.107  -2.336  16.166  0.00  0.00    +0.000 HD
ENDROOT
BRANCH   3  11
ATOM     10  O4* UNL     1      40.855   1.846  16.259  0.00  0.00    +0.000 OA
ATOM     11  C1* UNL     1      40.617   0.468  16.253  0.00  0.00    +0.000 A 
ATOM     12  C3* UNL     1      38.812   1.425  17.264  0.00  0.00    +0.000 A 
ATOM     13  C2* UNL     1      39.380   0.200  16.871  0.00  0.00    +0.000 A 
ATOM     14  C4* UNL     1      39.753   2.447  16.880  0.00  0.00    +0.000 A 
BRANCH  12  15
ATOM     15  O3* UNL     1      38.009   1.583  18.358  0.00  0.00    +0.000 OA
ATOM     16  H3* UNL     1      37.180   2.034  18.120  0.00  0.00    +0.000 HD
ENDBRANCH  12  15
BRANCH  14  17
ATOM     17  C5* UNL     1      39.738   3.808  17.243  0.00  0.00    +0.000 C 
BRANCH  17  18
ATOM     18  O5* UNL     1      39.725   5.094  17.582  0.00  0.00    +0.000 OA
ATOM     19  H5* UNL     1      39.621   5.649  16.790  0.00  0.00    +0.000 HD
ENDBRANCH  17  18
ENDBRANCH  14  17
ENDBRANCH   3  11
BRANCH   7  23
ATOM     20  F   UNL     1      40.707  -1.292  11.735  0.00  0.00    +0.000 F 
ATOM     21  F   UNL     1      42.859  -1.284  11.445  0.00  0.00    +0.000 F 
ATOM     22  F   UNL     1      41.853  -3.146  11.927  0.00  0.00    +0.000 F 
ATOM     23  C   UNL     1      41.865  -1.819  12.206  0.00  0.00    +0.000 C 
ENDBRANCH   7  23
TORSDOF 5
ENDMDL
MODEL 2
REMARK VINA RESULT:      -5.6     18.846     20.167
REMARK  Name = 6256_Trifluridine.pdbqt.pdb
REMARK  5 active torsions:
REMARK  status: ('A' for Active; 'I' for Inactive)
REMARK    1  A    between atoms: N_3  and  C1*_11
REMARK    2  A    between atoms: C_7  and  C_23
REMARK    3  A    between atoms: C3*_12  and  O3*_15
REMARK    4  A    between atoms: C4*_14  and  C5*_17
REMARK    5  A    between atoms: C5*_17  and  O5*_18
REMARK                            x       y       z     vdW  Elec       q    Type
REMARK                         _______ _______ _______ _____ _____    ______ ____
ROOT
ATOM      1  O   UNL     1      34.744  21.118  18.619  0.00  0.00    +0.000 OA
ATOM      2  O   UNL     1      39.116  19.866  19.242  0.00  0.00    +0.000 OA
ATOM      3  N   UNL     1      35.204  18.825  18.989  0.00  0.00    +0.000 N 
ATOM      4  N   UNL     1      36.911  20.431  18.944  0.00  0.00    +0.000 N 
ATOM      5  C   UNL     1      36.233  17.984  19.213  0.00  0.00    +0.000 A 
ATOM      6  C   UNL     1      35.520  20.193  18.831  0.00  0.00    +0.000 A 
ATOM      7  C   UNL     1      37.515  18.104  19.328  0.00  0.00    +0.000 A 
ATOM      8  C   UNL     1      37.946  19.517  19.176  0.00  0.00    +0.000 A 
ATOM      9  H   UNL     1      37.190  21.396  18.837  0.00  0.00    +0.000 HD
ENDROOT
BRANCH   3  11
ATOM     10  O4* UNL     1      33.305  18.059  17.702  0.00  0.00    +0.000 OA
ATOM     11  C1* UNL     1      33.937  18.320  18.922  0.00  0.00    +0.000 A 
ATOM     12  C3* UNL     1      31.858  17.537  19.433  0.00  0.00    +0.000 A 
ATOM     13  C2* UNL     1      33.061  18.015  19.983  0.00  0.00    +0.000 A 
ATOM     14  C4* UNL     1      32.024  17.577  18.002  0.00  0.00    +0.000 A 
BRANCH  12  15
ATOM     15  O3* UNL     1      30.630  17.714  20.004  0.00  0.00    +0.000 OA
ATOM     16  H3* UNL     1      30.406  18.659  20.064  0.00  0.00    +0.000 HD
ENDBRANCH  12  15
BRANCH  14  17
ATOM     17  C5* UNL     1      31.033  17.401  17.017  0.00  0.00    +0.000 C 
BRANCH  17  18
ATOM     18  O5* UNL     1      30.095  17.232  16.090  0.00  0.00    +0.000 OA
ATOM     19  H5* UNL     1      29.212  17.246  16.498  0.00  0.00    +0.000 HD
ENDBRANCH  17  18
ENDBRANCH  14  17
ENDBRANCH   3  11
BRANCH   7  23
ATOM     20  F   UNL     1      39.801  17.556  19.367  0.00  0.00    +0.000 F 
ATOM     21  F   UNL     1      38.508  16.602  20.827  0.00  0.00    +0.000 F 
ATOM     22  F   UNL     1      38.391  16.003  18.744  0.00  0.00    +0.000 F 
ATOM     23  C   UNL     1      38.544  17.080  19.553  0.00  0.00    +0.000 C 
ENDBRANCH   7  23
TORSDOF 5
ENDMDL
MODEL 3
REMARK VINA RESULT:      -5.0     18.421     20.188
REMARK  Name = 6256_Trifluridine.pdbqt.pdb
REMARK  5 active torsions:
REMARK  status: ('A' for Active; 'I' for Inactive)
REMARK    1  A    between atoms: N_3  and  C1*_11
REMARK    2  A    between atoms: C_7  and  C_23
REMARK    3  A    between atoms: C3*_12  and  O3*_15
REMARK    4  A    between atoms: C4*_14  and  C5*_17
REMARK    5  A    between atoms: C5*_17  and  O5*_18
REMARK                            x       y       z     vdW  Elec       q    Type
REMARK                         _______ _______ _______ _____ _____    ______ ____
ROOT
ATOM      1  O   UNL     1      34.870  20.920  18.519  0.00  0.00    +0.000 OA
ATOM      2  O   UNL     1      38.891  18.831  19.248  0.00  0.00    +0.000 OA
ATOM      3  N   UNL     1      34.839  18.648  19.188  0.00  0.00    +0.000 N 
ATOM      4  N   UNL     1      36.849  19.822  18.906  0.00  0.00    +0.000 N 
ATOM      5  C   UNL     1      35.672  17.638  19.509  0.00  0.00    +0.000 A 
ATOM      6  C   UNL     1      35.436  19.882  18.844  0.00  0.00    +0.000 A 
ATOM      7  C   UNL     1      36.953  17.487  19.590  0.00  0.00    +0.000 A 
ATOM      8  C   UNL     1      37.671  18.741  19.244  0.00  0.00    +0.000 A 
ATOM      9  H   UNL     1      37.325  20.681  18.666  0.00  0.00    +0.000 HD
ENDROOT
BRANCH   3  11
ATOM     10  O4* UNL     1      32.638  19.123  20.069  0.00  0.00    +0.000 OA
ATOM     11  C1* UNL     1      33.492  18.429  19.205  0.00  0.00    +0.000 A 
ATOM     12  C3* UNL     1      31.395  17.628  18.811  0.00  0.00    +0.000 A 
ATOM     13  C2* UNL     1      32.746  17.509  18.442  0.00  0.00    +0.000 A 
ATOM     14  C4* UNL     1      31.344  18.638  19.838  0.00  0.00    +0.000 A 
BRANCH  12  15
ATOM     15  O3* UNL     1      30.502  16.593  18.798  0.00  0.00    +0.000 OA
ATOM     16  H3* UNL     1      29.905  16.638  19.565  0.00  0.00    +0.000 HD
ENDBRANCH  12  15
BRANCH  14  17
ATOM     17  C5* UNL     1      30.254  18.964  20.669  0.00  0.00    +0.000 C 
BRANCH  17  18
ATOM     18  O5* UNL     1      29.224  19.268  21.452  0.00  0.00    +0.000 OA
ATOM     19  H5* UNL     1      29.157  18.630  22.184  0.00  0.00    +0.000 HD
ENDBRANCH  17  18
ENDBRANCH  14  17
ENDBRANCH   3  11
BRANCH   7  23
ATOM     20  F   UNL     1      38.504  16.487  21.046  0.00  0.00    +0.000 F 
ATOM     21  F   UNL     1      36.953  15.225  20.199  0.00  0.00    +0.000 F 
ATOM     22  F   UNL     1      38.576  15.919  18.934  0.00  0.00    +0.000 F 
ATOM     23  C   UNL     1      37.746  16.301  19.936  0.00  0.00    +0.000 C 
ENDBRANCH   7  23
TORSDOF 5
ENDMDL
MODEL 4
REMARK VINA RESULT:      -4.9     24.205     25.712
REMARK  Name = 6256_Trifluridine.pdbqt.pdb
REMARK  5 active torsions:
REMARK  status: ('A' for Active; 'I' for Inactive)
REMARK    1  A    between atoms: N_3  and  C1*_11
REMARK    2  A    between atoms: C_7  and  C_23
REMARK    3  A    between atoms: C3*_12  and  O3*_15
REMARK    4  A    between atoms: C4*_14  and  C5*_17
REMARK    5  A    between atoms: C5*_17  and  O5*_18
REMARK                            x       y       z     vdW  Elec       q    Type
REMARK                         _______ _______ _______ _____ _____    ______ ____
ROOT
ATOM      1  O   UNL     1      45.151   0.504 -12.684  0.00  0.00    +0.000 OA
ATOM      2  O   UNL     1      49.538  -0.387 -11.672  0.00  0.00    +0.000 OA
ATOM      3  N   UNL     1      45.810   0.594 -10.411  0.00  0.00    +0.000 N 
ATOM      4  N   UNL     1      47.334   0.075 -12.116  0.00  0.00    +0.000 N 
ATOM      5  C   UNL     1      46.893   0.431  -9.626  0.00  0.00    +0.000 A 
ATOM      6  C   UNL     1      45.994   0.408 -11.800  0.00  0.00    +0.000 A 
ATOM      7  C   UNL     1      48.135   0.128  -9.817  0.00  0.00    +0.000 A 
ATOM      8  C   UNL     1      48.428  -0.087 -11.257  0.00  0.00    +0.000 A 
ATOM      9  H   UNL     1      47.518  -0.070 -13.098  0.00  0.00    +0.000 HD
ENDROOT
BRANCH   3  11
ATOM     10  O4* UNL     1      44.206   2.245  -9.670  0.00  0.00    +0.000 OA
ATOM     11  C1* UNL     1      44.615   0.918  -9.836  0.00  0.00    +0.000 A 
ATOM     12  C3* UNL     1      42.585   0.837  -8.803  0.00  0.00    +0.000 A 
ATOM     13  C2* UNL     1      43.639   0.053  -9.303  0.00  0.00    +0.000 A 
ATOM     14  C4* UNL     1      42.958   2.210  -9.034  0.00  0.00    +0.000 A 
BRANCH  12  15
ATOM     15  O3* UNL     1      41.810   0.489  -7.733  0.00  0.00    +0.000 OA
ATOM     16  H3* UNL     1      40.873   0.422  -7.987  0.00  0.00    +0.000 HD
ENDBRANCH  12  15
BRANCH  14  17
ATOM     17  C5* UNL     1      42.335   3.366  -8.525  0.00  0.00    +0.000 C 
BRANCH  17  18
ATOM     18  O5* UNL     1      41.750   4.460  -8.045  0.00  0.00    +0.000 OA
ATOM     19  H5* UNL     1      41.051   4.217  -7.413  0.00  0.00    +0.000 HD
ENDBRANCH  17  18
ENDBRANCH  14  17
ENDBRANCH   3  11
BRANCH   7  23
ATOM     20  F   UNL     1      50.179   0.916  -8.962  0.00  0.00    +0.000 F 
ATOM     21  F   UNL     1      48.775   0.025  -7.565  0.00  0.00    +0.000 F 
ATOM     22  F   UNL     1      49.842  -1.245  -8.966  0.00  0.00    +0.000 F 
ATOM     23  C   UNL     1      49.226  -0.043  -8.849  0.00  0.00    +0.000 C 
ENDBRANCH   7  23
TORSDOF 5
ENDMDL
MODEL 5
REMARK VINA RESULT:      -4.7     18.667     21.511
REMARK  Name = 6256_Trifluridine.pdbqt.pdb
REMARK  5 active torsions:
REMARK  status: ('A' for Active; 'I' for Inactive)
REMARK    1  A    between atoms: N_3  and  C1*_11
REMARK    2  A    between atoms: C_7  and  C_23
REMARK    3  A    between atoms: C3*_12  and  O3*_15
REMARK    4  A    between atoms: C4*_14  and  C5*_17
REMARK    5  A    between atoms: C5*_17  and  O5*_18
REMARK                            x       y       z     vdW  Elec       q    Type
REMARK                         _______ _______ _______ _____ _____    ______ ____
ROOT
ATOM      1  O   UNL     1      34.679  21.084  18.568  0.00  0.00    +0.000 OA
ATOM      2  O   UNL     1      33.889  16.629  19.336  0.00  0.00    +0.000 OA
ATOM      3  N   UNL     1      36.192  19.908  19.960  0.00  0.00    +0.000 N 
ATOM      4  N   UNL     1      34.341  18.851  18.984  0.00  0.00    +0.000 N 
ATOM      5  C   UNL     1      36.409  18.681  20.472  0.00  0.00    +0.000 A 
ATOM      6  C   UNL     1      35.060  20.063  19.129  0.00  0.00    +0.000 A 
ATOM      7  C   UNL     1      35.818  17.533  20.402  0.00  0.00    +0.000 A 
ATOM      8  C   UNL     1      34.608  17.596  19.543  0.00  0.00    +0.000 A 
ATOM      9  H   UNL     1      33.520  18.909  18.399  0.00  0.00    +0.000 HD
ENDROOT
BRANCH   3  11
ATOM     10  O4* UNL     1      36.656  22.039  21.007  0.00  0.00    +0.000 OA
ATOM     11  C1* UNL     1      37.056  20.920  20.270  0.00  0.00    +0.000 A 
ATOM     12  C3* UNL     1      38.889  22.263  20.440  0.00  0.00    +0.000 A 
ATOM     13  C2* UNL     1      38.412  21.051  19.911  0.00  0.00    +0.000 A 
ATOM     14  C4* UNL     1      37.775  22.874  21.118  0.00  0.00    +0.000 A 
BRANCH  12  15
ATOM     15  O3* UNL     1      39.861  23.025  19.856  0.00  0.00    +0.000 OA
ATOM     16  H3* UNL     1      39.491  23.854  19.505  0.00  0.00    +0.000 HD
ENDBRANCH  12  15
BRANCH  14  17
ATOM     17  C5* UNL     1      37.692  24.187  21.623  0.00  0.00    +0.000 C 
BRANCH  17  18
ATOM     18  O5* UNL     1      37.616  25.425  22.102  0.00  0.00    +0.000 OA
ATOM     19  H5* UNL     1      38.472  25.692  22.478  0.00  0.00    +0.000 HD
ENDBRANCH  17  18
ENDBRANCH  14  17
ENDBRANCH   3  11
BRANCH   7  23
ATOM     20  F   UNL     1      36.203  15.226  20.159  0.00  0.00    +0.000 F 
ATOM     21  F   UNL     1      37.380  16.298  21.636  0.00  0.00    +0.000 F 
ATOM     22  F   UNL     1      35.277  15.915  22.018  0.00  0.00    +0.000 F 
ATOM     23  C   UNL     1      36.155  16.255  21.042  0.00  0.00    +0.000 C 
ENDBRANCH   7  23
TORSDOF 5
ENDMDL
MODEL 6
REMARK VINA RESULT:      -4.7     18.479     20.547
REMARK  Name = 6256_Trifluridine.pdbqt.pdb
REMARK  5 active torsions:
REMARK  status: ('A' for Active; 'I' for Inactive)
REMARK    1  A    between atoms: N_3  and  C1*_11
REMARK    2  A    between atoms: C_7  and  C_23
REMARK    3  A    between atoms: C3*_12  and  O3*_15
REMARK    4  A    between atoms: C4*_14  and  C5*_17
REMARK    5  A    between atoms: C5*_17  and  O5*_18
REMARK                            x       y       z     vdW  Elec       q    Type
REMARK                         _______ _______ _______ _____ _____    ______ ____
ROOT
ATOM      1  O   UNL     1      34.545  20.894  19.348  0.00  0.00    +0.000 OA
ATOM      2  O   UNL     1      30.532  20.035  17.293  0.00  0.00    +0.000 OA
ATOM      3  N   UNL     1      34.008  18.642  18.851  0.00  0.00    +0.000 N 
ATOM      4  N   UNL     1      32.554  20.401  18.314  0.00  0.00    +0.000 N 
ATOM      5  C   UNL     1      33.034  17.893  18.296  0.00  0.00    +0.000 A 
ATOM      6  C   UNL     1      33.796  20.038  18.890  0.00  0.00    +0.000 A 
ATOM      7  C   UNL     1      31.883  18.128  17.757  0.00  0.00    +0.000 A 
ATOM      8  C   UNL     1      31.571  19.580  17.751  0.00  0.00    +0.000 A 
ATOM      9  H   UNL     1      32.354  21.392  18.318  0.00  0.00    +0.000 HD
ENDROOT
BRANCH   3  11
ATOM     10  O4* UNL     1      36.412  18.478  19.052  0.00  0.00    +0.000 OA
ATOM     11  C1* UNL     1      35.122  18.024  19.343  0.00  0.00    +0.000 A 
ATOM     12  C3* UNL     1      36.554  16.597  20.396  0.00  0.00    +0.000 A 
ATOM     13  C2* UNL     1      35.197  16.873  20.153  0.00  0.00    +0.000 A 
ATOM     14  C4* UNL     1      37.304  17.607  19.693  0.00  0.00    +0.000 A 
BRANCH  12  15
ATOM     15  O3* UNL     1      37.061  15.341  20.575  0.00  0.00    +0.000 OA
ATOM     16  H3* UNL     1      37.780  15.163  19.944  0.00  0.00    +0.000 HD
ENDBRANCH  12  15
BRANCH  14  17
ATOM     17  C5* UNL     1      38.692  17.637  19.456  0.00  0.00    +0.000 C 
BRANCH  17  18
ATOM     18  O5* UNL     1      40.003  17.662  19.234  0.00  0.00    +0.000 OA
ATOM     19  H5* UNL     1      40.446  18.217  19.899  0.00  0.00    +0.000 HD
ENDBRANCH  17  18
ENDBRANCH  14  17
ENDBRANCH   3  11
BRANCH   7  23
ATOM     20  F   UNL     1      30.702  17.371  15.869  0.00  0.00    +0.000 F 
ATOM     21  F   UNL     1      31.274  15.900  17.361  0.00  0.00    +0.000 F 
ATOM     22  F   UNL     1      29.681  17.308  17.803  0.00  0.00    +0.000 F 
ATOM     23  C   UNL     1      30.891  17.198  17.202  0.00  0.00    +0.000 C 
ENDBRANCH   7  23
TORSDOF 5
ENDMDL
MODEL 7
REMARK VINA RESULT:      -4.6     10.612     12.984
REMARK  Name = 6256_Trifluridine.pdbqt.pdb
REMARK  5 active torsions:
REMARK  status: ('A' for Active; 'I' for Inactive)
REMARK    1  A    between atoms: N_3  and  C1*_11
REMARK    2  A    between atoms: C_7  and  C_23
REMARK    3  A    between atoms: C3*_12  and  O3*_15
REMARK    4  A    between atoms: C4*_14  and  C5*_17
REMARK    5  A    between atoms: C5*_17  and  O5*_18
REMARK                            x       y       z     vdW  Elec       q    Type
REMARK                         _______ _______ _______ _____ _____    ______ ____
ROOT
ATOM      1  O   UNL     1      40.394   4.688  26.284  0.00  0.00    +0.000 OA
ATOM      2  O   UNL     1      41.390   8.747  28.181  0.00  0.00    +0.000 OA
ATOM      3  N   UNL     1      41.405   6.338  24.918  0.00  0.00    +0.000 N 
ATOM      4  N   UNL     1      40.923   6.736  27.178  0.00  0.00    +0.000 N 
ATOM      5  C   UNL     1      41.868   7.603  24.970  0.00  0.00    +0.000 A 
ATOM      6  C   UNL     1      40.868   5.805  26.112  0.00  0.00    +0.000 A 
ATOM      7  C   UNL     1      41.956   8.518  25.879  0.00  0.00    +0.000 A 
ATOM      8  C   UNL     1      41.414   8.047  27.178  0.00  0.00    +0.000 A 
ATOM      9  H   UNL     1      40.549   6.404  28.055  0.00  0.00    +0.000 HD
ENDROOT
BRANCH   3  11
ATOM     10  O4* UNL     1      40.429   5.680  22.805  0.00  0.00    +0.000 OA
ATOM     11  C1* UNL     1      41.471   5.654  23.738  0.00  0.00    +0.000 A 
ATOM     12  C3* UNL     1      42.125   4.319  22.011  0.00  0.00    +0.000 A 
ATOM     13  C2* UNL     1      42.504   4.820  23.269  0.00  0.00    +0.000 A 
ATOM     14  C4* UNL     1      40.818   4.861  21.737  0.00  0.00    +0.000 A 
BRANCH  12  15
ATOM     15  O3* UNL     1      42.493   3.094  21.530  0.00  0.00    +0.000 OA
ATOM     16  H3* UNL     1      41.716   2.588  21.235  0.00  0.00    +0.000 HD
ENDBRANCH  12  15
BRANCH  14  17
ATOM     17  C5* UNL     1      39.933   4.490  20.707  0.00  0.00    +0.000 C 
BRANCH  17  18
ATOM     18  O5* UNL     1      39.096   4.135  19.736  0.00  0.00    +0.000 OA
ATOM     19  H5* UNL     1      38.317   3.689  20.110  0.00  0.00    +0.000 HD
ENDBRANCH  17  18
ENDBRANCH  14  17
ENDBRANCH   3  11
BRANCH   7  23
ATOM     20  F   UNL     1      42.912  10.203  24.547  0.00  0.00    +0.000 F 
ATOM     21  F   UNL     1      41.512  10.808  26.094  0.00  0.00    +0.000 F 
ATOM     22  F   UNL     1      43.492  10.118  26.655  0.00  0.00    +0.000 F 
ATOM     23  C   UNL     1      42.472   9.890  25.792  0.00  0.00    +0.000 C 
ENDBRANCH   7  23
TORSDOF 5
ENDMDL
MODEL 8
REMARK VINA RESULT:      -4.3     18.978     20.582
REMARK  Name = 6256_Trifluridine.pdbqt.pdb
REMARK  5 active torsions:
REMARK  status: ('A' for Active; 'I' for Inactive)
REMARK    1  A    between atoms: N_3  and  C1*_11
REMARK    2  A    between atoms: C_7  and  C_23
REMARK    3  A    between atoms: C3*_12  and  O3*_15
REMARK    4  A    between atoms: C4*_14  and  C5*_17
REMARK    5  A    between atoms: C5*_17  and  O5*_18
REMARK                            x       y       z     vdW  Elec       q    Type
REMARK                         _______ _______ _______ _____ _____    ______ ____
ROOT
ATOM      1  O   UNL     1      29.325  -4.251  -2.810  0.00  0.00    +0.000 OA
ATOM      2  O   UNL     1      29.974  -0.134  -4.732  0.00  0.00    +0.000 OA
ATOM      3  N   UNL     1      29.795  -2.419  -1.385  0.00  0.00    +0.000 N 
ATOM      4  N   UNL     1      29.652  -2.165  -3.712  0.00  0.00    +0.000 N 
ATOM      5  C   UNL     1      30.050  -1.096  -1.427  0.00  0.00    +0.000 A 
ATOM      6  C   UNL     1      29.568  -3.065  -2.621  0.00  0.00    +0.000 A 
ATOM      7  C   UNL     1      30.149  -0.203  -2.357  0.00  0.00    +0.000 A 
ATOM      8  C   UNL     1      29.924  -0.792  -3.702  0.00  0.00    +0.000 A 
ATOM      9  H   UNL     1      29.499  -2.579  -4.621  0.00  0.00    +0.000 HD
ENDROOT
BRANCH   3  11
ATOM     10  O4* UNL     1      28.674  -3.799   0.254  0.00  0.00    +0.000 OA
ATOM     11  C1* UNL     1      29.777  -3.054  -0.177  0.00  0.00    +0.000 A 
ATOM     12  C3* UNL     1      30.304  -3.835   1.898  0.00  0.00    +0.000 A 
ATOM     13  C2* UNL     1      30.771  -3.061   0.822  0.00  0.00    +0.000 A 
ATOM     14  C4* UNL     1      28.985  -4.285   1.531  0.00  0.00    +0.000 A 
BRANCH  12  15
ATOM     15  O3* UNL     1      30.631  -3.607   3.205  0.00  0.00    +0.000 OA
ATOM     16  H3* UNL     1      31.594  -3.520   3.314  0.00  0.00    +0.000 HD
ENDBRANCH  12  15
BRANCH  14  17
ATOM     17  C5* UNL     1      28.030  -4.909   2.356  0.00  0.00    +0.000 C 
BRANCH  17  18
ATOM     18  O5* UNL     1      27.130  -5.498   3.138  0.00  0.00    +0.000 OA
ATOM     19  H5* UNL     1      27.401  -6.413   3.332  0.00  0.00    +0.000 HD
ENDBRANCH  17  18
ENDBRANCH  14  17
ENDBRANCH   3  11
BRANCH   7  23
ATOM     20  F   UNL     1      30.540   1.662  -0.981  0.00  0.00    +0.000 F 
ATOM     21  F   UNL     1      31.663   1.520  -2.834  0.00  0.00    +0.000 F 
ATOM     22  F   UNL     1      29.547   2.002  -2.900  0.00  0.00    +0.000 F 
ATOM     23  C   UNL     1      30.461   1.229  -2.264  0.00  0.00    +0.000 C 
ENDBRANCH   7  23
TORSDOF 5
ENDMDL
MODEL 9
REMARK VINA RESULT:      -4.1     18.804     22.135
REMARK  Name = 6256_Trifluridine.pdbqt.pdb
REMARK  5 active torsions:
REMARK  status: ('A' for Active; 'I' for Inactive)
REMARK    1  A    between atoms: N_3  and  C1*_11
REMARK    2  A    between atoms: C_7  and  C_23
REMARK    3  A    between atoms: C3*_12  and  O3*_15
REMARK    4  A    between atoms: C4*_14  and  C5*_17
REMARK    5  A    between atoms: C5*_17  and  O5*_18
REMARK                            x       y       z     vdW  Elec       q    Type
REMARK                         _______ _______ _______ _____ _____    ______ ____
ROOT
ATOM      1  O   UNL     1      37.405  21.942  20.006  0.00  0.00    +0.000 OA
ATOM      2  O   UNL     1      33.855  23.855  17.815  0.00  0.00    +0.000 OA
ATOM      3  N   UNL     1      35.580  20.552  19.416  0.00  0.00    +0.000 N 
ATOM      4  N   UNL     1      35.602  22.840  18.902  0.00  0.00    +0.000 N 
ATOM      5  C   UNL     1      34.378  20.601  18.809  0.00  0.00    +0.000 A 
ATOM      6  C   UNL     1      36.304  21.763  19.498  0.00  0.00    +0.000 A 
ATOM      7  C   UNL     1      33.663  21.520  18.247  0.00  0.00    +0.000 A 
ATOM      8  C   UNL     1      34.346  22.839  18.284  0.00  0.00    +0.000 A 
ATOM      9  H   UNL     1      36.078  23.731  18.936  0.00  0.00    +0.000 HD
ENDROOT
BRANCH   3  11
ATOM     10  O4* UNL     1      36.979  18.586  19.248  0.00  0.00    +0.000 OA
ATOM     11  C1* UNL     1      36.025  19.361  19.915  0.00  0.00    +0.000 A 
ATOM     12  C3* UNL     1      36.340  17.499  21.190  0.00  0.00    +0.000 A 
ATOM     13  C2* UNL     1      35.621  18.703  21.094  0.00  0.00    +0.000 A 
ATOM     14  C4* UNL     1      37.181  17.436  20.022  0.00  0.00    +0.000 A 
BRANCH  12  15
ATOM     15  O3* UNL     1      35.855  16.360  21.770  0.00  0.00    +0.000 OA
ATOM     16  H3* UNL     1      35.812  15.632  21.126  0.00  0.00    +0.000 HD
ENDBRANCH  12  15
BRANCH  14  17
ATOM     17  C5* UNL     1      37.926  16.334  19.558  0.00  0.00    +0.000 C 
BRANCH  17  18
ATOM     18  O5* UNL     1      38.626  15.291  19.122  0.00  0.00    +0.000 OA
ATOM     19  H5* UNL     1      38.380  14.490  19.616  0.00  0.00    +0.000 HD
ENDBRANCH  17  18
ENDBRANCH  14  17
ENDBRANCH   3  11
BRANCH   7  23
ATOM     20  F   UNL     1      32.342  21.783  16.321  0.00  0.00    +0.000 F 
ATOM     21  F   UNL     1      31.828  20.176  17.689  0.00  0.00    +0.000 F 
ATOM     22  F   UNL     1      31.424  22.232  18.255  0.00  0.00    +0.000 F 
ATOM     23  C   UNL     1      32.332  21.440  17.634  0.00  0.00    +0.000 C 
ENDBRANCH   7  23
TORSDOF 5
ENDMDL
