MODEL 1
REMARK VINA RESULT:      -6.3      0.000      0.000
REMARK  Name = 6323266_Tipiracil.pdbqt.pdb
REMARK  2 active torsions:
REMARK  status: ('A' for Active; 'I' for Inactive)
REMARK    1  A    between atoms: C_6  and  C_12
REMARK    2  A    between atoms: C_12  and  N_13
REMARK                            x       y       z     vdW  Elec       q    Type
REMARK                         _______ _______ _______ _____ _____    ______ ____
ROOT
ATOM      1 CL   UNL     1      41.252  -2.785  15.786  0.00  0.00    +0.000 Cl
ATOM      2  O   UNL     1      41.734  -4.255  13.210  0.00  0.00    +0.000 OA
ATOM      3  O   UNL     1      41.686  -0.680  10.428  0.00  0.00    +0.000 OA
ATOM      4  N   UNL     1      41.372  -0.334  12.649  0.00  0.00    +0.000 N 
ATOM      5  N   UNL     1      41.719  -2.463  11.830  0.00  0.00    +0.000 N 
ATOM      6  C   UNL     1      41.267  -0.804  13.933  0.00  0.00    +0.000 A 
ATOM      7  C   UNL     1      41.378  -2.110  14.207  0.00  0.00    +0.000 A 
ATOM      8  C   UNL     1      41.624  -3.041  13.069  0.00  0.00    +0.000 A 
ATOM      9  C   UNL     1      41.599  -1.131  11.565  0.00  0.00    +0.000 A 
ATOM     10  H   UNL     1      41.280   0.663  12.466  0.00  0.00    +0.000 HD
ATOM     11  H   UNL     1      41.885  -3.075  11.044  0.00  0.00    +0.000 HD
ENDROOT
BRANCH   6  12
ATOM     12  C   UNL     1      41.032   0.183  14.928  0.00  0.00    +0.000 C 
BRANCH  12  13
ATOM     13  N   UNL     1      40.778   1.094  16.027  0.00  0.00    +0.000 N 
ATOM     14  N   UNL     1      39.434   2.751  14.785  0.00  0.00    +0.000 NA
ATOM     15  C   UNL     1      40.322   0.521  17.294  0.00  0.00    +0.000 C 
ATOM     16  C   UNL     1      39.139   1.064  18.088  0.00  0.00    +0.000 C 
ATOM     17  C   UNL     1      38.939   2.075  16.958  0.00  0.00    +0.000 C 
ATOM     18  C   UNL     1      39.786   2.035  15.786  0.00  0.00    +0.000 C 
ATOM     19  H   UNL     1      38.601   3.306  15.009  0.00  0.00    +0.000 HD
ENDBRANCH  12  13
ENDBRANCH   6  12
TORSDOF 2
ENDMDL
MODEL 2
REMARK VINA RESULT:      -5.7     16.292     18.373
REMARK  Name = 6323266_Tipiracil.pdbqt.pdb
REMARK  2 active torsions:
REMARK  status: ('A' for Active; 'I' for Inactive)
REMARK    1  A    between atoms: C_6  and  C_12
REMARK    2  A    between atoms: C_12  and  N_13
REMARK                            x       y       z     vdW  Elec       q    Type
REMARK                         _______ _______ _______ _____ _____    ______ ____
ROOT
ATOM      1 CL   UNL     1      33.513  17.157  20.070  0.00  0.00    +0.000 Cl
ATOM      2  O   UNL     1      35.250  19.150  18.644  0.00  0.00    +0.000 OA
ATOM      3  O   UNL     1      39.240  17.124  19.345  0.00  0.00    +0.000 OA
ATOM      4  N   UNL     1      37.365  16.150  20.175  0.00  0.00    +0.000 N 
ATOM      5  N   UNL     1      37.237  18.126  18.990  0.00  0.00    +0.000 N 
ATOM      6  C   UNL     1      36.007  16.129  20.361  0.00  0.00    +0.000 A 
ATOM      7  C   UNL     1      35.223  17.101  19.876  0.00  0.00    +0.000 A 
ATOM      8  C   UNL     1      35.875  18.209  19.123  0.00  0.00    +0.000 A 
ATOM      9  C   UNL     1      38.023  17.132  19.493  0.00  0.00    +0.000 A 
ATOM     10  H   UNL     1      37.939  15.401  20.556  0.00  0.00    +0.000 HD
ATOM     11  H   UNL     1      37.699  18.866  18.483  0.00  0.00    +0.000 HD
ENDROOT
BRANCH   6  12
ATOM     12  C   UNL     1      35.507  15.020  21.096  0.00  0.00    +0.000 C 
BRANCH  12  13
ATOM     13  N   UNL     1      35.014  13.818  21.739  0.00  0.00    +0.000 N 
ATOM     14  N   UNL     1      35.703  12.204  20.002  0.00  0.00    +0.000 NA
ATOM     15  C   UNL     1      35.339  13.619  23.152  0.00  0.00    +0.000 C 
ATOM     16  C   UNL     1      35.883  12.311  23.717  0.00  0.00    +0.000 C 
ATOM     17  C   UNL     1      35.874  11.774  22.285  0.00  0.00    +0.000 C 
ATOM     18  C   UNL     1      35.479  12.631  21.188  0.00  0.00    +0.000 C 
ATOM     19  H   UNL     1      36.092  11.254  20.024  0.00  0.00    +0.000 HD
ENDBRANCH  12  13
ENDBRANCH   6  12
TORSDOF 2
ENDMDL
MODEL 3
REMARK VINA RESULT:      -5.5      2.325      3.344
REMARK  Name = 6323266_Tipiracil.pdbqt.pdb
REMARK  2 active torsions:
REMARK  status: ('A' for Active; 'I' for Inactive)
REMARK    1  A    between atoms: C_6  and  C_12
REMARK    2  A    between atoms: C_12  and  N_13
REMARK                            x       y       z     vdW  Elec       q    Type
REMARK                         _______ _______ _______ _____ _____    ______ ____
ROOT
ATOM      1 CL   UNL     1      43.824  -2.628  16.656  0.00  0.00    +0.000 Cl
ATOM      2  O   UNL     1      44.398  -5.466  15.856  0.00  0.00    +0.000 OA
ATOM      3  O   UNL     1      42.266  -5.438  11.860  0.00  0.00    +0.000 OA
ATOM      4  N   UNL     1      42.262  -3.543  13.108  0.00  0.00    +0.000 N 
ATOM      5  N   UNL     1      43.339  -5.440  13.857  0.00  0.00    +0.000 N 
ATOM      6  C   UNL     1      42.619  -2.848  14.235  0.00  0.00    +0.000 A 
ATOM      7  C   UNL     1      43.339  -3.423  15.207  0.00  0.00    +0.000 A 
ATOM      8  C   UNL     1      43.744  -4.845  15.024  0.00  0.00    +0.000 A 
ATOM      9  C   UNL     1      42.602  -4.843  12.877  0.00  0.00    +0.000 A 
ATOM     10  H   UNL     1      41.711  -3.084  12.385  0.00  0.00    +0.000 HD
ATOM     11  H   UNL     1      43.603  -6.404  13.713  0.00  0.00    +0.000 HD
ENDROOT
BRANCH   6  12
ATOM     12  C   UNL     1      42.172  -1.500  14.291  0.00  0.00    +0.000 C 
BRANCH  12  13
ATOM     13  N   UNL     1      41.681  -0.137  14.224  0.00  0.00    +0.000 N 
ATOM     14  N   UNL     1      40.581  -0.287  12.018  0.00  0.00    +0.000 NA
ATOM     15  C   UNL     1      40.991   0.397  15.397  0.00  0.00    +0.000 C 
ATOM     16  C   UNL     1      39.660   1.137  15.330  0.00  0.00    +0.000 C 
ATOM     17  C   UNL     1      39.671   0.869  13.824  0.00  0.00    +0.000 C 
ATOM     18  C   UNL     1      40.738   0.093  13.230  0.00  0.00    +0.000 C 
ATOM     19  H   UNL     1      39.707   0.087  11.630  0.00  0.00    +0.000 HD
ENDBRANCH  12  13
ENDBRANCH   6  12
TORSDOF 2
ENDMDL
MODEL 4
REMARK VINA RESULT:      -5.5     16.342     18.607
REMARK  Name = 6323266_Tipiracil.pdbqt.pdb
REMARK  2 active torsions:
REMARK  status: ('A' for Active; 'I' for Inactive)
REMARK    1  A    between atoms: C_6  and  C_12
REMARK    2  A    between atoms: C_12  and  N_13
REMARK                            x       y       z     vdW  Elec       q    Type
REMARK                         _______ _______ _______ _____ _____    ______ ____
ROOT
ATOM      1 CL   UNL     1      35.244  17.087  22.589  0.00  0.00    +0.000 Cl
ATOM      2  O   UNL     1      34.273  14.625  24.011  0.00  0.00    +0.000 OA
ATOM      3  O   UNL     1      35.990  11.541  21.173  0.00  0.00    +0.000 OA
ATOM      4  N   UNL     1      36.334  13.739  20.727  0.00  0.00    +0.000 N 
ATOM      5  N   UNL     1      35.143  13.092  22.594  0.00  0.00    +0.000 N 
ATOM      6  C   UNL     1      36.176  15.066  21.039  0.00  0.00    +0.000 A 
ATOM      7  C   UNL     1      35.496  15.448  22.128  0.00  0.00    +0.000 A 
ATOM      8  C   UNL     1      34.918  14.383  22.996  0.00  0.00    +0.000 A 
ATOM      9  C   UNL     1      35.833  12.717  21.479  0.00  0.00    +0.000 A 
ATOM     10  H   UNL     1      36.851  13.475  19.892  0.00  0.00    +0.000 HD
ATOM     11  H   UNL     1      34.759  12.355  23.168  0.00  0.00    +0.000 HD
ENDROOT
BRANCH   6  12
ATOM     12  C   UNL     1      36.774  15.983  20.133  0.00  0.00    +0.000 C 
BRANCH  12  13
ATOM     13  N   UNL     1      37.268  16.929  19.153  0.00  0.00    +0.000 N 
ATOM     14  N   UNL     1      35.305  18.427  19.115  0.00  0.00    +0.000 NA
ATOM     15  C   UNL     1      38.628  17.442  19.326  0.00  0.00    +0.000 C 
ATOM     16  C   UNL     1      38.991  18.920  19.236  0.00  0.00    +0.000 C 
ATOM     17  C   UNL     1      37.502  19.198  19.029  0.00  0.00    +0.000 C 
ATOM     18  C   UNL     1      36.545  18.113  19.071  0.00  0.00    +0.000 C 
ATOM     19  H   UNL     1      35.185  19.444  19.054  0.00  0.00    +0.000 HD
ENDBRANCH  12  13
ENDBRANCH   6  12
TORSDOF 2
ENDMDL
MODEL 5
REMARK VINA RESULT:      -5.4      3.043      4.404
REMARK  Name = 6323266_Tipiracil.pdbqt.pdb
REMARK  2 active torsions:
REMARK  status: ('A' for Active; 'I' for Inactive)
REMARK    1  A    between atoms: C_6  and  C_12
REMARK    2  A    between atoms: C_12  and  N_13
REMARK                            x       y       z     vdW  Elec       q    Type
REMARK                         _______ _______ _______ _____ _____    ______ ____
ROOT
ATOM      1 CL   UNL     1      42.469  -2.973  12.809  0.00  0.00    +0.000 Cl
ATOM      2  O   UNL     1      41.217  -1.057  10.863  0.00  0.00    +0.000 OA
ATOM      3  O   UNL     1      39.438   1.823  13.873  0.00  0.00    +0.000 OA
ATOM      4  N   UNL     1      40.594   0.026  14.639  0.00  0.00    +0.000 N 
ATOM      5  N   UNL     1      40.341   0.381  12.373  0.00  0.00    +0.000 N 
ATOM      6  C   UNL     1      41.320  -1.116  14.418  0.00  0.00    +0.000 A 
ATOM      7  C   UNL     1      41.575  -1.549  13.176  0.00  0.00    +0.000 A 
ATOM      8  C   UNL     1      41.045  -0.746  12.038  0.00  0.00    +0.000 A 
ATOM      9  C   UNL     1      40.085   0.807  13.643  0.00  0.00    +0.000 A 
ATOM     10  H   UNL     1      40.411   0.332  15.592  0.00  0.00    +0.000 HD
ATOM     11  H   UNL     1      39.973   0.940  11.617  0.00  0.00    +0.000 HD
ENDROOT
BRANCH   6  12
ATOM     12  C   UNL     1      41.767  -1.792  15.585  0.00  0.00    +0.000 C 
BRANCH  12  13
ATOM     13  N   UNL     1      42.143  -2.407  16.843  0.00  0.00    +0.000 N 
ATOM     14  N   UNL     1      43.297  -4.384  15.916  0.00  0.00    +0.000 NA
ATOM     15  C   UNL     1      42.763  -1.556  17.859  0.00  0.00    +0.000 C 
ATOM     16  C   UNL     1      44.028  -1.936  18.621  0.00  0.00    +0.000 C 
ATOM     17  C   UNL     1      44.070  -3.207  17.772  0.00  0.00    +0.000 C 
ATOM     18  C   UNL     1      43.084  -3.423  16.735  0.00  0.00    +0.000 C 
ATOM     19  H   UNL     1      44.143  -4.903  16.176  0.00  0.00    +0.000 HD
ENDBRANCH  12  13
ENDBRANCH   6  12
TORSDOF 2
ENDMDL
MODEL 6
REMARK VINA RESULT:      -5.0     11.601     12.008
REMARK  Name = 6323266_Tipiracil.pdbqt.pdb
REMARK  2 active torsions:
REMARK  status: ('A' for Active; 'I' for Inactive)
REMARK    1  A    between atoms: C_6  and  C_12
REMARK    2  A    between atoms: C_12  and  N_13
REMARK                            x       y       z     vdW  Elec       q    Type
REMARK                         _______ _______ _______ _____ _____    ______ ____
ROOT
ATOM      1 CL   UNL     1      29.831  -4.190  11.768  0.00  0.00    +0.000 Cl
ATOM      2  O   UNL     1      30.399  -3.791   8.845  0.00  0.00    +0.000 OA
ATOM      3  O   UNL     1      29.102   0.537   8.536  0.00  0.00    +0.000 OA
ATOM      4  N   UNL     1      28.953  -0.501  10.548  0.00  0.00    +0.000 N 
ATOM      5  N   UNL     1      29.759  -1.627   8.703  0.00  0.00    +0.000 N 
ATOM      6  C   UNL     1      29.117  -1.607  11.342  0.00  0.00    +0.000 A 
ATOM      7  C   UNL     1      29.600  -2.754  10.846  0.00  0.00    +0.000 A 
ATOM      8  C   UNL     1      29.956  -2.790   9.400  0.00  0.00    +0.000 A 
ATOM      9  C   UNL     1      29.262  -0.467   9.220  0.00  0.00    +0.000 A 
ATOM     10  H   UNL     1      28.581   0.357  10.949  0.00  0.00    +0.000 HD
ATOM     11  H   UNL     1      29.994  -1.629   7.721  0.00  0.00    +0.000 HD
ENDROOT
BRANCH   6  12
ATOM     12  C   UNL     1      28.740  -1.445  12.703  0.00  0.00    +0.000 C 
BRANCH  12  13
ATOM     13  N   UNL     1      28.480  -1.294  14.121  0.00  0.00    +0.000 N 
ATOM     14  N   UNL     1      30.794  -1.618  14.920  0.00  0.00    +0.000 NA
ATOM     15  C   UNL     1      27.668  -0.155  14.548  0.00  0.00    +0.000 C 
ATOM     16  C   UNL     1      28.051   0.774  15.694  0.00  0.00    +0.000 C 
ATOM     17  C   UNL     1      29.339  -0.041  15.826  0.00  0.00    +0.000 C 
ATOM     18  C   UNL     1      29.614  -1.122  14.905  0.00  0.00    +0.000 C 
ATOM     19  H   UNL     1      31.362  -1.185  15.658  0.00  0.00    +0.000 HD
ENDBRANCH  12  13
ENDBRANCH   6  12
TORSDOF 2
ENDMDL
MODEL 7
REMARK VINA RESULT:      -4.8     19.869     21.141
REMARK  Name = 6323266_Tipiracil.pdbqt.pdb
REMARK  2 active torsions:
REMARK  status: ('A' for Active; 'I' for Inactive)
REMARK    1  A    between atoms: C_6  and  C_12
REMARK    2  A    between atoms: C_12  and  N_13
REMARK                            x       y       z     vdW  Elec       q    Type
REMARK                         _______ _______ _______ _____ _____    ______ ____
ROOT
ATOM      1 CL   UNL     1      53.029  18.761   9.440  0.00  0.00    +0.000 Cl
ATOM      2  O   UNL     1      50.960  18.944   7.269  0.00  0.00    +0.000 OA
ATOM      3  O   UNL     1      47.608  16.777   9.410  0.00  0.00    +0.000 OA
ATOM      4  N   UNL     1      49.591  17.040  10.482  0.00  0.00    +0.000 N 
ATOM      5  N   UNL     1      49.288  17.870   8.350  0.00  0.00    +0.000 N 
ATOM      6  C   UNL     1      50.881  17.502  10.520  0.00  0.00    +0.000 A 
ATOM      7  C   UNL     1      51.418  18.155   9.480  0.00  0.00    +0.000 A 
ATOM      8  C   UNL     1      50.564  18.366   8.277  0.00  0.00    +0.000 A 
ATOM      9  C   UNL     1      48.757  17.203   9.414  0.00  0.00    +0.000 A 
ATOM     10  H   UNL     1      49.208  16.544  11.283  0.00  0.00    +0.000 HD
ATOM     11  H   UNL     1      48.693  18.002   7.545  0.00  0.00    +0.000 HD
ENDROOT
BRANCH   6  12
ATOM     12  C   UNL     1      51.591  17.237  11.722  0.00  0.00    +0.000 C 
BRANCH  12  13
ATOM     13  N   UNL     1      52.263  16.849  12.947  0.00  0.00    +0.000 N 
ATOM     14  N   UNL     1      50.840  14.911  13.507  0.00  0.00    +0.000 NA
ATOM     15  C   UNL     1      53.723  16.755  12.923  0.00  0.00    +0.000 C 
ATOM     16  C   UNL     1      54.501  15.569  13.480  0.00  0.00    +0.000 C 
ATOM     17  C   UNL     1      53.151  14.924  13.796  0.00  0.00    +0.000 C 
ATOM     18  C   UNL     1      51.922  15.590  13.423  0.00  0.00    +0.000 C 
ATOM     19  H   UNL     1      51.023  13.980  13.899  0.00  0.00    +0.000 HD
ENDBRANCH  12  13
ENDBRANCH   6  12
TORSDOF 2
ENDMDL
MODEL 8
REMARK VINA RESULT:      -4.5     22.804     24.455
REMARK  Name = 6323266_Tipiracil.pdbqt.pdb
REMARK  2 active torsions:
REMARK  status: ('A' for Active; 'I' for Inactive)
REMARK    1  A    between atoms: C_6  and  C_12
REMARK    2  A    between atoms: C_12  and  N_13
REMARK                            x       y       z     vdW  Elec       q    Type
REMARK                         _______ _______ _______ _____ _____    ______ ____
ROOT
ATOM      1 CL   UNL     1      43.374  -1.428 -10.200  0.00  0.00    +0.000 Cl
ATOM      2  O   UNL     1      44.123   1.195  -8.939  0.00  0.00    +0.000 OA
ATOM      3  O   UNL     1      40.036   2.315  -7.340  0.00  0.00    +0.000 OA
ATOM      4  N   UNL     1      40.263   0.359  -8.469  0.00  0.00    +0.000 N 
ATOM      5  N   UNL     1      42.081   1.741  -8.135  0.00  0.00    +0.000 N 
ATOM      6  C   UNL     1      41.031  -0.550  -9.150  0.00  0.00    +0.000 A 
ATOM      7  C   UNL     1      42.340  -0.344  -9.350  0.00  0.00    +0.000 A 
ATOM      8  C   UNL     1      42.938   0.907  -8.805  0.00  0.00    +0.000 A 
ATOM      9  C   UNL     1      40.749   1.521  -7.943  0.00  0.00    +0.000 A 
ATOM     10  H   UNL     1      39.271   0.181  -8.333  0.00  0.00    +0.000 HD
ATOM     11  H   UNL     1      42.465   2.595  -7.758  0.00  0.00    +0.000 HD
ENDROOT
BRANCH   6  12
ATOM     12  C   UNL     1      40.343  -1.702  -9.620  0.00  0.00    +0.000 C 
BRANCH  12  13
ATOM     13  N   UNL     1      39.587  -2.801 -10.188  0.00  0.00    +0.000 N 
ATOM     14  N   UNL     1      41.027  -3.216 -12.151  0.00  0.00    +0.000 NA
ATOM     15  C   UNL     1      39.175  -3.880  -9.290  0.00  0.00    +0.000 C 
ATOM     16  C   UNL     1      39.360  -5.359  -9.608  0.00  0.00    +0.000 C 
ATOM     17  C   UNL     1      40.051  -4.921 -10.899  0.00  0.00    +0.000 C 
ATOM     18  C   UNL     1      40.253  -3.515 -11.176  0.00  0.00    +0.000 C 
ATOM     19  H   UNL     1      41.347  -4.062 -12.635  0.00  0.00    +0.000 HD
ENDBRANCH  12  13
ENDBRANCH   6  12
TORSDOF 2
ENDMDL
MODEL 9
REMARK VINA RESULT:      -4.4     18.558     19.791
REMARK  Name = 6323266_Tipiracil.pdbqt.pdb
REMARK  2 active torsions:
REMARK  status: ('A' for Active; 'I' for Inactive)
REMARK    1  A    between atoms: C_6  and  C_12
REMARK    2  A    between atoms: C_12  and  N_13
REMARK                            x       y       z     vdW  Elec       q    Type
REMARK                         _______ _______ _______ _____ _____    ______ ____
ROOT
ATOM      1 CL   UNL     1      34.235  18.724  19.615  0.00  0.00    +0.000 Cl
ATOM      2  O   UNL     1      36.338  20.524  18.448  0.00  0.00    +0.000 OA
ATOM      3  O   UNL     1      39.953  17.960  19.386  0.00  0.00    +0.000 OA
ATOM      4  N   UNL     1      37.900  17.212  20.000  0.00  0.00    +0.000 N 
ATOM      5  N   UNL     1      38.136  19.232  18.912  0.00  0.00    +0.000 N 
ATOM      6  C   UNL     1      36.539  17.364  20.067  0.00  0.00    +0.000 A 
ATOM      7  C   UNL     1      35.934  18.449  19.567  0.00  0.00    +0.000 A 
ATOM      8  C   UNL     1      36.790  19.490  18.930  0.00  0.00    +0.000 A 
ATOM      9  C   UNL     1      38.739  18.124  19.429  0.00  0.00    +0.000 A 
ATOM     10  H   UNL     1      38.335  16.379  20.391  0.00  0.00    +0.000 HD
ATOM     11  H   UNL     1      38.735  19.924  18.485  0.00  0.00    +0.000 HD
ENDROOT
BRANCH   6  12
ATOM     12  C   UNL     1      35.835  16.303  20.699  0.00  0.00    +0.000 C 
BRANCH  12  13
ATOM     13  N   UNL     1      35.135  15.282  21.455  0.00  0.00    +0.000 N 
ATOM     14  N   UNL     1      34.958  16.511  23.589  0.00  0.00    +0.000 NA
ATOM     15  C   UNL     1      33.975  14.647  20.830  0.00  0.00    +0.000 C 
ATOM     16  C   UNL     1      32.637  14.454  21.535  0.00  0.00    +0.000 C 
ATOM     17  C   UNL     1      33.244  15.188  22.731  0.00  0.00    +0.000 C 
ATOM     18  C   UNL     1      34.587  15.720  22.654  0.00  0.00    +0.000 C 
ATOM     19  H   UNL     1      34.227  16.597  24.305  0.00  0.00    +0.000 HD
ENDBRANCH  12  13
ENDBRANCH   6  12
TORSDOF 2
ENDMDL
