MODEL 1
REMARK VINA RESULT:      -6.5      0.000      0.000
REMARK  Name = 6325056_Deoxyelephantopin.pdbqt.pdb
REMARK  3 active torsions:
REMARK  status: ('A' for Active; 'I' for Inactive)
REMARK    1  A    between atoms: C_6  and  O_20
REMARK    2  A    between atoms: O_20  and  C_22
REMARK    3  A    between atoms: C_22  and  C_23
REMARK                            x       y       z     vdW  Elec       q    Type
REMARK                         _______ _______ _______ _____ _____    ______ ____
ROOT
ATOM      1  O   UNL     1      36.710  15.343  20.445  0.00  0.00    +0.000 OA
ATOM      2  O   UNL     1      35.747  21.508  18.550  0.00  0.00    +0.000 OA
ATOM      3  O   UNL     1      35.883  13.371  21.282  0.00  0.00    +0.000 OA
ATOM      4  O   UNL     1      33.567  21.096  17.866  0.00  0.00    +0.000 OA
ATOM      5  C   UNL     1      34.697  16.558  20.234  0.00  0.00    +0.000 C 
ATOM      6  C   UNL     1      33.729  17.600  19.890  0.00  0.00    +0.000 C 
ATOM      7  C   UNL     1      36.138  16.563  20.061  0.00  0.00    +0.000 C 
ATOM      8  C   UNL     1      33.987  18.987  20.039  0.00  0.00    +0.000 C 
ATOM      9  C   UNL     1      34.413  15.242  20.767  0.00  0.00    +0.000 C 
ATOM     10  C   UNL     1      34.349  20.372  20.044  0.00  0.00    +0.000 C 
ATOM     11  C   UNL     1      36.993  17.614  19.656  0.00  0.00    +0.000 C 
ATOM     12  C   UNL     1      36.441  21.066  19.697  0.00  0.00    +0.000 C 
ATOM     13  C   UNL     1      37.387  20.027  19.449  0.00  0.00    +0.000 C 
ATOM     14  C   UNL     1      37.857  18.700  19.327  0.00  0.00    +0.000 C 
ATOM     15  C   UNL     1      35.508  20.788  20.717  0.00  0.00    +0.000 C 
ATOM     16  C   UNL     1      35.701  14.506  20.877  0.00  0.00    +0.000 C 
ATOM     17  C   UNL     1      34.447  21.049  18.707  0.00  0.00    +0.000 C 
ATOM     18  C   UNL     1      33.224  14.779  21.169  0.00  0.00    +0.000 C 
ATOM     19  C   UNL     1      39.315  18.445  19.117  0.00  0.00    +0.000 C 
ENDROOT
BRANCH   6  20
ATOM     20  O   UNL     1      32.391  17.254  19.634  0.00  0.00    +0.000 OA
BRANCH  20  22
ATOM     21  O   UNL     1      32.721  17.613  17.384  0.00  0.00    +0.000 OA
ATOM     22  C   UNL     1      32.058  17.137  18.302  0.00  0.00    +0.000 C 
BRANCH  22  23
ATOM     23  C   UNL     1      30.784  16.343  18.157  0.00  0.00    +0.000 C 
ATOM     24  C   UNL     1      30.318  15.328  19.188  0.00  0.00    +0.000 C 
ATOM     25  C   UNL     1      29.946  16.531  17.131  0.00  0.00    +0.000 C 
ENDBRANCH  22  23
ENDBRANCH  20  22
ENDBRANCH   6  20
TORSDOF 3
ENDMDL
MODEL 2
REMARK VINA RESULT:      -6.4     20.983     23.940
REMARK  Name = 6325056_Deoxyelephantopin.pdbqt.pdb
REMARK  3 active torsions:
REMARK  status: ('A' for Active; 'I' for Inactive)
REMARK    1  A    between atoms: C_6  and  O_20
REMARK    2  A    between atoms: O_20  and  C_22
REMARK    3  A    between atoms: C_22  and  C_23
REMARK                            x       y       z     vdW  Elec       q    Type
REMARK                         _______ _______ _______ _____ _____    ______ ____
ROOT
ATOM      1  O   UNL     1      51.853   6.057   5.979  0.00  0.00    +0.000 OA
ATOM      2  O   UNL     1      50.827   1.892  10.891  0.00  0.00    +0.000 OA
ATOM      3  O   UNL     1      51.821   8.200   5.153  0.00  0.00    +0.000 OA
ATOM      4  O   UNL     1      51.321   3.478  12.513  0.00  0.00    +0.000 OA
ATOM      5  C   UNL     1      51.260   6.489   8.222  0.00  0.00    +0.000 C 
ATOM      6  C   UNL     1      51.000   6.317   9.652  0.00  0.00    +0.000 C 
ATOM      7  C   UNL     1      51.607   5.485   7.234  0.00  0.00    +0.000 C 
ATOM      8  C   UNL     1      50.317   5.196  10.193  0.00  0.00    +0.000 C 
ATOM      9  C   UNL     1      51.297   7.734   7.484  0.00  0.00    +0.000 C 
ATOM     10  C   UNL     1      49.778   3.976  10.710  0.00  0.00    +0.000 C 
ATOM     11  C   UNL     1      51.643   4.076   7.355  0.00  0.00    +0.000 C 
ATOM     12  C   UNL     1      50.079   2.010   9.701  0.00  0.00    +0.000 C 
ATOM     13  C   UNL     1      50.866   2.056   8.512  0.00  0.00    +0.000 C 
ATOM     14  C   UNL     1      51.597   2.654   7.461  0.00  0.00    +0.000 C 
ATOM     15  C   UNL     1      49.155   3.065   9.844  0.00  0.00    +0.000 C 
ATOM     16  C   UNL     1      51.682   7.422   6.082  0.00  0.00    +0.000 C 
ATOM     17  C   UNL     1      50.705   3.121  11.525  0.00  0.00    +0.000 C 
ATOM     18  C   UNL     1      50.971   8.948   7.943  0.00  0.00    +0.000 C 
ATOM     19  C   UNL     1      52.089   1.815   6.326  0.00  0.00    +0.000 C 
ENDROOT
BRANCH   6  20
ATOM     20  O   UNL     1      51.195   7.394  10.533  0.00  0.00    +0.000 OA
BRANCH  20  22
ATOM     21  O   UNL     1      53.482   7.256  10.744  0.00  0.00    +0.000 OA
ATOM     22  C   UNL     1      52.369   7.361  11.253  0.00  0.00    +0.000 C 
BRANCH  22  23
ATOM     23  C   UNL     1      52.074   7.479  12.727  0.00  0.00    +0.000 C 
ATOM     24  C   UNL     1      53.072   8.032  13.731  0.00  0.00    +0.000 C 
ATOM     25  C   UNL     1      50.878   7.159  13.236  0.00  0.00    +0.000 C 
ENDBRANCH  22  23
ENDBRANCH  20  22
ENDBRANCH   6  20
TORSDOF 3
ENDMDL
MODEL 3
REMARK VINA RESULT:      -6.2     21.675     23.636
REMARK  Name = 6325056_Deoxyelephantopin.pdbqt.pdb
REMARK  3 active torsions:
REMARK  status: ('A' for Active; 'I' for Inactive)
REMARK    1  A    between atoms: C_6  and  O_20
REMARK    2  A    between atoms: O_20  and  C_22
REMARK    3  A    between atoms: C_22  and  C_23
REMARK                            x       y       z     vdW  Elec       q    Type
REMARK                         _______ _______ _______ _____ _____    ______ ____
ROOT
ATOM      1  O   UNL     1      53.307   1.573  13.730  0.00  0.00    +0.000 OA
ATOM      2  O   UNL     1      52.312   7.323  10.818  0.00  0.00    +0.000 OA
ATOM      3  O   UNL     1      52.553  -0.520  14.304  0.00  0.00    +0.000 OA
ATOM      4  O   UNL     1      50.904   6.414   9.212  0.00  0.00    +0.000 OA
ATOM      5  C   UNL     1      51.496   2.295  12.401  0.00  0.00    +0.000 C 
ATOM      6  C   UNL     1      50.663   3.084  11.492  0.00  0.00    +0.000 C 
ATOM      7  C   UNL     1      52.795   2.624  12.959  0.00  0.00    +0.000 C 
ATOM      8  C   UNL     1      50.546   4.496  11.565  0.00  0.00    +0.000 C 
ATOM      9  C   UNL     1      51.231   0.959  12.893  0.00  0.00    +0.000 C 
ATOM     10  C   UNL     1      50.590   5.926  11.566  0.00  0.00    +0.000 C 
ATOM     11  C   UNL     1      53.524   3.835  12.893  0.00  0.00    +0.000 C 
ATOM     12  C   UNL     1      52.395   7.070  12.204  0.00  0.00    +0.000 C 
ATOM     13  C   UNL     1      53.511   6.270  12.592  0.00  0.00    +0.000 C 
ATOM     14  C   UNL     1      54.215   5.081  12.892  0.00  0.00    +0.000 C 
ATOM     15  C   UNL     1      51.145   6.608  12.660  0.00  0.00    +0.000 C 
ATOM     16  C   UNL     1      52.395   0.537  13.717  0.00  0.00    +0.000 C 
ATOM     17  C   UNL     1      51.225   6.583  10.374  0.00  0.00    +0.000 C 
ATOM     18  C   UNL     1      50.113   0.247  12.715  0.00  0.00    +0.000 C 
ATOM     19  C   UNL     1      55.595   5.160  13.461  0.00  0.00    +0.000 C 
ENDROOT
BRANCH   6  20
ATOM     20  O   UNL     1      49.732   2.439  10.659  0.00  0.00    +0.000 OA
BRANCH  20  22
ATOM     21  O   UNL     1      51.279   2.480   8.956  0.00  0.00    +0.000 OA
ATOM     22  C   UNL     1      50.187   2.129   9.397  0.00  0.00    +0.000 C 
BRANCH  22  23
ATOM     23  C   UNL     1      49.159   1.304   8.666  0.00  0.00    +0.000 C 
ATOM     24  C   UNL     1      48.875   1.456   7.180  0.00  0.00    +0.000 C 
ATOM     25  C   UNL     1      48.469   0.332   9.276  0.00  0.00    +0.000 C 
ENDBRANCH  22  23
ENDBRANCH  20  22
ENDBRANCH   6  20
TORSDOF 3
ENDMDL
MODEL 4
REMARK VINA RESULT:      -6.2      2.168      4.036
REMARK  Name = 6325056_Deoxyelephantopin.pdbqt.pdb
REMARK  3 active torsions:
REMARK  status: ('A' for Active; 'I' for Inactive)
REMARK    1  A    between atoms: C_6  and  O_20
REMARK    2  A    between atoms: O_20  and  C_22
REMARK    3  A    between atoms: C_22  and  C_23
REMARK                            x       y       z     vdW  Elec       q    Type
REMARK                         _______ _______ _______ _____ _____    ______ ____
ROOT
ATOM      1  O   UNL     1      31.796  13.559  21.270  0.00  0.00    +0.000 OA
ATOM      2  O   UNL     1      37.228  16.770  19.625  0.00  0.00    +0.000 OA
ATOM      3  O   UNL     1      29.542  13.565  21.713  0.00  0.00    +0.000 OA
ATOM      4  O   UNL     1      36.076  18.332  18.351  0.00  0.00    +0.000 OA
ATOM      5  C   UNL     1      32.076  15.808  20.611  0.00  0.00    +0.000 C 
ATOM      6  C   UNL     1      32.662  17.044  20.092  0.00  0.00    +0.000 C 
ATOM      7  C   UNL     1      32.713  14.523  20.833  0.00  0.00    +0.000 C 
ATOM      8  C   UNL     1      33.978  17.476  20.403  0.00  0.00    +0.000 C 
ATOM      9  C   UNL     1      30.689  15.574  20.954  0.00  0.00    +0.000 C 
ATOM     10  C   UNL     1      35.361  17.785  20.603  0.00  0.00    +0.000 C 
ATOM     11  C   UNL     1      34.080  14.168  20.748  0.00  0.00    +0.000 C 
ATOM     12  C   UNL     1      36.915  16.210  20.882  0.00  0.00    +0.000 C 
ATOM     13  C   UNL     1      36.431  14.869  20.825  0.00  0.00    +0.000 C 
ATOM     14  C   UNL     1      35.467  13.838  20.742  0.00  0.00    +0.000 C 
ATOM     15  C   UNL     1      36.093  17.109  21.591  0.00  0.00    +0.000 C 
ATOM     16  C   UNL     1      30.551  14.148  21.354  0.00  0.00    +0.000 C 
ATOM     17  C   UNL     1      36.248  17.724  19.393  0.00  0.00    +0.000 C 
ATOM     18  C   UNL     1      29.707  16.483  20.987  0.00  0.00    +0.000 C 
ATOM     19  C   UNL     1      35.887  12.414  20.915  0.00  0.00    +0.000 C 
ENDROOT
BRANCH   6  20
ATOM     20  O   UNL     1      31.843  17.996  19.462  0.00  0.00    +0.000 OA
BRANCH  20  22
ATOM     21  O   UNL     1      32.794  18.109  17.369  0.00  0.00    +0.000 OA
ATOM     22  C   UNL     1      31.813  17.928  18.086  0.00  0.00    +0.000 C 
BRANCH  22  23
ATOM     23  C   UNL     1      30.420  17.596  17.617  0.00  0.00    +0.000 C 
ATOM     24  C   UNL     1      29.296  18.618  17.562  0.00  0.00    +0.000 C 
ATOM     25  C   UNL     1      30.100  16.380  17.155  0.00  0.00    +0.000 C 
ENDBRANCH  22  23
ENDBRANCH  20  22
ENDBRANCH   6  20
TORSDOF 3
ENDMDL
MODEL 5
REMARK VINA RESULT:      -6.1     26.526     29.012
REMARK  Name = 6325056_Deoxyelephantopin.pdbqt.pdb
REMARK  3 active torsions:
REMARK  status: ('A' for Active; 'I' for Inactive)
REMARK    1  A    between atoms: C_6  and  O_20
REMARK    2  A    between atoms: O_20  and  C_22
REMARK    3  A    between atoms: C_22  and  C_23
REMARK                            x       y       z     vdW  Elec       q    Type
REMARK                         _______ _______ _______ _____ _____    ______ ____
ROOT
ATOM      1  O   UNL     1      50.774   2.196   7.080  0.00  0.00    +0.000 OA
ATOM      2  O   UNL     1      52.056  -0.770   1.416  0.00  0.00    +0.000 OA
ATOM      3  O   UNL     1      49.891   2.134   9.200  0.00  0.00    +0.000 OA
ATOM      4  O   UNL     1      52.273  -2.858   2.408  0.00  0.00    +0.000 OA
ATOM      5  C   UNL     1      50.472  -0.061   6.459  0.00  0.00    +0.000 C 
ATOM      6  C   UNL     1      50.537  -1.322   5.721  0.00  0.00    +0.000 C 
ATOM      7  C   UNL     1      50.953   1.250   6.063  0.00  0.00    +0.000 C 
ATOM      8  C   UNL     1      50.368  -1.416   4.315  0.00  0.00    +0.000 C 
ATOM      9  C   UNL     1      49.966   0.143   7.801  0.00  0.00    +0.000 C 
ATOM     10  C   UNL     1      50.362  -1.443   2.884  0.00  0.00    +0.000 C 
ATOM     11  C   UNL     1      51.474   1.681   4.820  0.00  0.00    +0.000 C 
ATOM     12  C   UNL     1      51.115   0.255   1.649  0.00  0.00    +0.000 C 
ATOM     13  C   UNL     1      51.622   1.363   2.392  0.00  0.00    +0.000 C 
ATOM     14  C   UNL     1      51.919   2.129   3.542  0.00  0.00    +0.000 C 
ATOM     15  C   UNL     1      49.935  -0.316   2.166  0.00  0.00    +0.000 C 
ATOM     16  C   UNL     1      50.182   1.571   8.158  0.00  0.00    +0.000 C 
ATOM     17  C   UNL     1      51.647  -1.832   2.211  0.00  0.00    +0.000 C 
ATOM     18  C   UNL     1      49.342  -0.759   8.567  0.00  0.00    +0.000 C 
ATOM     19  C   UNL     1      52.456   3.516   3.392  0.00  0.00    +0.000 C 
ENDROOT
BRANCH   6  20
ATOM     20  O   UNL     1      50.515  -2.543   6.418  0.00  0.00    +0.000 OA
BRANCH  20  22
ATOM     21  O   UNL     1      51.346  -4.484   5.502  0.00  0.00    +0.000 OA
ATOM     22  C   UNL     1      51.525  -3.423   6.095  0.00  0.00    +0.000 C 
BRANCH  22  23
ATOM     23  C   UNL     1      52.851  -2.882   6.567  0.00  0.00    +0.000 C 
ATOM     24  C   UNL     1      53.135  -2.533   8.019  0.00  0.00    +0.000 C 
ATOM     25  C   UNL     1      53.890  -2.734   5.736  0.00  0.00    +0.000 C 
ENDBRANCH  22  23
ENDBRANCH  20  22
ENDBRANCH   6  20
TORSDOF 3
ENDMDL
MODEL 6
REMARK VINA RESULT:      -6.1      3.142      6.495
REMARK  Name = 6325056_Deoxyelephantopin.pdbqt.pdb
REMARK  3 active torsions:
REMARK  status: ('A' for Active; 'I' for Inactive)
REMARK    1  A    between atoms: C_6  and  O_20
REMARK    2  A    between atoms: O_20  and  C_22
REMARK    3  A    between atoms: C_22  and  C_23
REMARK                            x       y       z     vdW  Elec       q    Type
REMARK                         _______ _______ _______ _____ _____    ______ ____
ROOT
ATOM      1  O   UNL     1      36.181  19.985  20.395  0.00  0.00    +0.000 OA
ATOM      2  O   UNL     1      35.843  13.758  22.300  0.00  0.00    +0.000 OA
ATOM      3  O   UNL     1      35.325  22.117  20.413  0.00  0.00    +0.000 OA
ATOM      4  O   UNL     1      34.831  14.293  24.320  0.00  0.00    +0.000 OA
ATOM      5  C   UNL     1      34.710  18.956  21.927  0.00  0.00    +0.000 C 
ATOM      6  C   UNL     1      34.098  17.979  22.829  0.00  0.00    +0.000 C 
ATOM      7  C   UNL     1      35.850  18.789  21.045  0.00  0.00    +0.000 C 
ATOM      8  C   UNL     1      33.963  16.602  22.514  0.00  0.00    +0.000 C 
ATOM      9  C   UNL     1      34.346  20.349  21.770  0.00  0.00    +0.000 C 
ATOM     10  C   UNL     1      34.001  15.200  22.230  0.00  0.00    +0.000 C 
ATOM     11  C   UNL     1      36.572  17.618  20.717  0.00  0.00    +0.000 C 
ATOM     12  C   UNL     1      35.615  14.268  21.004  0.00  0.00    +0.000 C 
ATOM     13  C   UNL     1      36.618  15.171  20.542  0.00  0.00    +0.000 C 
ATOM     14  C   UNL     1      37.242  16.421  20.327  0.00  0.00    +0.000 C 
ATOM     15  C   UNL     1      34.296  14.758  20.931  0.00  0.00    +0.000 C 
ATOM     16  C   UNL     1      35.299  20.963  20.807  0.00  0.00    +0.000 C 
ATOM     17  C   UNL     1      34.884  14.358  23.105  0.00  0.00    +0.000 C 
ATOM     18  C   UNL     1      33.298  20.971  22.322  0.00  0.00    +0.000 C 
ATOM     19  C   UNL     1      38.460  16.505  19.465  0.00  0.00    +0.000 C 
ENDROOT
BRANCH   6  20
ATOM     20  O   UNL     1      33.378  18.419  23.953  0.00  0.00    +0.000 OA
BRANCH  20  22
ATOM     21  O   UNL     1      34.812  17.568  25.539  0.00  0.00    +0.000 OA
ATOM     22  C   UNL     1      34.098  18.478  25.126  0.00  0.00    +0.000 C 
BRANCH  22  23
ATOM     23  C   UNL     1      33.880  19.810  25.798  0.00  0.00    +0.000 C 
ATOM     24  C   UNL     1      34.863  20.964  25.691  0.00  0.00    +0.000 C 
ATOM     25  C   UNL     1      32.764  20.080  26.487  0.00  0.00    +0.000 C 
ENDBRANCH  22  23
ENDBRANCH  20  22
ENDBRANCH   6  20
TORSDOF 3
ENDMDL
MODEL 7
REMARK VINA RESULT:      -6.1     25.036     27.401
REMARK  Name = 6325056_Deoxyelephantopin.pdbqt.pdb
REMARK  3 active torsions:
REMARK  status: ('A' for Active; 'I' for Inactive)
REMARK    1  A    between atoms: C_6  and  O_20
REMARK    2  A    between atoms: O_20  and  C_22
REMARK    3  A    between atoms: C_22  and  C_23
REMARK                            x       y       z     vdW  Elec       q    Type
REMARK                         _______ _______ _______ _____ _____    ______ ____
ROOT
ATOM      1  O   UNL     1      54.335  -0.854   9.762  0.00  0.00    +0.000 OA
ATOM      2  O   UNL     1      48.670   2.312   9.130  0.00  0.00    +0.000 OA
ATOM      3  O   UNL     1      55.684  -2.637   9.234  0.00  0.00    +0.000 OA
ATOM      4  O   UNL     1      48.343   1.563   6.957  0.00  0.00    +0.000 OA
ATOM      5  C   UNL     1      52.509  -1.304   8.337  0.00  0.00    +0.000 C 
ATOM      6  C   UNL     1      51.253  -1.169   7.598  0.00  0.00    +0.000 C 
ATOM      7  C   UNL     1      53.073  -0.419   9.340  0.00  0.00    +0.000 C 
ATOM      8  C   UNL     1      50.060  -0.656   8.169  0.00  0.00    +0.000 C 
ATOM      9  C   UNL     1      53.513  -2.334   8.175  0.00  0.00    +0.000 C 
ATOM     10  C   UNL     1      48.932   0.021   8.733  0.00  0.00    +0.000 C 
ATOM     11  C   UNL     1      52.503   0.715   9.964  0.00  0.00    +0.000 C 
ATOM     12  C   UNL     1      49.142   1.625  10.269  0.00  0.00    +0.000 C 
ATOM     13  C   UNL     1      50.485   1.940  10.633  0.00  0.00    +0.000 C 
ATOM     14  C   UNL     1      51.892   1.806  10.649  0.00  0.00    +0.000 C 
ATOM     15  C   UNL     1      48.875   0.250  10.116  0.00  0.00    +0.000 C 
ATOM     16  C   UNL     1      54.648  -2.012   9.080  0.00  0.00    +0.000 C 
ATOM     17  C   UNL     1      48.575   1.351   8.134  0.00  0.00    +0.000 C 
ATOM     18  C   UNL     1      53.421  -3.430   7.412  0.00  0.00    +0.000 C 
ATOM     19  C   UNL     1      52.706   2.637  11.588  0.00  0.00    +0.000 C 
ENDROOT
BRANCH   6  20
ATOM     20  O   UNL     1      51.109  -1.790   6.345  0.00  0.00    +0.000 OA
BRANCH  20  22
ATOM     21  O   UNL     1      51.480   0.211   5.268  0.00  0.00    +0.000 OA
ATOM     22  C   UNL     1      51.029  -0.932   5.269  0.00  0.00    +0.000 C 
BRANCH  22  23
ATOM     23  C   UNL     1      50.326  -1.610   4.121  0.00  0.00    +0.000 C 
ATOM     24  C   UNL     1      49.985  -0.900   2.821  0.00  0.00    +0.000 C 
ATOM     25  C   UNL     1      50.010  -2.911   4.153  0.00  0.00    +0.000 C 
ENDBRANCH  22  23
ENDBRANCH  20  22
ENDBRANCH   6  20
TORSDOF 3
ENDMDL
MODEL 8
REMARK VINA RESULT:      -6.0      5.723      9.559
REMARK  Name = 6325056_Deoxyelephantopin.pdbqt.pdb
REMARK  3 active torsions:
REMARK  status: ('A' for Active; 'I' for Inactive)
REMARK    1  A    between atoms: C_6  and  O_20
REMARK    2  A    between atoms: O_20  and  C_22
REMARK    3  A    between atoms: C_22  and  C_23
REMARK                            x       y       z     vdW  Elec       q    Type
REMARK                         _______ _______ _______ _____ _____    ______ ____
ROOT
ATOM      1  O   UNL     1      31.315   8.638  21.632  0.00  0.00    +0.000 OA
ATOM      2  O   UNL     1      35.097  13.888  22.447  0.00  0.00    +0.000 OA
ATOM      3  O   UNL     1      31.060   6.355  21.629  0.00  0.00    +0.000 OA
ATOM      4  O   UNL     1      36.434  12.841  24.031  0.00  0.00    +0.000 OA
ATOM      5  C   UNL     1      33.545   8.785  22.393  0.00  0.00    +0.000 C 
ATOM      6  C   UNL     1      34.817   9.318  22.881  0.00  0.00    +0.000 C 
ATOM      7  C   UNL     1      32.364   9.508  21.957  0.00  0.00    +0.000 C 
ATOM      8  C   UNL     1      35.427  10.489  22.359  0.00  0.00    +0.000 C 
ATOM      9  C   UNL     1      33.156   7.393  22.304  0.00  0.00    +0.000 C 
ATOM     10  C   UNL     1      35.918  11.760  21.922  0.00  0.00    +0.000 C 
ATOM     11  C   UNL     1      32.181  10.896  21.753  0.00  0.00    +0.000 C 
ATOM     12  C   UNL     1      34.567  13.397  21.235  0.00  0.00    +0.000 C 
ATOM     13  C   UNL     1      33.175  13.089  21.282  0.00  0.00    +0.000 C 
ATOM     14  C   UNL     1      32.028  12.285  21.470  0.00  0.00    +0.000 C 
ATOM     15  C   UNL     1      35.390  12.354  20.765  0.00  0.00    +0.000 C 
ATOM     16  C   UNL     1      31.747   7.342  21.831  0.00  0.00    +0.000 C 
ATOM     17  C   UNL     1      35.907  12.871  22.933  0.00  0.00    +0.000 C 
ATOM     18  C   UNL     1      33.935   6.328  22.526  0.00  0.00    +0.000 C 
ATOM     19  C   UNL     1      30.679  12.821  21.114  0.00  0.00    +0.000 C 
ENDROOT
BRANCH   6  20
ATOM     20  O   UNL     1      35.625   8.538  23.726  0.00  0.00    +0.000 OA
BRANCH  20  22
ATOM     21  O   UNL     1      36.322   9.777  25.535  0.00  0.00    +0.000 OA
ATOM     22  C   UNL     1      35.609   8.900  25.055  0.00  0.00    +0.000 C 
BRANCH  22  23
ATOM     23  C   UNL     1      34.594   8.072  25.802  0.00  0.00    +0.000 C 
ATOM     24  C   UNL     1      33.196   8.570  26.130  0.00  0.00    +0.000 C 
ATOM     25  C   UNL     1      34.845   6.810  26.171  0.00  0.00    +0.000 C 
ENDBRANCH  22  23
ENDBRANCH  20  22
ENDBRANCH   6  20
TORSDOF 3
ENDMDL
MODEL 9
REMARK VINA RESULT:      -5.8      3.423      6.029
REMARK  Name = 6325056_Deoxyelephantopin.pdbqt.pdb
REMARK  3 active torsions:
REMARK  status: ('A' for Active; 'I' for Inactive)
REMARK    1  A    between atoms: C_6  and  O_20
REMARK    2  A    between atoms: O_20  and  C_22
REMARK    3  A    between atoms: C_22  and  C_23
REMARK                            x       y       z     vdW  Elec       q    Type
REMARK                         _______ _______ _______ _____ _____    ______ ____
ROOT
ATOM      1  O   UNL     1      30.775  14.463  23.435  0.00  0.00    +0.000 OA
ATOM      2  O   UNL     1      36.270  17.518  21.702  0.00  0.00    +0.000 OA
ATOM      3  O   UNL     1      29.301  12.722  23.166  0.00  0.00    +0.000 OA
ATOM      4  O   UNL     1      37.326  15.545  21.082  0.00  0.00    +0.000 OA
ATOM      5  C   UNL     1      32.455  13.796  21.918  0.00  0.00    +0.000 C 
ATOM      6  C   UNL     1      33.713  13.732  21.172  0.00  0.00    +0.000 C 
ATOM      7  C   UNL     1      32.016  14.793  22.877  0.00  0.00    +0.000 C 
ATOM      8  C   UNL     1      34.374  14.876  20.654  0.00  0.00    +0.000 C 
ATOM      9  C   UNL     1      31.385  12.821  21.912  0.00  0.00    +0.000 C 
ATOM     10  C   UNL     1      35.090  16.063  20.299  0.00  0.00    +0.000 C 
ATOM     11  C   UNL     1      32.613  16.025  23.233  0.00  0.00    +0.000 C 
ATOM     12  C   UNL     1      34.945  17.950  21.479  0.00  0.00    +0.000 C 
ATOM     13  C   UNL     1      34.101  17.880  22.627  0.00  0.00    +0.000 C 
ATOM     14  C   UNL     1      33.176  17.302  23.526  0.00  0.00    +0.000 C 
ATOM     15  C   UNL     1      34.441  17.307  20.331  0.00  0.00    +0.000 C 
ATOM     16  C   UNL     1      30.353  13.270  22.884  0.00  0.00    +0.000 C 
ATOM     17  C   UNL     1      36.382  16.313  21.022  0.00  0.00    +0.000 C 
ATOM     18  C   UNL     1      31.286  11.744  21.124  0.00  0.00    +0.000 C 
ATOM     19  C   UNL     1      32.594  18.129  24.627  0.00  0.00    +0.000 C 
ENDROOT
BRANCH   6  20
ATOM     20  O   UNL     1      34.192  12.493  20.713  0.00  0.00    +0.000 OA
BRANCH  20  22
ATOM     21  O   UNL     1      36.394  12.435  20.046  0.00  0.00    +0.000 OA
ATOM     22  C   UNL     1      35.538  12.273  20.912  0.00  0.00    +0.000 C 
BRANCH  22  23
ATOM     23  C   UNL     1      35.782  11.820  22.329  0.00  0.00    +0.000 C 
ATOM     24  C   UNL     1      36.093  12.781  23.465  0.00  0.00    +0.000 C 
ATOM     25  C   UNL     1      35.677  10.535  22.689  0.00  0.00    +0.000 C 
ENDBRANCH  22  23
ENDBRANCH  20  22
ENDBRANCH   6  20
TORSDOF 3
ENDMDL
