MODEL 1
REMARK VINA RESULT:      -5.6      0.000      0.000
REMARK  Name = 641785_Cardamonin.pdbqt.pdb
REMARK  6 active torsions:
REMARK  status: ('A' for Active; 'I' for Inactive)
REMARK    1  A    between atoms: C_1  and  C_14
REMARK    2  A    between atoms: C_2  and  O_7
REMARK    3  A    between atoms: C_3  and  O_9
REMARK    4  A    between atoms: C_6  and  O_11
REMARK    5  A    between atoms: C_14  and  C_15
REMARK    6  A    between atoms: C_16  and  C_17
REMARK                            x       y       z     vdW  Elec       q    Type
REMARK                         _______ _______ _______ _____ _____    ______ ____
ROOT
ATOM      1  C   UNL     1      50.737  17.484  12.913  0.00  0.00    +0.000 A 
ATOM      2  C   UNL     1      50.963  18.760  12.363  0.00  0.00    +0.000 A 
ATOM      3  C   UNL     1      49.967  16.556  12.183  0.00  0.00    +0.000 A 
ATOM      4  C   UNL     1      50.399  19.081  11.119  0.00  0.00    +0.000 A 
ATOM      5  C   UNL     1      49.405  16.895  10.953  0.00  0.00    +0.000 A 
ATOM      6  C   UNL     1      49.620  18.160  10.431  0.00  0.00    +0.000 A 
ENDROOT
BRANCH   2   7
ATOM      7  O   UNL     1      51.797  19.634  13.022  0.00  0.00    +0.000 OA
ATOM      8  C   UNL     1      51.179  20.736  13.626  0.00  0.00    +0.000 C 
ENDBRANCH   2   7
BRANCH   3   9
ATOM      9  O   UNL     1      49.712  15.278  12.611  0.00  0.00    +0.000 OA
ATOM     10  H   UNL     1      49.931  14.640  11.897  0.00  0.00    +0.000 HD
ENDBRANCH   3   9
BRANCH   6  11
ATOM     11  O   UNL     1      49.064  18.477   9.229  0.00  0.00    +0.000 OA
ATOM     12  H   UNL     1      48.131  18.198   9.231  0.00  0.00    +0.000 HD
ENDBRANCH   6  11
BRANCH   1  14
ATOM     13  O   UNL     1      52.204  16.263  14.293  0.00  0.00    +0.000 OA
ATOM     14  C   UNL     1      51.269  17.055  14.232  0.00  0.00    +0.000 C 
BRANCH  14  15
ATOM     15  C   UNL     1      50.650  17.502  15.455  0.00  0.00    +0.000 C 
ATOM     16  C   UNL     1      50.126  17.890  16.465  0.00  0.00    +0.000 C 
BRANCH  16  17
ATOM     17  C   UNL     1      49.508  18.345  17.667  0.00  0.00    +0.000 A 
ATOM     18  C   UNL     1      49.606  17.583  18.829  0.00  0.00    +0.000 A 
ATOM     19  C   UNL     1      48.808  19.549  17.676  0.00  0.00    +0.000 A 
ATOM     20  C   UNL     1      49.002  18.027  20.003  0.00  0.00    +0.000 A 
ATOM     21  C   UNL     1      48.204  19.992  18.851  0.00  0.00    +0.000 A 
ATOM     22  C   UNL     1      48.301  19.230  20.013  0.00  0.00    +0.000 A 
ENDBRANCH  16  17
ENDBRANCH  14  15
ENDBRANCH   1  14
TORSDOF 6
ENDMDL
MODEL 2
REMARK VINA RESULT:      -5.6     15.672     18.744
REMARK  Name = 641785_Cardamonin.pdbqt.pdb
REMARK  6 active torsions:
REMARK  status: ('A' for Active; 'I' for Inactive)
REMARK    1  A    between atoms: C_1  and  C_14
REMARK    2  A    between atoms: C_2  and  O_7
REMARK    3  A    between atoms: C_3  and  O_9
REMARK    4  A    between atoms: C_6  and  O_11
REMARK    5  A    between atoms: C_14  and  C_15
REMARK    6  A    between atoms: C_16  and  C_17
REMARK                            x       y       z     vdW  Elec       q    Type
REMARK                         _______ _______ _______ _____ _____    ______ ____
ROOT
ATOM      1  C   UNL     1      49.985   2.370  10.999  0.00  0.00    +0.000 A 
ATOM      2  C   UNL     1      51.120   2.696  11.765  0.00  0.00    +0.000 A 
ATOM      3  C   UNL     1      49.251   3.412  10.396  0.00  0.00    +0.000 A 
ATOM      4  C   UNL     1      51.474   4.043  11.928  0.00  0.00    +0.000 A 
ATOM      5  C   UNL     1      49.610   4.746  10.577  0.00  0.00    +0.000 A 
ATOM      6  C   UNL     1      50.718   5.054  11.349  0.00  0.00    +0.000 A 
ENDROOT
BRANCH   2   7
ATOM      7  O   UNL     1      51.899   1.680  12.270  0.00  0.00    +0.000 OA
ATOM      8  C   UNL     1      53.138   1.488  11.647  0.00  0.00    +0.000 C 
ENDBRANCH   2   7
BRANCH   3   9
ATOM      9  O   UNL     1      48.149   3.204   9.604  0.00  0.00    +0.000 OA
ATOM     10  H   UNL     1      48.201   2.313   9.192  0.00  0.00    +0.000 HD
ENDBRANCH   3   9
BRANCH   6  11
ATOM     11  O   UNL     1      51.057   6.362  11.519  0.00  0.00    +0.000 OA
ATOM     12  H   UNL     1      51.694   6.430  12.252  0.00  0.00    +0.000 HD
ENDBRANCH   6  11
BRANCH   1  14
ATOM     13  O   UNL     1      48.967   0.362  11.692  0.00  0.00    +0.000 OA
ATOM     14  C   UNL     1      49.514   0.978  10.783  0.00  0.00    +0.000 C 
BRANCH  14  15
ATOM     15  C   UNL     1      49.758   0.306   9.531  0.00  0.00    +0.000 C 
ATOM     16  C   UNL     1      49.944  -0.251   8.482  0.00  0.00    +0.000 C 
BRANCH  16  17
ATOM     17  C   UNL     1      50.171  -0.914   7.240  0.00  0.00    +0.000 A 
ATOM     18  C   UNL     1      50.427  -0.168   6.091  0.00  0.00    +0.000 A 
ATOM     19  C   UNL     1      50.133  -2.305   7.177  0.00  0.00    +0.000 A 
ATOM     20  C   UNL     1      50.647  -0.815   4.877  0.00  0.00    +0.000 A 
ATOM     21  C   UNL     1      50.353  -2.951   5.962  0.00  0.00    +0.000 A 
ATOM     22  C   UNL     1      50.610  -2.205   4.814  0.00  0.00    +0.000 A 
ENDBRANCH  16  17
ENDBRANCH  14  15
ENDBRANCH   1  14
TORSDOF 6
ENDMDL
MODEL 3
REMARK VINA RESULT:      -5.2      4.754      8.661
REMARK  Name = 641785_Cardamonin.pdbqt.pdb
REMARK  6 active torsions:
REMARK  status: ('A' for Active; 'I' for Inactive)
REMARK    1  A    between atoms: C_1  and  C_14
REMARK    2  A    between atoms: C_2  and  O_7
REMARK    3  A    between atoms: C_3  and  O_9
REMARK    4  A    between atoms: C_6  and  O_11
REMARK    5  A    between atoms: C_14  and  C_15
REMARK    6  A    between atoms: C_16  and  C_17
REMARK                            x       y       z     vdW  Elec       q    Type
REMARK                         _______ _______ _______ _____ _____    ______ ____
ROOT
ATOM      1  C   UNL     1      50.701  17.884   9.535  0.00  0.00    +0.000 A 
ATOM      2  C   UNL     1      49.916  17.339  10.569  0.00  0.00    +0.000 A 
ATOM      3  C   UNL     1      50.122  18.054   8.260  0.00  0.00    +0.000 A 
ATOM      4  C   UNL     1      48.594  16.958  10.298  0.00  0.00    +0.000 A 
ATOM      5  C   UNL     1      48.810  17.659   8.005  0.00  0.00    +0.000 A 
ATOM      6  C   UNL     1      48.055  17.107   9.027  0.00  0.00    +0.000 A 
ENDROOT
BRANCH   2   7
ATOM      7  O   UNL     1      50.441  17.267  11.839  0.00  0.00    +0.000 OA
ATOM      8  C   UNL     1      50.046  16.163  12.605  0.00  0.00    +0.000 C 
ENDBRANCH   2   7
BRANCH   3   9
ATOM      9  O   UNL     1      50.787  18.603   7.192  0.00  0.00    +0.000 OA
ATOM     10  H   UNL     1      50.145  19.055   6.601  0.00  0.00    +0.000 HD
ENDBRANCH   3   9
BRANCH   6  11
ATOM     11  O   UNL     1      46.774  16.725   8.763  0.00  0.00    +0.000 OA
ATOM     12  H   UNL     1      46.723  16.410   7.843  0.00  0.00    +0.000 HD
ENDBRANCH   6  11
BRANCH   1  14
ATOM     13  O   UNL     1      52.387  19.349  10.284  0.00  0.00    +0.000 OA
ATOM     14  C   UNL     1      52.116  18.298   9.712  0.00  0.00    +0.000 C 
BRANCH  14  15
ATOM     15  C   UNL     1      53.186  17.512   9.149  0.00  0.00    +0.000 C 
ATOM     16  C   UNL     1      54.079  16.846   8.697  0.00  0.00    +0.000 C 
BRANCH  16  17
ATOM     17  C   UNL     1      55.139  16.061   8.154  0.00  0.00    +0.000 A 
ATOM     18  C   UNL     1      55.952  16.589   7.153  0.00  0.00    +0.000 A 
ATOM     19  C   UNL     1      55.358  14.768   8.624  0.00  0.00    +0.000 A 
ATOM     20  C   UNL     1      56.986  15.822   6.622  0.00  0.00    +0.000 A 
ATOM     21  C   UNL     1      56.393  14.002   8.092  0.00  0.00    +0.000 A 
ATOM     22  C   UNL     1      57.205  14.529   7.091  0.00  0.00    +0.000 A 
ENDBRANCH  16  17
ENDBRANCH  14  15
ENDBRANCH   1  14
TORSDOF 6
ENDMDL
MODEL 4
REMARK VINA RESULT:      -5.0     14.838     18.170
REMARK  Name = 641785_Cardamonin.pdbqt.pdb
REMARK  6 active torsions:
REMARK  status: ('A' for Active; 'I' for Inactive)
REMARK    1  A    between atoms: C_1  and  C_14
REMARK    2  A    between atoms: C_2  and  O_7
REMARK    3  A    between atoms: C_3  and  O_9
REMARK    4  A    between atoms: C_6  and  O_11
REMARK    5  A    between atoms: C_14  and  C_15
REMARK    6  A    between atoms: C_16  and  C_17
REMARK                            x       y       z     vdW  Elec       q    Type
REMARK                         _______ _______ _______ _____ _____    ______ ____
ROOT
ATOM      1  C   UNL     1      50.151   2.544  10.715  0.00  0.00    +0.000 A 
ATOM      2  C   UNL     1      51.257   2.655  11.579  0.00  0.00    +0.000 A 
ATOM      3  C   UNL     1      49.281   3.645  10.581  0.00  0.00    +0.000 A 
ATOM      4  C   UNL     1      51.449   3.843  12.299  0.00  0.00    +0.000 A 
ATOM      5  C   UNL     1      49.480   4.815  11.312  0.00  0.00    +0.000 A 
ATOM      6  C   UNL     1      50.562   4.904  12.173  0.00  0.00    +0.000 A 
ENDROOT
BRANCH   2   7
ATOM      7  O   UNL     1      52.166   1.623  11.636  0.00  0.00    +0.000 OA
ATOM      8  C   UNL     1      53.133   1.712  12.644  0.00  0.00    +0.000 C 
ENDBRANCH   2   7
BRANCH   3   9
ATOM      9  O   UNL     1      48.193   3.655   9.745  0.00  0.00    +0.000 OA
ATOM     10  H   UNL     1      47.892   2.734   9.583  0.00  0.00    +0.000 HD
ENDBRANCH   3   9
BRANCH   6  11
ATOM     11  O   UNL     1      50.744   6.053  12.881  0.00  0.00    +0.000 OA
ATOM     12  H   UNL     1      51.387   5.885  13.593  0.00  0.00    +0.000 HD
ENDBRANCH   6  11
BRANCH   1  14
ATOM     13  O   UNL     1      49.388   0.328  10.478  0.00  0.00    +0.000 OA
ATOM     14  C   UNL     1      49.846   1.323   9.927  0.00  0.00    +0.000 C 
BRANCH  14  15
ATOM     15  C   UNL     1      50.154   1.263   8.519  0.00  0.00    +0.000 C 
ATOM     16  C   UNL     1      50.425   1.201   7.349  0.00  0.00    +0.000 C 
BRANCH  16  17
ATOM     17  C   UNL     1      50.742   1.133   5.961  0.00  0.00    +0.000 A 
ATOM     18  C   UNL     1      50.253   0.081   5.188  0.00  0.00    +0.000 A 
ATOM     19  C   UNL     1      51.541   2.115   5.380  0.00  0.00    +0.000 A 
ATOM     20  C   UNL     1      50.564   0.013   3.832  0.00  0.00    +0.000 A 
ATOM     21  C   UNL     1      51.851   2.046   4.024  0.00  0.00    +0.000 A 
ATOM     22  C   UNL     1      51.363   0.995   3.251  0.00  0.00    +0.000 A 
ENDBRANCH  16  17
ENDBRANCH  14  15
ENDBRANCH   1  14
TORSDOF 6
ENDMDL
MODEL 5
REMARK VINA RESULT:      -5.0     10.869     13.676
REMARK  Name = 641785_Cardamonin.pdbqt.pdb
REMARK  6 active torsions:
REMARK  status: ('A' for Active; 'I' for Inactive)
REMARK    1  A    between atoms: C_1  and  C_14
REMARK    2  A    between atoms: C_2  and  O_7
REMARK    3  A    between atoms: C_3  and  O_9
REMARK    4  A    between atoms: C_6  and  O_11
REMARK    5  A    between atoms: C_14  and  C_15
REMARK    6  A    between atoms: C_16  and  C_17
REMARK                            x       y       z     vdW  Elec       q    Type
REMARK                         _______ _______ _______ _____ _____    ______ ____
ROOT
ATOM      1  C   UNL     1      52.015   6.401  12.417  0.00  0.00    +0.000 A 
ATOM      2  C   UNL     1      52.953   7.326  12.915  0.00  0.00    +0.000 A 
ATOM      3  C   UNL     1      50.781   6.258  13.085  0.00  0.00    +0.000 A 
ATOM      4  C   UNL     1      52.646   8.057  14.072  0.00  0.00    +0.000 A 
ATOM      5  C   UNL     1      50.498   6.985  14.240  0.00  0.00    +0.000 A 
ATOM      6  C   UNL     1      51.437   7.877  14.730  0.00  0.00    +0.000 A 
ENDROOT
BRANCH   2   7
ATOM      7  O   UNL     1      54.114   7.545  12.211  0.00  0.00    +0.000 OA
ATOM      8  C   UNL     1      55.201   8.023  12.952  0.00  0.00    +0.000 C 
ENDBRANCH   2   7
BRANCH   3   9
ATOM      9  O   UNL     1      49.786   5.411  12.666  0.00  0.00    +0.000 OA
ATOM     10  H   UNL     1      48.977   5.561  13.202  0.00  0.00    +0.000 HD
ENDBRANCH   3   9
BRANCH   6  11
ATOM     11  O   UNL     1      51.146   8.580  15.860  0.00  0.00    +0.000 OA
ATOM     12  H   UNL     1      51.607   9.437  15.825  0.00  0.00    +0.000 HD
ENDBRANCH   6  11
BRANCH   1  14
ATOM     13  O   UNL     1      52.358   4.346  11.319  0.00  0.00    +0.000 OA
ATOM     14  C   UNL     1      52.251   5.563  11.214  0.00  0.00    +0.000 C 
BRANCH  14  15
ATOM     15  C   UNL     1      52.431   6.172   9.919  0.00  0.00    +0.000 C 
ATOM     16  C   UNL     1      52.601   6.682   8.843  0.00  0.00    +0.000 C 
BRANCH  16  17
ATOM     17  C   UNL     1      52.794   7.286   7.567  0.00  0.00    +0.000 A 
ATOM     18  C   UNL     1      54.078   7.639   7.153  0.00  0.00    +0.000 A 
ATOM     19  C   UNL     1      51.702   7.526   6.737  0.00  0.00    +0.000 A 
ATOM     20  C   UNL     1      54.268   8.232   5.907  0.00  0.00    +0.000 A 
ATOM     21  C   UNL     1      51.893   8.118   5.490  0.00  0.00    +0.000 A 
ATOM     22  C   UNL     1      53.175   8.471   5.077  0.00  0.00    +0.000 A 
ENDBRANCH  16  17
ENDBRANCH  14  15
ENDBRANCH   1  14
TORSDOF 6
ENDMDL
MODEL 6
REMARK VINA RESULT:      -5.0     30.550     32.556
REMARK  Name = 641785_Cardamonin.pdbqt.pdb
REMARK  6 active torsions:
REMARK  status: ('A' for Active; 'I' for Inactive)
REMARK    1  A    between atoms: C_1  and  C_14
REMARK    2  A    between atoms: C_2  and  O_7
REMARK    3  A    between atoms: C_3  and  O_9
REMARK    4  A    between atoms: C_6  and  O_11
REMARK    5  A    between atoms: C_14  and  C_15
REMARK    6  A    between atoms: C_16  and  C_17
REMARK                            x       y       z     vdW  Elec       q    Type
REMARK                         _______ _______ _______ _____ _____    ______ ____
ROOT
ATOM      1  C   UNL     1      30.487  -2.449  -1.077  0.00  0.00    +0.000 A 
ATOM      2  C   UNL     1      29.163  -2.657  -0.645  0.00  0.00    +0.000 A 
ATOM      3  C   UNL     1      31.547  -2.851  -0.239  0.00  0.00    +0.000 A 
ATOM      4  C   UNL     1      28.935  -3.233   0.614  0.00  0.00    +0.000 A 
ATOM      5  C   UNL     1      31.302  -3.412   1.014  0.00  0.00    +0.000 A 
ATOM      6  C   UNL     1      29.996  -3.594   1.435  0.00  0.00    +0.000 A 
ENDROOT
BRANCH   2   7
ATOM      7  O   UNL     1      28.127  -2.362  -1.500  0.00  0.00    +0.000 OA
ATOM      8  C   UNL     1      26.840  -2.432  -0.953  0.00  0.00    +0.000 C 
ENDBRANCH   2   7
BRANCH   3   9
ATOM      9  O   UNL     1      32.871  -2.724  -0.576  0.00  0.00    +0.000 OA
ATOM     10  H   UNL     1      33.196  -1.836  -0.308  0.00  0.00    +0.000 HD
ENDBRANCH   3   9
BRANCH   6  11
ATOM     11  O   UNL     1      29.772  -4.142   2.661  0.00  0.00    +0.000 OA
ATOM     12  H   UNL     1      29.153  -3.573   3.152  0.00  0.00    +0.000 HD
ENDBRANCH   6  11
BRANCH   1  14
ATOM     13  O   UNL     1      31.530  -2.432  -3.189  0.00  0.00    +0.000 OA
ATOM     14  C   UNL     1      30.834  -1.827  -2.381  0.00  0.00    +0.000 C 
BRANCH  14  15
ATOM     15  C   UNL     1      30.423  -0.478  -2.683  0.00  0.00    +0.000 C 
ATOM     16  C   UNL     1      30.064   0.640  -2.941  0.00  0.00    +0.000 C 
BRANCH  16  17
ATOM     17  C   UNL     1      29.644   1.968  -3.247  0.00  0.00    +0.000 A 
ATOM     18  C   UNL     1      29.014   2.235  -4.461  0.00  0.00    +0.000 A 
ATOM     19  C   UNL     1      29.867   2.996  -2.334  0.00  0.00    +0.000 A 
ATOM     20  C   UNL     1      28.605   3.532  -4.761  0.00  0.00    +0.000 A 
ATOM     21  C   UNL     1      29.458   4.293  -2.635  0.00  0.00    +0.000 A 
ATOM     22  C   UNL     1      28.828   4.560  -3.848  0.00  0.00    +0.000 A 
ENDBRANCH  16  17
ENDBRANCH  14  15
ENDBRANCH   1  14
TORSDOF 6
ENDMDL
MODEL 7
REMARK VINA RESULT:      -4.9      4.427      6.172
REMARK  Name = 641785_Cardamonin.pdbqt.pdb
REMARK  6 active torsions:
REMARK  status: ('A' for Active; 'I' for Inactive)
REMARK    1  A    between atoms: C_1  and  C_14
REMARK    2  A    between atoms: C_2  and  O_7
REMARK    3  A    between atoms: C_3  and  O_9
REMARK    4  A    between atoms: C_6  and  O_11
REMARK    5  A    between atoms: C_14  and  C_15
REMARK    6  A    between atoms: C_16  and  C_17
REMARK                            x       y       z     vdW  Elec       q    Type
REMARK                         _______ _______ _______ _____ _____    ______ ____
ROOT
ATOM      1  C   UNL     1      50.690  17.770   9.794  0.00  0.00    +0.000 A 
ATOM      2  C   UNL     1      49.756  17.291  10.733  0.00  0.00    +0.000 A 
ATOM      3  C   UNL     1      50.268  17.988   8.466  0.00  0.00    +0.000 A 
ATOM      4  C   UNL     1      48.444  17.020  10.318  0.00  0.00    +0.000 A 
ATOM      5  C   UNL     1      48.962  17.704   8.068  0.00  0.00    +0.000 A 
ATOM      6  C   UNL     1      48.059  17.215   8.997  0.00  0.00    +0.000 A 
ENDROOT
BRANCH   2   7
ATOM      7  O   UNL     1      50.133  17.174  12.050  0.00  0.00    +0.000 OA
ATOM      8  C   UNL     1      49.785  15.976  12.685  0.00  0.00    +0.000 C 
ENDBRANCH   2   7
BRANCH   3   9
ATOM      9  O   UNL     1      51.086  18.481   7.482  0.00  0.00    +0.000 OA
ATOM     10  H   UNL     1      50.582  18.563   6.642  0.00  0.00    +0.000 HD
ENDBRANCH   3   9
BRANCH   6  11
ATOM     11  O   UNL     1      46.787  16.941   8.594  0.00  0.00    +0.000 OA
ATOM     12  H   UNL     1      46.411  17.735   8.175  0.00  0.00    +0.000 HD
ENDBRANCH   6  11
BRANCH   1  14
ATOM     13  O   UNL     1      52.674  19.026   9.617  0.00  0.00    +0.000 OA
ATOM     14  C   UNL     1      52.107  18.065  10.126  0.00  0.00    +0.000 C 
BRANCH  14  15
ATOM     15  C   UNL     1      52.857  17.186  10.989  0.00  0.00    +0.000 C 
ATOM     16  C   UNL     1      53.476  16.464  11.724  0.00  0.00    +0.000 C 
BRANCH  16  17
ATOM     17  C   UNL     1      54.214  15.605  12.590  0.00  0.00    +0.000 A 
ATOM     18  C   UNL     1      55.568  15.846  12.818  0.00  0.00    +0.000 A 
ATOM     19  C   UNL     1      53.583  14.526  13.204  0.00  0.00    +0.000 A 
ATOM     20  C   UNL     1      56.290  15.006  13.663  0.00  0.00    +0.000 A 
ATOM     21  C   UNL     1      54.306  13.686  14.048  0.00  0.00    +0.000 A 
ATOM     22  C   UNL     1      55.659  13.927  14.277  0.00  0.00    +0.000 A 
ENDBRANCH  16  17
ENDBRANCH  14  15
ENDBRANCH   1  14
TORSDOF 6
ENDMDL
MODEL 8
REMARK VINA RESULT:      -4.9     18.064     20.367
REMARK  Name = 641785_Cardamonin.pdbqt.pdb
REMARK  6 active torsions:
REMARK  status: ('A' for Active; 'I' for Inactive)
REMARK    1  A    between atoms: C_1  and  C_14
REMARK    2  A    between atoms: C_2  and  O_7
REMARK    3  A    between atoms: C_3  and  O_9
REMARK    4  A    between atoms: C_6  and  O_11
REMARK    5  A    between atoms: C_14  and  C_15
REMARK    6  A    between atoms: C_16  and  C_17
REMARK                            x       y       z     vdW  Elec       q    Type
REMARK                         _______ _______ _______ _____ _____    ______ ____
ROOT
ATOM      1  C   UNL     1      50.977  -1.017   4.303  0.00  0.00    +0.000 A 
ATOM      2  C   UNL     1      51.778   0.131   4.153  0.00  0.00    +0.000 A 
ATOM      3  C   UNL     1      50.180  -1.436   3.218  0.00  0.00    +0.000 A 
ATOM      4  C   UNL     1      51.742   0.839   2.943  0.00  0.00    +0.000 A 
ATOM      5  C   UNL     1      50.149  -0.714   2.025  0.00  0.00    +0.000 A 
ATOM      6  C   UNL     1      50.927   0.425   1.898  0.00  0.00    +0.000 A 
ENDROOT
BRANCH   2   7
ATOM      7  O   UNL     1      52.634   0.486   5.170  0.00  0.00    +0.000 OA
ATOM      8  C   UNL     1      53.994   0.246   4.940  0.00  0.00    +0.000 C 
ENDBRANCH   2   7
BRANCH   3   9
ATOM      9  O   UNL     1      49.388  -2.556   3.246  0.00  0.00    +0.000 OA
ATOM     10  H   UNL     1      49.870  -3.291   3.685  0.00  0.00    +0.000 HD
ENDBRANCH   3   9
BRANCH   6  11
ATOM     11  O   UNL     1      50.885   1.120   0.728  0.00  0.00    +0.000 OA
ATOM     12  H   UNL     1      51.298   1.992   0.865  0.00  0.00    +0.000 HD
ENDBRANCH   6  11
BRANCH   1  14
ATOM     13  O   UNL     1      50.977  -3.047   5.497  0.00  0.00    +0.000 OA
ATOM     14  C   UNL     1      50.925  -1.823   5.549  0.00  0.00    +0.000 C 
BRANCH  14  15
ATOM     15  C   UNL     1      50.739  -1.184   6.829  0.00  0.00    +0.000 C 
ATOM     16  C   UNL     1      50.602  -0.655   7.900  0.00  0.00    +0.000 C 
BRANCH  16  17
ATOM     17  C   UNL     1      50.433  -0.027   9.169  0.00  0.00    +0.000 A 
ATOM     18  C   UNL     1      49.164   0.053   9.740  0.00  0.00    +0.000 A 
ATOM     19  C   UNL     1      51.534   0.506   9.834  0.00  0.00    +0.000 A 
ATOM     20  C   UNL     1      48.997   0.667  10.979  0.00  0.00    +0.000 A 
ATOM     21  C   UNL     1      51.367   1.120  11.073  0.00  0.00    +0.000 A 
ATOM     22  C   UNL     1      50.099   1.201  11.644  0.00  0.00    +0.000 A 
ENDBRANCH  16  17
ENDBRANCH  14  15
ENDBRANCH   1  14
TORSDOF 6
ENDMDL
MODEL 9
REMARK VINA RESULT:      -4.7     30.589     33.598
REMARK  Name = 641785_Cardamonin.pdbqt.pdb
REMARK  6 active torsions:
REMARK  status: ('A' for Active; 'I' for Inactive)
REMARK    1  A    between atoms: C_1  and  C_14
REMARK    2  A    between atoms: C_2  and  O_7
REMARK    3  A    between atoms: C_3  and  O_9
REMARK    4  A    between atoms: C_6  and  O_11
REMARK    5  A    between atoms: C_14  and  C_15
REMARK    6  A    between atoms: C_16  and  C_17
REMARK                            x       y       z     vdW  Elec       q    Type
REMARK                         _______ _______ _______ _____ _____    ______ ____
ROOT
ATOM      1  C   UNL     1      45.858  -9.531  -1.871  0.00  0.00    +0.000 A 
ATOM      2  C   UNL     1      46.734 -10.609  -1.640  0.00  0.00    +0.000 A 
ATOM      3  C   UNL     1      46.171  -8.271  -1.321  0.00  0.00    +0.000 A 
ATOM      4  C   UNL     1      47.876 -10.408  -0.850  0.00  0.00    +0.000 A 
ATOM      5  C   UNL     1      47.305  -8.091  -0.530  0.00  0.00    +0.000 A 
ATOM      6  C   UNL     1      48.148  -9.164  -0.294  0.00  0.00    +0.000 A 
ENDROOT
BRANCH   2   7
ATOM      7  O   UNL     1      46.489 -11.813  -2.258  0.00  0.00    +0.000 OA
ATOM      8  C   UNL     1      47.594 -12.657  -2.421  0.00  0.00    +0.000 C 
ENDBRANCH   2   7
BRANCH   3   9
ATOM      9  O   UNL     1      45.405  -7.149  -1.511  0.00  0.00    +0.000 OA
ATOM     10  H   UNL     1      45.523  -6.819  -2.429  0.00  0.00    +0.000 HD
ENDBRANCH   3   9
BRANCH   6  11
ATOM     11  O   UNL     1      49.251  -8.974   0.482  0.00  0.00    +0.000 OA
ATOM     12  H   UNL     1      49.043  -9.243   1.394  0.00  0.00    +0.000 HD
ENDBRANCH   6  11
BRANCH   1  14
ATOM     13  O   UNL     1      44.544  -9.133  -3.785  0.00  0.00    +0.000 OA
ATOM     14  C   UNL     1      44.613  -9.645  -2.673  0.00  0.00    +0.000 C 
BRANCH  14  15
ATOM     15  C   UNL     1      43.445 -10.291  -2.127  0.00  0.00    +0.000 C 
ATOM     16  C   UNL     1      42.461 -10.821  -1.683  0.00  0.00    +0.000 C 
BRANCH  16  17
ATOM     17  C   UNL     1      41.298 -11.451  -1.152  0.00  0.00    +0.000 A 
ATOM     18  C   UNL     1      40.715 -10.962   0.015  0.00  0.00    +0.000 A 
ATOM     19  C   UNL     1      40.747 -12.555  -1.799  0.00  0.00    +0.000 A 
ATOM     20  C   UNL     1      39.579 -11.578   0.536  0.00  0.00    +0.000 A 
ATOM     21  C   UNL     1      39.611 -13.171  -1.278  0.00  0.00    +0.000 A 
ATOM     22  C   UNL     1      39.029 -12.682  -0.111  0.00  0.00    +0.000 A 
ENDBRANCH  16  17
ENDBRANCH  14  15
ENDBRANCH   1  14
TORSDOF 6
ENDMDL
