REMARK  Name = 641785_Cardamonin.pdbqt.pdb
REMARK  6 active torsions:
REMARK  status: ('A' for Active; 'I' for Inactive)
REMARK    1  A    between atoms: C_1  and  C_14
REMARK    2  A    between atoms: C_2  and  O_7
REMARK    3  A    between atoms: C_3  and  O_9
REMARK    4  A    between atoms: C_6  and  O_11
REMARK    5  A    between atoms: C_14  and  C_15
REMARK    6  A    between atoms: C_16  and  C_17
REMARK                            x       y       z     vdW  Elec       q    Type
REMARK                         _______ _______ _______ _____ _____    ______ ____
ROOT
ATOM      1  C   UNL     1       1.719   0.414  -0.728  0.00  0.00    +0.000 A 
ATOM      2  C   UNL     1       1.832  -0.379   0.430  0.00  0.00    +0.000 A 
ATOM      3  C   UNL     1       2.845   1.140  -1.167  0.00  0.00    +0.000 A 
ATOM      4  C   UNL     1       3.049  -0.405   1.127  0.00  0.00    +0.000 A 
ATOM      5  C   UNL     1       4.044   1.111  -0.456  0.00  0.00    +0.000 A 
ATOM      6  C   UNL     1       4.136   0.342   0.692  0.00  0.00    +0.000 A 
ENDROOT
BRANCH   2   7
ATOM      7  O   UNL     1       0.770  -1.169   0.805  0.00  0.00    +0.000 OA
ATOM      8  C   UNL     1       0.854  -1.748   2.077  0.00  0.00    +0.000 C 
ENDBRANCH   2   7
BRANCH   3   9
ATOM      9  O   UNL     1       2.853   1.917  -2.298  0.00  0.00    +0.000 OA
ATOM     10  H   UNL     1       2.031   1.760  -2.813  0.00  0.00    +0.000 HD
ENDBRANCH   3   9
BRANCH   6  11
ATOM     11  O   UNL     1       5.313   0.324   1.377  0.00  0.00    +0.000 OA
ATOM     12  H   UNL     1       5.216  -0.255   2.154  0.00  0.00    +0.000 HD
ENDBRANCH   6  11
BRANCH   1  14
ATOM     13  O   UNL     1       0.511   0.911  -2.688  0.00  0.00    +0.000 OA
ATOM     14  C   UNL     1       0.470   0.528  -1.524  0.00  0.00    +0.000 C 
BRANCH  14  15
ATOM     15  C   UNL     1      -0.812   0.263  -0.919  0.00  0.00    +0.000 C 
ATOM     16  C   UNL     1      -1.889   0.054  -0.427  0.00  0.00    +0.000 C 
BRANCH  16  17
ATOM     17  C   UNL     1      -3.163  -0.197   0.162  0.00  0.00    +0.000 A 
ATOM     18  C   UNL     1      -3.265  -0.394   1.538  0.00  0.00    +0.000 A 
ATOM     19  C   UNL     1      -4.302  -0.247  -0.638  0.00  0.00    +0.000 A 
ATOM     20  C   UNL     1      -4.509  -0.641   2.114  0.00  0.00    +0.000 A 
ATOM     21  C   UNL     1      -5.546  -0.494  -0.061  0.00  0.00    +0.000 A 
ATOM     22  C   UNL     1      -5.648  -0.691   1.314  0.00  0.00    +0.000 A 
ENDBRANCH  16  17
ENDBRANCH  14  15
ENDBRANCH   1  14
TORSDOF 6
