MODEL 1
REMARK VINA RESULT:      -6.6      0.000      0.000
REMARK  Name = 6440856_Goniothalamin.pdbqt.pdb
REMARK  2 active torsions:
REMARK  status: ('A' for Active; 'I' for Inactive)
REMARK    1  A    between atoms: C_1  and  C_5
REMARK    2  A    between atoms: C_2  and  C_10
REMARK                            x       y       z     vdW  Elec       q    Type
REMARK                         _______ _______ _______ _____ _____    ______ ____
ROOT
ATOM      1  C   UNL     1      35.882  13.705  20.948  0.00  0.00    +0.000 C 
ATOM      2  C   UNL     1      36.361  14.752  20.609  0.00  0.00    +0.000 C 
ENDROOT
BRANCH   1   5
ATOM      3  O   UNL     1      33.987  12.148  20.895  0.00  0.00    +0.000 OA
ATOM      4  O   UNL     1      32.322  10.535  20.980  0.00  0.00    +0.000 OA
ATOM      5  C   UNL     1      35.316  12.471  21.344  0.00  0.00    +0.000 A 
ATOM      6  C   UNL     1      35.938  11.489  22.162  0.00  0.00    +0.000 A 
ATOM      7  C   UNL     1      35.406  10.153  22.627  0.00  0.00    +0.000 A 
ATOM      8  C   UNL     1      34.317  10.131  22.131  0.00  0.00    +0.000 A 
ATOM      9  C   UNL     1      33.437  10.924  21.294  0.00  0.00    +0.000 A 
ENDBRANCH   1   5
BRANCH   2  10
ATOM     10  C   UNL     1      36.931  15.996  20.206  0.00  0.00    +0.000 A 
ATOM     11  C   UNL     1      36.228  17.182  20.410  0.00  0.00    +0.000 A 
ATOM     12  C   UNL     1      38.189  16.024  19.609  0.00  0.00    +0.000 A 
ATOM     13  C   UNL     1      36.784  18.396  20.015  0.00  0.00    +0.000 A 
ATOM     14  C   UNL     1      38.745  17.239  19.216  0.00  0.00    +0.000 A 
ATOM     15  C   UNL     1      38.042  18.425  19.419  0.00  0.00    +0.000 A 
ENDBRANCH   2  10
TORSDOF 2
ENDMDL
MODEL 2
REMARK VINA RESULT:      -6.4      1.395      2.190
REMARK  Name = 6440856_Goniothalamin.pdbqt.pdb
REMARK  2 active torsions:
REMARK  status: ('A' for Active; 'I' for Inactive)
REMARK    1  A    between atoms: C_1  and  C_5
REMARK    2  A    between atoms: C_2  and  C_10
REMARK                            x       y       z     vdW  Elec       q    Type
REMARK                         _______ _______ _______ _____ _____    ______ ____
ROOT
ATOM      1  C   UNL     1      35.932  14.647  20.814  0.00  0.00    +0.000 C 
ATOM      2  C   UNL     1      36.497  15.627  20.412  0.00  0.00    +0.000 C 
ENDROOT
BRANCH   1   5
ATOM      3  O   UNL     1      36.024  12.271  21.419  0.00  0.00    +0.000 OA
ATOM      4  O   UNL     1      35.885  10.042  22.044  0.00  0.00    +0.000 OA
ATOM      5  C   UNL     1      35.271  13.492  21.291  0.00  0.00    +0.000 A 
ATOM      6  C   UNL     1      33.903  13.406  21.668  0.00  0.00    +0.000 A 
ATOM      7  C   UNL     1      33.125  12.218  22.183  0.00  0.00    +0.000 A 
ATOM      8  C   UNL     1      33.958  11.358  22.194  0.00  0.00    +0.000 A 
ATOM      9  C   UNL     1      35.358  11.134  21.891  0.00  0.00    +0.000 A 
ENDBRANCH   1   5
BRANCH   2  10
ATOM     10  C   UNL     1      37.167  16.792  19.933  0.00  0.00    +0.000 A 
ATOM     11  C   UNL     1      38.541  16.760  19.706  0.00  0.00    +0.000 A 
ATOM     12  C   UNL     1      36.446  17.960  19.694  0.00  0.00    +0.000 A 
ATOM     13  C   UNL     1      39.195  17.898  19.239  0.00  0.00    +0.000 A 
ATOM     14  C   UNL     1      37.101  19.097  19.227  0.00  0.00    +0.000 A 
ATOM     15  C   UNL     1      38.475  19.065  18.999  0.00  0.00    +0.000 A 
ENDBRANCH   2  10
TORSDOF 2
ENDMDL
MODEL 3
REMARK VINA RESULT:      -5.1     20.581     22.092
REMARK  Name = 6440856_Goniothalamin.pdbqt.pdb
REMARK  2 active torsions:
REMARK  status: ('A' for Active; 'I' for Inactive)
REMARK    1  A    between atoms: C_1  and  C_5
REMARK    2  A    between atoms: C_2  and  C_10
REMARK                            x       y       z     vdW  Elec       q    Type
REMARK                         _______ _______ _______ _____ _____    ______ ____
ROOT
ATOM      1  C   UNL     1      50.668   4.370   9.495  0.00  0.00    +0.000 C 
ATOM      2  C   UNL     1      50.387   3.225   9.267  0.00  0.00    +0.000 C 
ENDROOT
BRANCH   1   5
ATOM      3  O   UNL     1      50.612   6.728   8.819  0.00  0.00    +0.000 OA
ATOM      4  O   UNL     1      50.675   9.003   8.377  0.00  0.00    +0.000 OA
ATOM      5  C   UNL     1      51.002   5.716   9.767  0.00  0.00    +0.000 A 
ATOM      6  C   UNL     1      51.702   6.191  10.910  0.00  0.00    +0.000 A 
ATOM      7  C   UNL     1      52.096   7.603  11.274  0.00  0.00    +0.000 A 
ATOM      8  C   UNL     1      51.666   8.230  10.348  0.00  0.00    +0.000 A 
ATOM      9  C   UNL     1      50.949   8.057   9.100  0.00  0.00    +0.000 A 
ENDBRANCH   1   5
BRANCH   2  10
ATOM     10  C   UNL     1      50.053   1.865   8.996  0.00  0.00    +0.000 A 
ATOM     11  C   UNL     1      48.807   1.367   9.369  0.00  0.00    +0.000 A 
ATOM     12  C   UNL     1      50.974   1.037   8.357  0.00  0.00    +0.000 A 
ATOM     13  C   UNL     1      48.481   0.038   9.104  0.00  0.00    +0.000 A 
ATOM     14  C   UNL     1      50.647  -0.291   8.092  0.00  0.00    +0.000 A 
ATOM     15  C   UNL     1      49.401  -0.789   8.465  0.00  0.00    +0.000 A 
ENDBRANCH   2  10
TORSDOF 2
ENDMDL
MODEL 4
REMARK VINA RESULT:      -5.1      4.671      5.152
REMARK  Name = 6440856_Goniothalamin.pdbqt.pdb
REMARK  2 active torsions:
REMARK  status: ('A' for Active; 'I' for Inactive)
REMARK    1  A    between atoms: C_1  and  C_5
REMARK    2  A    between atoms: C_2  and  C_10
REMARK                            x       y       z     vdW  Elec       q    Type
REMARK                         _______ _______ _______ _____ _____    ______ ____
ROOT
ATOM      1  C   UNL     1      33.984  17.283  18.902  0.00  0.00    +0.000 C 
ATOM      2  C   UNL     1      35.088  17.750  18.968  0.00  0.00    +0.000 C 
ENDROOT
BRANCH   1   5
ATOM      3  O   UNL     1      31.927  16.916  17.615  0.00  0.00    +0.000 OA
ATOM      4  O   UNL     1      29.901  16.455  16.585  0.00  0.00    +0.000 OA
ATOM      5  C   UNL     1      32.682  16.735  18.828  0.00  0.00    +0.000 A 
ATOM      6  C   UNL     1      32.022  16.003  19.853  0.00  0.00    +0.000 A 
ATOM      7  C   UNL     1      30.643  15.388  19.854  0.00  0.00    +0.000 A 
ATOM      8  C   UNL     1      30.239  15.675  18.763  0.00  0.00    +0.000 A 
ATOM      9  C   UNL     1      30.639  16.369  17.554  0.00  0.00    +0.000 A 
ENDBRANCH   1   5
BRANCH   2  10
ATOM     10  C   UNL     1      36.399  18.304  19.047  0.00  0.00    +0.000 A 
ATOM     11  C   UNL     1      36.573  19.686  19.014  0.00  0.00    +0.000 A 
ATOM     12  C   UNL     1      37.505  17.463  19.156  0.00  0.00    +0.000 A 
ATOM     13  C   UNL     1      37.855  20.227  19.090  0.00  0.00    +0.000 A 
ATOM     14  C   UNL     1      38.786  18.005  19.232  0.00  0.00    +0.000 A 
ATOM     15  C   UNL     1      38.960  19.387  19.200  0.00  0.00    +0.000 A 
ENDBRANCH   2  10
TORSDOF 2
ENDMDL
MODEL 5
REMARK VINA RESULT:      -5.1     24.511     25.537
REMARK  Name = 6440856_Goniothalamin.pdbqt.pdb
REMARK  2 active torsions:
REMARK  status: ('A' for Active; 'I' for Inactive)
REMARK    1  A    between atoms: C_1  and  C_5
REMARK    2  A    between atoms: C_2  and  C_10
REMARK                            x       y       z     vdW  Elec       q    Type
REMARK                         _______ _______ _______ _____ _____    ______ ____
ROOT
ATOM      1  C   UNL     1      50.465   0.470   5.594  0.00  0.00    +0.000 C 
ATOM      2  C   UNL     1      50.260   0.496   6.777  0.00  0.00    +0.000 C 
ENDROOT
BRANCH   1   5
ATOM      3  O   UNL     1      51.726   1.290   3.656  0.00  0.00    +0.000 OA
ATOM      4  O   UNL     1      52.789   1.922   1.694  0.00  0.00    +0.000 OA
ATOM      5  C   UNL     1      50.703   0.436   4.201  0.00  0.00    +0.000 A 
ATOM      6  C   UNL     1      50.020  -0.376   3.254  0.00  0.00    +0.000 A 
ATOM      7  C   UNL     1      50.213  -0.472   1.759  0.00  0.00    +0.000 A 
ATOM      8  C   UNL     1      51.094   0.317   1.568  0.00  0.00    +0.000 A 
ATOM      9  C   UNL     1      51.952   1.248   2.275  0.00  0.00    +0.000 A 
ENDBRANCH   1   5
BRANCH   2  10
ATOM     10  C   UNL     1      50.016   0.527   8.181  0.00  0.00    +0.000 A 
ATOM     11  C   UNL     1      51.084   0.619   9.071  0.00  0.00    +0.000 A 
ATOM     12  C   UNL     1      48.710   0.467   8.662  0.00  0.00    +0.000 A 
ATOM     13  C   UNL     1      50.846   0.649  10.443  0.00  0.00    +0.000 A 
ATOM     14  C   UNL     1      48.472   0.497  10.034  0.00  0.00    +0.000 A 
ATOM     15  C   UNL     1      49.540   0.589  10.924  0.00  0.00    +0.000 A 
ENDBRANCH   2  10
TORSDOF 2
ENDMDL
MODEL 6
REMARK VINA RESULT:      -4.8     23.999     24.811
REMARK  Name = 6440856_Goniothalamin.pdbqt.pdb
REMARK  2 active torsions:
REMARK  status: ('A' for Active; 'I' for Inactive)
REMARK    1  A    between atoms: C_1  and  C_5
REMARK    2  A    between atoms: C_2  and  C_10
REMARK                            x       y       z     vdW  Elec       q    Type
REMARK                         _______ _______ _______ _____ _____    ______ ____
ROOT
ATOM      1  C   UNL     1      50.357  -0.120   7.781  0.00  0.00    +0.000 C 
ATOM      2  C   UNL     1      50.391  -0.364   6.606  0.00  0.00    +0.000 C 
ENDROOT
BRANCH   1   5
ATOM      3  O   UNL     1      51.551   0.403   9.860  0.00  0.00    +0.000 OA
ATOM      4  O   UNL     1      52.471   0.904  11.929  0.00  0.00    +0.000 OA
ATOM      5  C   UNL     1      50.312   0.167   9.165  0.00  0.00    +0.000 A 
ATOM      6  C   UNL     1      49.140   0.251   9.964  0.00  0.00    +0.000 A 
ATOM      7  C   UNL     1      49.005   0.551  11.439  0.00  0.00    +0.000 A 
ATOM      8  C   UNL     1      50.147   0.702  11.769  0.00  0.00    +0.000 A 
ATOM      9  C   UNL     1      51.493   0.686  11.230  0.00  0.00    +0.000 A 
ENDBRANCH   1   5
BRANCH   2  10
ATOM     10  C   UNL     1      50.433  -0.655   5.210  0.00  0.00    +0.000 A 
ATOM     11  C   UNL     1      50.347   0.379   4.281  0.00  0.00    +0.000 A 
ATOM     12  C   UNL     1      50.559  -1.974   4.779  0.00  0.00    +0.000 A 
ATOM     13  C   UNL     1      50.387   0.094   2.918  0.00  0.00    +0.000 A 
ATOM     14  C   UNL     1      50.599  -2.258   3.415  0.00  0.00    +0.000 A 
ATOM     15  C   UNL     1      50.513  -1.224   2.486  0.00  0.00    +0.000 A 
ENDBRANCH   2  10
TORSDOF 2
ENDMDL
MODEL 7
REMARK VINA RESULT:      -4.8     20.781     22.624
REMARK  Name = 6440856_Goniothalamin.pdbqt.pdb
REMARK  2 active torsions:
REMARK  status: ('A' for Active; 'I' for Inactive)
REMARK    1  A    between atoms: C_1  and  C_5
REMARK    2  A    between atoms: C_2  and  C_10
REMARK                            x       y       z     vdW  Elec       q    Type
REMARK                         _______ _______ _______ _____ _____    ______ ____
ROOT
ATOM      1  C   UNL     1      52.210   7.444   7.985  0.00  0.00    +0.000 C 
ATOM      2  C   UNL     1      51.778   7.053   9.034  0.00  0.00    +0.000 C 
ENDROOT
BRANCH   1   5
ATOM      3  O   UNL     1      54.138   8.088   6.610  0.00  0.00    +0.000 OA
ATOM      4  O   UNL     1      55.808   8.741   5.140  0.00  0.00    +0.000 OA
ATOM      5  C   UNL     1      52.716   7.908   6.748  0.00  0.00    +0.000 A 
ATOM      6  C   UNL     1      51.947   8.223   5.595  0.00  0.00    +0.000 A 
ATOM      7  C   UNL     1      52.407   8.720   4.244  0.00  0.00    +0.000 A 
ATOM      8  C   UNL     1      53.594   8.784   4.391  0.00  0.00    +0.000 A 
ATOM      9  C   UNL     1      54.626   8.548   5.381  0.00  0.00    +0.000 A 
ENDBRANCH   1   5
BRANCH   2  10
ATOM     10  C   UNL     1      51.265   6.589  10.282  0.00  0.00    +0.000 A 
ATOM     11  C   UNL     1      51.521   7.305  11.449  0.00  0.00    +0.000 A 
ATOM     12  C   UNL     1      50.509   5.419  10.330  0.00  0.00    +0.000 A 
ATOM     13  C   UNL     1      51.021   6.850  12.667  0.00  0.00    +0.000 A 
ATOM     14  C   UNL     1      50.009   4.966  11.549  0.00  0.00    +0.000 A 
ATOM     15  C   UNL     1      50.264   5.682  12.716  0.00  0.00    +0.000 A 
ENDBRANCH   2  10
TORSDOF 2
ENDMDL
MODEL 8
REMARK VINA RESULT:      -4.8     20.611     22.190
REMARK  Name = 6440856_Goniothalamin.pdbqt.pdb
REMARK  2 active torsions:
REMARK  status: ('A' for Active; 'I' for Inactive)
REMARK    1  A    between atoms: C_1  and  C_5
REMARK    2  A    between atoms: C_2  and  C_10
REMARK                            x       y       z     vdW  Elec       q    Type
REMARK                         _______ _______ _______ _____ _____    ______ ____
ROOT
ATOM      1  C   UNL     1      50.643   4.279   9.456  0.00  0.00    +0.000 C 
ATOM      2  C   UNL     1      50.369   3.133   9.229  0.00  0.00    +0.000 C 
ENDROOT
BRANCH   1   5
ATOM      3  O   UNL     1      51.611   5.944  10.977  0.00  0.00    +0.000 OA
ATOM      4  O   UNL     1      52.472   7.678  12.254  0.00  0.00    +0.000 OA
ATOM      5  C   UNL     1      50.970   5.628   9.727  0.00  0.00    +0.000 A 
ATOM      6  C   UNL     1      50.726   6.736   8.871  0.00  0.00    +0.000 A 
ATOM      7  C   UNL     1      51.042   8.199   9.083  0.00  0.00    +0.000 A 
ATOM      8  C   UNL     1      51.554   8.190  10.165  0.00  0.00    +0.000 A 
ATOM      9  C   UNL     1      51.929   7.283  11.233  0.00  0.00    +0.000 A 
ENDBRANCH   1   5
BRANCH   2  10
ATOM     10  C   UNL     1      50.043   1.771   8.958  0.00  0.00    +0.000 A 
ATOM     11  C   UNL     1      50.920   0.979   8.221  0.00  0.00    +0.000 A 
ATOM     12  C   UNL     1      48.847   1.235   9.431  0.00  0.00    +0.000 A 
ATOM     13  C   UNL     1      50.601  -0.351   7.957  0.00  0.00    +0.000 A 
ATOM     14  C   UNL     1      48.528  -0.095   9.166  0.00  0.00    +0.000 A 
ATOM     15  C   UNL     1      49.406  -0.887   8.430  0.00  0.00    +0.000 A 
ENDBRANCH   2  10
TORSDOF 2
ENDMDL
MODEL 9
REMARK VINA RESULT:      -4.8      5.627      8.467
REMARK  Name = 6440856_Goniothalamin.pdbqt.pdb
REMARK  2 active torsions:
REMARK  status: ('A' for Active; 'I' for Inactive)
REMARK    1  A    between atoms: C_1  and  C_5
REMARK    2  A    between atoms: C_2  and  C_10
REMARK                            x       y       z     vdW  Elec       q    Type
REMARK                         _______ _______ _______ _____ _____    ______ ____
ROOT
ATOM      1  C   UNL     1      38.573  21.313  19.996  0.00  0.00    +0.000 C 
ATOM      2  C   UNL     1      39.026  22.387  20.284  0.00  0.00    +0.000 C 
ENDROOT
BRANCH   1   5
ATOM      3  O   UNL     1      38.939  18.930  19.537  0.00  0.00    +0.000 OA
ATOM      4  O   UNL     1      39.054  16.662  19.071  0.00  0.00    +0.000 OA
ATOM      5  C   UNL     1      38.039  20.048  19.661  0.00  0.00    +0.000 A 
ATOM      6  C   UNL     1      36.667  19.754  19.428  0.00  0.00    +0.000 A 
ATOM      7  C   UNL     1      36.018  18.438  19.068  0.00  0.00    +0.000 A 
ATOM      8  C   UNL     1      36.958  17.697  19.028  0.00  0.00    +0.000 A 
ATOM      9  C   UNL     1      38.397  17.683  19.205  0.00  0.00    +0.000 A 
ENDBRANCH   1   5
BRANCH   2  10
ATOM     10  C   UNL     1      39.563  23.663  20.626  0.00  0.00    +0.000 A 
ATOM     11  C   UNL     1      39.384  24.172  21.911  0.00  0.00    +0.000 A 
ATOM     12  C   UNL     1      40.266  24.399  19.675  0.00  0.00    +0.000 A 
ATOM     13  C   UNL     1      39.909  25.419  22.244  0.00  0.00    +0.000 A 
ATOM     14  C   UNL     1      40.791  25.646  20.009  0.00  0.00    +0.000 A 
ATOM     15  C   UNL     1      40.612  26.154  21.293  0.00  0.00    +0.000 A 
ENDBRANCH   2  10
TORSDOF 2
ENDMDL
