MODEL 1
REMARK VINA RESULT:      -4.5      0.000      0.000
REMARK  Name = 649_Dihydrouracil.pdb
REMARK  0 active torsions:
REMARK  status: ('A' for Active; 'I' for Inactive)
REMARK                            x       y       z     vdW  Elec       q    Type
REMARK                         _______ _______ _______ _____ _____    ______ ____
ROOT
ATOM      1  O   UNL     1      35.347  19.137  18.946  0.00  0.00    +0.000 OA
ATOM      2  O   UNL     1      38.552  15.839  19.333  0.00  0.00    +0.000 OA
ATOM      3  N   UNL     1      39.274  18.009  19.166  0.00  0.00    +0.000 N 
ATOM      4  N   UNL     1      36.972  17.497  19.140  0.00  0.00    +0.000 N 
ATOM      5  C   UNL     1      38.996  19.314  19.043  0.00  0.00    +0.000 A 
ATOM      6  C   UNL     1      37.579  19.782  18.960  0.00  0.00    +0.000 A 
ATOM      7  C   UNL     1      36.522  18.811  19.012  0.00  0.00    +0.000 A 
ATOM      8  C   UNL     1      38.289  17.031  19.221  0.00  0.00    +0.000 A 
ATOM      9  H   UNL     1      40.237  17.703  19.223  0.00  0.00    +0.000 HD
ATOM     10  H   UNL     1      36.254  16.791  19.179  0.00  0.00    +0.000 HD
ENDROOT
TORSDOF 0
ENDMDL
MODEL 2
REMARK VINA RESULT:      -4.4     18.304     19.552
REMARK  Name = 649_Dihydrouracil.pdb
REMARK  0 active torsions:
REMARK  status: ('A' for Active; 'I' for Inactive)
REMARK                            x       y       z     vdW  Elec       q    Type
REMARK                         _______ _______ _______ _____ _____    ______ ____
ROOT
ATOM      1  O   UNL     1      42.889  -0.684  15.444  0.00  0.00    +0.000 OA
ATOM      2  O   UNL     1      39.205   1.582  13.833  0.00  0.00    +0.000 OA
ATOM      3  N   UNL     1      40.250   0.109  12.419  0.00  0.00    +0.000 N 
ATOM      4  N   UNL     1      41.042   0.443  14.615  0.00  0.00    +0.000 N 
ATOM      5  C   UNL     1      41.225  -0.781  12.191  0.00  0.00    +0.000 A 
ATOM      6  C   UNL     1      42.216  -1.109  13.260  0.00  0.00    +0.000 A 
ATOM      7  C   UNL     1      42.106  -0.455  14.534  0.00  0.00    +0.000 A 
ATOM      8  C   UNL     1      40.100   0.769  13.633  0.00  0.00    +0.000 A 
ATOM      9  H   UNL     1      39.583   0.324  11.688  0.00  0.00    +0.000 HD
ATOM     10  H   UNL     1      40.937   0.920  15.497  0.00  0.00    +0.000 HD
ENDROOT
TORSDOF 0
ENDMDL
MODEL 3
REMARK VINA RESULT:      -4.3      0.983      2.903
REMARK  Name = 649_Dihydrouracil.pdb
REMARK  0 active torsions:
REMARK  status: ('A' for Active; 'I' for Inactive)
REMARK                            x       y       z     vdW  Elec       q    Type
REMARK                         _______ _______ _______ _____ _____    ______ ____
ROOT
ATOM      1  O   UNL     1      38.498  15.746  19.378  0.00  0.00    +0.000 OA
ATOM      2  O   UNL     1      35.339  19.051  18.754  0.00  0.00    +0.000 OA
ATOM      3  N   UNL     1      37.533  19.696  18.931  0.00  0.00    +0.000 N 
ATOM      4  N   UNL     1      36.929  17.420  19.065  0.00  0.00    +0.000 N 
ATOM      5  C   UNL     1      38.823  19.375  19.096  0.00  0.00    +0.000 A 
ATOM      6  C   UNL     1      39.232  17.947  19.263  0.00  0.00    +0.000 A 
ATOM      7  C   UNL     1      38.221  16.928  19.245  0.00  0.00    +0.000 A 
ATOM      8  C   UNL     1      36.517  18.748  18.906  0.00  0.00    +0.000 A 
ATOM      9  H   UNL     1      37.266  20.666  18.817  0.00  0.00    +0.000 HD
ATOM     10  H   UNL     1      36.195  16.729  19.048  0.00  0.00    +0.000 HD
ENDROOT
TORSDOF 0
ENDMDL
MODEL 4
REMARK VINA RESULT:      -4.3     19.857     21.198
REMARK  Name = 649_Dihydrouracil.pdb
REMARK  0 active torsions:
REMARK  status: ('A' for Active; 'I' for Inactive)
REMARK                            x       y       z     vdW  Elec       q    Type
REMARK                         _______ _______ _______ _____ _____    ______ ____
ROOT
ATOM      1  O   UNL     1      40.966  -3.748  13.993  0.00  0.00    +0.000 OA
ATOM      2  O   UNL     1      39.154   0.316  12.770  0.00  0.00    +0.000 OA
ATOM      3  N   UNL     1      41.067  -0.360  11.702  0.00  0.00    +0.000 N 
ATOM      4  N   UNL     1      40.072  -1.705  13.364  0.00  0.00    +0.000 N 
ATOM      5  C   UNL     1      42.036  -1.268  11.531  0.00  0.00    +0.000 A 
ATOM      6  C   UNL     1      42.048  -2.525  12.340  0.00  0.00    +0.000 A 
ATOM      7  C   UNL     1      41.005  -2.741  13.303  0.00  0.00    +0.000 A 
ATOM      8  C   UNL     1      40.036  -0.521  12.620  0.00  0.00    +0.000 A 
ATOM      9  H   UNL     1      41.068   0.488  11.148  0.00  0.00    +0.000 HD
ATOM     10  H   UNL     1      39.327  -1.826  14.031  0.00  0.00    +0.000 HD
ENDROOT
TORSDOF 0
ENDMDL
MODEL 5
REMARK VINA RESULT:      -3.8     15.070     16.091
REMARK  Name = 649_Dihydrouracil.pdb
REMARK  0 active torsions:
REMARK  status: ('A' for Active; 'I' for Inactive)
REMARK                            x       y       z     vdW  Elec       q    Type
REMARK                         _______ _______ _______ _____ _____    ______ ____
ROOT
ATOM      1  O   UNL     1      51.764  16.972   9.351  0.00  0.00    +0.000 OA
ATOM      2  O   UNL     1      48.389  17.958   6.363  0.00  0.00    +0.000 OA
ATOM      3  N   UNL     1      47.784  17.392   8.501  0.00  0.00    +0.000 N 
ATOM      4  N   UNL     1      50.055  17.464   7.867  0.00  0.00    +0.000 N 
ATOM      5  C   UNL     1      48.131  17.031   9.743  0.00  0.00    +0.000 A 
ATOM      6  C   UNL     1      49.570  16.864  10.109  0.00  0.00    +0.000 A 
ATOM      7  C   UNL     1      50.574  17.095   9.108  0.00  0.00    +0.000 A 
ATOM      8  C   UNL     1      48.715  17.628   7.497  0.00  0.00    +0.000 A 
ATOM      9  H   UNL     1      46.806  17.504   8.264  0.00  0.00    +0.000 HD
ATOM     10  H   UNL     1      50.733  17.634   7.141  0.00  0.00    +0.000 HD
ENDROOT
TORSDOF 0
ENDMDL
MODEL 6
REMARK VINA RESULT:      -3.1     26.186     26.408
REMARK  Name = 649_Dihydrouracil.pdb
REMARK  0 active torsions:
REMARK  status: ('A' for Active; 'I' for Inactive)
REMARK                            x       y       z     vdW  Elec       q    Type
REMARK                         _______ _______ _______ _____ _____    ______ ____
ROOT
ATOM      1  O   UNL     1      49.940  13.967  -3.996  0.00  0.00    +0.000 OA
ATOM      2  O   UNL     1      45.947  15.414  -5.800  0.00  0.00    +0.000 OA
ATOM      3  N   UNL     1      46.067  13.236  -5.092  0.00  0.00    +0.000 N 
ATOM      4  N   UNL     1      47.927  14.673  -4.898  0.00  0.00    +0.000 N 
ATOM      5  C   UNL     1      46.770  12.235  -4.546  0.00  0.00    +0.000 A 
ATOM      6  C   UNL     1      48.188  12.446  -4.126  0.00  0.00    +0.000 A 
ATOM      7  C   UNL     1      48.785  13.738  -4.319  0.00  0.00    +0.000 A 
ATOM      8  C   UNL     1      46.597  14.504  -5.300  0.00  0.00    +0.000 A 
ATOM      9  H   UNL     1      45.106  13.082  -5.372  0.00  0.00    +0.000 HD
ATOM     10  H   UNL     1      48.316  15.591  -5.047  0.00  0.00    +0.000 HD
ENDROOT
TORSDOF 0
ENDMDL
MODEL 7
REMARK VINA RESULT:      -3.0      3.104      4.296
REMARK  Name = 649_Dihydrouracil.pdb
REMARK  0 active torsions:
REMARK  status: ('A' for Active; 'I' for Inactive)
REMARK                            x       y       z     vdW  Elec       q    Type
REMARK                         _______ _______ _______ _____ _____    ______ ____
ROOT
ATOM      1  O   UNL     1      39.247  19.640  19.346  0.00  0.00    +0.000 OA
ATOM      2  O   UNL     1      35.023  21.206  18.349  0.00  0.00    +0.000 OA
ATOM      3  N   UNL     1      36.341  22.497  19.711  0.00  0.00    +0.000 N 
ATOM      4  N   UNL     1      37.130  20.444  18.858  0.00  0.00    +0.000 N 
ATOM      5  C   UNL     1      37.501  22.689  20.352  0.00  0.00    +0.000 A 
ATOM      6  C   UNL     1      38.598  21.679  20.253  0.00  0.00    +0.000 A 
ATOM      7  C   UNL     1      38.387  20.499  19.461  0.00  0.00    +0.000 A 
ATOM      8  C   UNL     1      36.087  21.374  18.932  0.00  0.00    +0.000 A 
ATOM      9  H   UNL     1      35.605  23.188  19.784  0.00  0.00    +0.000 HD
ATOM     10  H   UNL     1      36.950  19.628  18.294  0.00  0.00    +0.000 HD
ENDROOT
TORSDOF 0
ENDMDL
MODEL 8
REMARK VINA RESULT:      -3.0     34.310     35.426
REMARK  Name = 649_Dihydrouracil.pdb
REMARK  0 active torsions:
REMARK  status: ('A' for Active; 'I' for Inactive)
REMARK                            x       y       z     vdW  Elec       q    Type
REMARK                         _______ _______ _______ _____ _____    ______ ____
ROOT
ATOM      1  O   UNL     1      45.847 -11.709  -0.651  0.00  0.00    +0.000 OA
ATOM      2  O   UNL     1      45.934  -7.151  -1.365  0.00  0.00    +0.000 OA
ATOM      3  N   UNL     1      44.178  -8.332  -2.248  0.00  0.00    +0.000 N 
ATOM      4  N   UNL     1      45.871  -9.422  -1.021  0.00  0.00    +0.000 N 
ATOM      5  C   UNL     1      43.549  -9.500  -2.438  0.00  0.00    +0.000 A 
ATOM      6  C   UNL     1      44.114 -10.764  -1.877  0.00  0.00    +0.000 A 
ATOM      7  C   UNL     1      45.340 -10.707  -1.132  0.00  0.00    +0.000 A 
ATOM      8  C   UNL     1      45.365  -8.223  -1.534  0.00  0.00    +0.000 A 
ATOM      9  H   UNL     1      43.786  -7.481  -2.632  0.00  0.00    +0.000 HD
ATOM     10  H   UNL     1      46.733  -9.348  -0.503  0.00  0.00    +0.000 HD
ENDROOT
TORSDOF 0
ENDMDL
MODEL 9
REMARK VINA RESULT:      -3.0      6.585      7.816
REMARK  Name = 649_Dihydrouracil.pdb
REMARK  0 active torsions:
REMARK  status: ('A' for Active; 'I' for Inactive)
REMARK                            x       y       z     vdW  Elec       q    Type
REMARK                         _______ _______ _______ _____ _____    ______ ____
ROOT
ATOM      1  O   UNL     1      35.642   9.874  23.978  0.00  0.00    +0.000 OA
ATOM      2  O   UNL     1      35.936  12.098  19.946  0.00  0.00    +0.000 OA
ATOM      3  N   UNL     1      35.827  13.366  21.853  0.00  0.00    +0.000 N 
ATOM      4  N   UNL     1      35.789  11.010  21.965  0.00  0.00    +0.000 N 
ATOM      5  C   UNL     1      35.741  13.441  23.188  0.00  0.00    +0.000 A 
ATOM      6  C   UNL     1      35.671  12.198  24.014  0.00  0.00    +0.000 A 
ATOM      7  C   UNL     1      35.698  10.922  23.354  0.00  0.00    +0.000 A 
ATOM      8  C   UNL     1      35.857  12.158  21.167  0.00  0.00    +0.000 A 
ATOM      9  H   UNL     1      35.875  14.214  21.304  0.00  0.00    +0.000 HD
ATOM     10  H   UNL     1      35.810  10.132  21.471  0.00  0.00    +0.000 HD
ENDROOT
TORSDOF 0
ENDMDL
