MODEL 1
REMARK VINA RESULT:      -9.3      0.000      0.000
REMARK  Name = 6509753_ManzamineA.pdbqt.pdb
REMARK  2 active torsions:
REMARK  status: ('A' for Active; 'I' for Inactive)
REMARK    1  A    between atoms: C_7  and  O_42
REMARK    2  A    between atoms: C_11  and  C_30
REMARK                            x       y       z     vdW  Elec       q    Type
REMARK                         _______ _______ _______ _____ _____    ______ ____
ROOT
ATOM      1  N   UNL     1      52.140  -2.436   6.757  0.00  0.00    +0.000 N 
ATOM      2  N   UNL     1      48.566  -0.014   9.248  0.00  0.00    +0.000 N 
ATOM      3  C   UNL     1      50.653  -0.465   7.322  0.00  0.00    +0.000 C 
ATOM      4  C   UNL     1      52.044  -1.156   7.505  0.00  0.00    +0.000 C 
ATOM      5  C   UNL     1      50.601   1.050   6.863  0.00  0.00    +0.000 C 
ATOM      6  C   UNL     1      50.171  -1.346   6.262  0.00  0.00    +0.000 C 
ATOM      7  C   UNL     1      53.300  -0.284   7.588  0.00  0.00    +0.000 C 
ATOM      8  C   UNL     1      49.748  -0.579   8.519  0.00  0.00    +0.000 C 
ATOM      9  C   UNL     1      50.845  -2.563   6.051  0.00  0.00    +0.000 C 
ATOM     10  C   UNL     1      49.458   1.760   7.381  0.00  0.00    +0.000 C 
ATOM     11  C   UNL     1      51.870   1.750   6.721  0.00  0.00    +0.000 C 
ATOM     12  C   UNL     1      52.862   1.010   7.105  0.00  0.00    +0.000 C 
ATOM     13  C   UNL     1      48.558   1.261   8.515  0.00  0.00    +0.000 C 
ATOM     14  C   UNL     1      52.426  -3.569   7.640  0.00  0.00    +0.000 C 
ATOM     15  C   UNL     1      53.826  -0.276   8.949  0.00  0.00    +0.000 C 
ATOM     16  C   UNL     1      50.224  -3.832   5.853  0.00  0.00    +0.000 C 
ATOM     17  C   UNL     1      48.974   0.250  10.618  0.00  0.00    +0.000 C 
ATOM     18  C   UNL     1      52.332  -4.996   8.214  0.00  0.00    +0.000 C 
ATOM     19  C   UNL     1      54.216  -0.194  10.427  0.00  0.00    +0.000 C 
ATOM     20  C   UNL     1      49.987  -4.994   6.050  0.00  0.00    +0.000 C 
ATOM     21  C   UNL     1      51.469  -6.222   7.924  0.00  0.00    +0.000 C 
ATOM     22  C   UNL     1      49.567   0.449  12.015  0.00  0.00    +0.000 C 
ATOM     23  C   UNL     1      50.359  -6.224   6.879  0.00  0.00    +0.000 C 
ATOM     24  C   UNL     1      54.105  -0.014  11.939  0.00  0.00    +0.000 C 
ATOM     25  C   UNL     1      50.605   0.520  13.132  0.00  0.00    +0.000 C 
ATOM     26  C   UNL     1      52.067   0.419  13.533  0.00  0.00    +0.000 C 
ATOM     27  C   UNL     1      53.431   0.182  12.908  0.00  0.00    +0.000 C 
ENDROOT
BRANCH  11  30
ATOM     28  N   UNL     1      52.361   3.501   5.115  0.00  0.00    +0.000 NA
ATOM     29  N   UNL     1      51.598   4.075   8.690  0.00  0.00    +0.000 N 
ATOM     30  C   UNL     1      52.049   3.156   6.385  0.00  0.00    +0.000 A 
ATOM     31  C   UNL     1      51.916   4.148   7.353  0.00  0.00    +0.000 A 
ATOM     32  C   UNL     1      52.100   5.498   7.050  0.00  0.00    +0.000 A 
ATOM     33  C   UNL     1      52.537   4.810   4.829  0.00  0.00    +0.000 A 
ATOM     34  C   UNL     1      52.427   5.857   5.733  0.00  0.00    +0.000 A 
ATOM     35  C   UNL     1      51.891   6.241   8.253  0.00  0.00    +0.000 A 
ATOM     36  C   UNL     1      51.580   5.327   9.257  0.00  0.00    +0.000 A 
ATOM     37  C   UNL     1      51.936   7.610   8.574  0.00  0.00    +0.000 A 
ATOM     38  C   UNL     1      51.308   5.708  10.575  0.00  0.00    +0.000 A 
ATOM     39  C   UNL     1      51.669   8.010   9.885  0.00  0.00    +0.000 A 
ATOM     40  C   UNL     1      51.360   7.073  10.864  0.00  0.00    +0.000 A 
ATOM     41  H   UNL     1      51.395   3.220   9.190  0.00  0.00    +0.000 HD
ENDBRANCH  11  30
BRANCH   7  42
ATOM     42  O   UNL     1      54.305  -0.759   6.705  0.00  0.00    +0.000 OA
ATOM     43  H   UNL     1      55.006  -1.129   7.269  0.00  0.00    +0.000 HD
ENDBRANCH   7  42
TORSDOF 2
ENDMDL
MODEL 2
REMARK VINA RESULT:      -8.6      2.204      7.561
REMARK  Name = 6509753_ManzamineA.pdbqt.pdb
REMARK  2 active torsions:
REMARK  status: ('A' for Active; 'I' for Inactive)
REMARK    1  A    between atoms: C_7  and  O_42
REMARK    2  A    between atoms: C_11  and  C_30
REMARK                            x       y       z     vdW  Elec       q    Type
REMARK                         _______ _______ _______ _____ _____    ______ ____
ROOT
ATOM      1  N   UNL     1      53.514   1.025  12.086  0.00  0.00    +0.000 N 
ATOM      2  N   UNL     1      49.540   3.721  10.750  0.00  0.00    +0.000 N 
ATOM      3  C   UNL     1      51.463   1.583  10.710  0.00  0.00    +0.000 C 
ATOM      4  C   UNL     1      53.021   1.643  10.829  0.00  0.00    +0.000 C 
ATOM      5  C   UNL     1      50.814   0.982   9.395  0.00  0.00    +0.000 C 
ATOM      6  C   UNL     1      51.246   0.696  11.849  0.00  0.00    +0.000 C 
ATOM      7  C   UNL     1      53.868   1.462   9.566  0.00  0.00    +0.000 C 
ATOM      8  C   UNL     1      50.776   2.898  10.960  0.00  0.00    +0.000 C 
ATOM      9  C   UNL     1      52.300   0.521  12.765  0.00  0.00    +0.000 C 
ATOM     10  C   UNL     1      49.542   1.575   9.069  0.00  0.00    +0.000 C 
ATOM     11  C   UNL     1      51.717   0.594   8.320  0.00  0.00    +0.000 C 
ATOM     12  C   UNL     1      52.942   0.913   8.597  0.00  0.00    +0.000 C 
ATOM     13  C   UNL     1      48.996   2.868   9.683  0.00  0.00    +0.000 C 
ATOM     14  C   UNL     1      54.277   1.972  12.903  0.00  0.00    +0.000 C 
ATOM     15  C   UNL     1      54.475   2.730   9.173  0.00  0.00    +0.000 C 
ATOM     16  C   UNL     1      52.176   0.542  14.187  0.00  0.00    +0.000 C 
ATOM     17  C   UNL     1      49.944   4.987  10.163  0.00  0.00    +0.000 C 
ATOM     18  C   UNL     1      54.769   2.697  14.169  0.00  0.00    +0.000 C 
ATOM     19  C   UNL     1      54.940   4.123   8.744  0.00  0.00    +0.000 C 
ATOM     20  C   UNL     1      52.403   0.888  15.315  0.00  0.00    +0.000 C 
ATOM     21  C   UNL     1      54.396   2.658  15.650  0.00  0.00    +0.000 C 
ATOM     22  C   UNL     1      50.546   6.261   9.564  0.00  0.00    +0.000 C 
ATOM     23  C   UNL     1      53.276   1.781  16.198  0.00  0.00    +0.000 C 
ATOM     24  C   UNL     1      54.908   5.609   8.396  0.00  0.00    +0.000 C 
ATOM     25  C   UNL     1      51.581   7.212   8.968  0.00  0.00    +0.000 C 
ATOM     26  C   UNL     1      53.007   7.416   8.484  0.00  0.00    +0.000 C 
ATOM     27  C   UNL     1      54.300   6.637   8.311  0.00  0.00    +0.000 C 
ENDROOT
BRANCH  11  30
ATOM     28  N   UNL     1      51.237   0.954   5.970  0.00  0.00    +0.000 NA
ATOM     29  N   UNL     1      51.081  -2.327   7.673  0.00  0.00    +0.000 N 
ATOM     30  C   UNL     1      51.333   0.094   7.008  0.00  0.00    +0.000 A 
ATOM     31  C   UNL     1      51.049  -1.256   6.810  0.00  0.00    +0.000 A 
ATOM     32  C   UNL     1      50.665  -1.748   5.562  0.00  0.00    +0.000 A 
ATOM     33  C   UNL     1      50.865   0.470   4.765  0.00  0.00    +0.000 A 
ATOM     34  C   UNL     1      50.563  -0.855   4.484  0.00  0.00    +0.000 A 
ATOM     35  C   UNL     1      50.455  -3.155   5.701  0.00  0.00    +0.000 A 
ATOM     36  C   UNL     1      50.722  -3.486   7.028  0.00  0.00    +0.000 A 
ATOM     37  C   UNL     1      50.065  -4.175   4.814  0.00  0.00    +0.000 A 
ATOM     38  C   UNL     1      50.621  -4.790   7.522  0.00  0.00    +0.000 A 
ATOM     39  C   UNL     1      49.957  -5.485   5.289  0.00  0.00    +0.000 A 
ATOM     40  C   UNL     1      50.232  -5.782   6.619  0.00  0.00    +0.000 A 
ATOM     41  H   UNL     1      51.341  -2.275   8.649  0.00  0.00    +0.000 HD
ENDBRANCH  11  30
BRANCH   7  42
ATOM     42  O   UNL     1      54.894   0.503   9.778  0.00  0.00    +0.000 OA
ATOM     43  H   UNL     1      54.668  -0.260   9.219  0.00  0.00    +0.000 HD
ENDBRANCH   7  42
TORSDOF 2
ENDMDL
MODEL 3
REMARK VINA RESULT:      -8.2      3.348      6.875
REMARK  Name = 6509753_ManzamineA.pdbqt.pdb
REMARK  2 active torsions:
REMARK  status: ('A' for Active; 'I' for Inactive)
REMARK    1  A    between atoms: C_7  and  O_42
REMARK    2  A    between atoms: C_11  and  C_30
REMARK                            x       y       z     vdW  Elec       q    Type
REMARK                         _______ _______ _______ _____ _____    ______ ____
ROOT
ATOM      1  N   UNL     1      50.825   0.150   8.706  0.00  0.00    +0.000 N 
ATOM      2  N   UNL     1      55.322   2.283   8.974  0.00  0.00    +0.000 N 
ATOM      3  C   UNL     1      52.989   0.834   9.829  0.00  0.00    +0.000 C 
ATOM      4  C   UNL     1      51.477   1.151   9.589  0.00  0.00    +0.000 C 
ATOM      5  C   UNL     1      53.536   0.768  11.314  0.00  0.00    +0.000 C 
ATOM      6  C   UNL     1      52.977  -0.494   9.220  0.00  0.00    +0.000 C 
ATOM      7  C   UNL     1      50.651   1.733  10.738  0.00  0.00    +0.000 C 
ATOM      8  C   UNL     1      53.933   1.726   9.068  0.00  0.00    +0.000 C 
ATOM      9  C   UNL     1      51.882  -0.842   8.407  0.00  0.00    +0.000 C 
ATOM     10  C   UNL     1      54.915   1.171  11.429  0.00  0.00    +0.000 C 
ATOM     11  C   UNL     1      52.605   1.098  12.385  0.00  0.00    +0.000 C 
ATOM     12  C   UNL     1      51.468   1.501  11.912  0.00  0.00    +0.000 C 
ATOM     13  C   UNL     1      55.705   1.909  10.344  0.00  0.00    +0.000 C 
ATOM     14  C   UNL     1      50.257   0.764   7.504  0.00  0.00    +0.000 C 
ATOM     15  C   UNL     1      50.340   3.137  10.484  0.00  0.00    +0.000 C 
ATOM     16  C   UNL     1      51.963  -1.486   7.137  0.00  0.00    +0.000 C 
ATOM     17  C   UNL     1      55.216   3.731   8.909  0.00  0.00    +0.000 C 
ATOM     18  C   UNL     1      49.892   0.927   6.016  0.00  0.00    +0.000 C 
ATOM     19  C   UNL     1      50.197   4.637  10.217  0.00  0.00    +0.000 C 
ATOM     20  C   UNL     1      51.781  -1.644   5.960  0.00  0.00    +0.000 C 
ATOM     21  C   UNL     1      50.201   0.152   4.737  0.00  0.00    +0.000 C 
ATOM     22  C   UNL     1      54.918   5.231   8.836  0.00  0.00    +0.000 C 
ATOM     23  C   UNL     1      51.091  -1.085   4.714  0.00  0.00    +0.000 C 
ATOM     24  C   UNL     1      50.556   6.079   9.870  0.00  0.00    +0.000 C 
ATOM     25  C   UNL     1      54.129   6.537   8.875  0.00  0.00    +0.000 C 
ATOM     26  C   UNL     1      52.795   7.223   9.118  0.00  0.00    +0.000 C 
ATOM     27  C   UNL     1      51.372   6.887   9.530  0.00  0.00    +0.000 C 
ENDROOT
BRANCH  11  30
ATOM     28  N   UNL     1      52.808   0.061  14.568  0.00  0.00    +0.000 NA
ATOM     29  N   UNL     1      53.499   3.626  13.857  0.00  0.00    +0.000 N 
ATOM     30  C   UNL     1      52.914   1.172  13.806  0.00  0.00    +0.000 A 
ATOM     31  C   UNL     1      53.303   2.374  14.394  0.00  0.00    +0.000 A 
ATOM     32  C   UNL     1      53.587   2.465  15.757  0.00  0.00    +0.000 A 
ATOM     33  C   UNL     1      53.085   0.157  15.887  0.00  0.00    +0.000 A 
ATOM     34  C   UNL     1      53.475   1.312  16.550  0.00  0.00    +0.000 A 
ATOM     35  C   UNL     1      53.953   3.818  16.030  0.00  0.00    +0.000 A 
ATOM     36  C   UNL     1      53.889   4.518  14.827  0.00  0.00    +0.000 A 
ATOM     37  C   UNL     1      54.336   4.509  17.195  0.00  0.00    +0.000 A 
ATOM     38  C   UNL     1      54.190   5.879  14.721  0.00  0.00    +0.000 A 
ATOM     39  C   UNL     1      54.640   5.870  17.109  0.00  0.00    +0.000 A 
ATOM     40  C   UNL     1      54.567   6.539  15.893  0.00  0.00    +0.000 A 
ATOM     41  H   UNL     1      53.382   3.860  12.880  0.00  0.00    +0.000 HD
ENDBRANCH  11  30
BRANCH   7  42
ATOM     42  O   UNL     1      49.438   1.013  10.905  0.00  0.00    +0.000 OA
ATOM     43  H   UNL     1      48.760   1.675  11.123  0.00  0.00    +0.000 HD
ENDBRANCH   7  42
TORSDOF 2
ENDMDL
MODEL 4
REMARK VINA RESULT:      -8.1      1.707      2.519
REMARK  Name = 6509753_ManzamineA.pdbqt.pdb
REMARK  2 active torsions:
REMARK  status: ('A' for Active; 'I' for Inactive)
REMARK    1  A    between atoms: C_7  and  O_42
REMARK    2  A    between atoms: C_11  and  C_30
REMARK                            x       y       z     vdW  Elec       q    Type
REMARK                         _______ _______ _______ _____ _____    ______ ____
ROOT
ATOM      1  N   UNL     1      52.217  -0.610   7.184  0.00  0.00    +0.000 N 
ATOM      2  N   UNL     1      49.260   0.449  11.054  0.00  0.00    +0.000 N 
ATOM      3  C   UNL     1      50.847   0.889   8.696  0.00  0.00    +0.000 C 
ATOM      4  C   UNL     1      52.262   0.333   8.331  0.00  0.00    +0.000 C 
ATOM      5  C   UNL     1      50.643   2.456   8.813  0.00  0.00    +0.000 C 
ATOM      6  C   UNL     1      50.155   0.360   7.524  0.00  0.00    +0.000 C 
ATOM      7  C   UNL     1      53.475   1.260   8.444  0.00  0.00    +0.000 C 
ATOM      8  C   UNL     1      50.254   0.289   9.942  0.00  0.00    +0.000 C 
ATOM      9  C   UNL     1      50.797  -0.638   6.768  0.00  0.00    +0.000 C 
ATOM     10  C   UNL     1      49.633   2.826   9.772  0.00  0.00    +0.000 C 
ATOM     11  C   UNL     1      51.821   3.298   8.657  0.00  0.00    +0.000 C 
ATOM     12  C   UNL     1      52.897   2.585   8.543  0.00  0.00    +0.000 C 
ATOM     13  C   UNL     1      49.041   1.886  10.827  0.00  0.00    +0.000 C 
ATOM     14  C   UNL     1      52.738  -1.933   7.539  0.00  0.00    +0.000 C 
ATOM     15  C   UNL     1      54.307   0.876   9.580  0.00  0.00    +0.000 C 
ATOM     16  C   UNL     1      50.186  -1.831   6.279  0.00  0.00    +0.000 C 
ATOM     17  C   UNL     1      49.971   0.289  12.312  0.00  0.00    +0.000 C 
ATOM     18  C   UNL     1      52.825  -3.470   7.589  0.00  0.00    +0.000 C 
ATOM     19  C   UNL     1      55.032   0.508  10.877  0.00  0.00    +0.000 C 
ATOM     20  C   UNL     1      50.037  -3.011   6.107  0.00  0.00    +0.000 C 
ATOM     21  C   UNL     1      51.955  -4.619   7.083  0.00  0.00    +0.000 C 
ATOM     22  C   UNL     1      50.871   0.080  13.533  0.00  0.00    +0.000 C 
ATOM     23  C   UNL     1      50.631  -4.397   6.361  0.00  0.00    +0.000 C 
ATOM     24  C   UNL     1      55.275   0.166  12.344  0.00  0.00    +0.000 C 
ATOM     25  C   UNL     1      52.140  -0.109  14.359  0.00  0.00    +0.000 C 
ATOM     26  C   UNL     1      53.658  -0.176  14.382  0.00  0.00    +0.000 C 
ATOM     27  C   UNL     1      54.843  -0.043  13.441  0.00  0.00    +0.000 C 
ENDROOT
BRANCH  11  30
ATOM     28  N   UNL     1      51.688   5.527   7.710  0.00  0.00    +0.000 NA
ATOM     29  N   UNL     1      52.329   4.789  11.279  0.00  0.00    +0.000 N 
ATOM     30  C   UNL     1      51.873   4.746   8.798  0.00  0.00    +0.000 A 
ATOM     31  C   UNL     1      52.122   5.338  10.034  0.00  0.00    +0.000 A 
ATOM     32  C   UNL     1      52.190   6.724  10.183  0.00  0.00    +0.000 A 
ATOM     33  C   UNL     1      51.756   6.868   7.862  0.00  0.00    +0.000 A 
ATOM     34  C   UNL     1      52.003   7.536   9.053  0.00  0.00    +0.000 A 
ATOM     35  C   UNL     1      52.455   6.996  11.560  0.00  0.00    +0.000 A 
ATOM     36  C   UNL     1      52.536   5.771  12.218  0.00  0.00    +0.000 A 
ATOM     37  C   UNL     1      52.629   8.177  12.305  0.00  0.00    +0.000 A 
ATOM     38  C   UNL     1      52.782   5.658  13.590  0.00  0.00    +0.000 A 
ATOM     39  C   UNL     1      52.877   8.085  13.677  0.00  0.00    +0.000 A 
ATOM     40  C   UNL     1      52.950   6.846  14.304  0.00  0.00    +0.000 A 
ATOM     41  H   UNL     1      52.320   3.798  11.482  0.00  0.00    +0.000 HD
ENDBRANCH  11  30
BRANCH   7  42
ATOM     42  O   UNL     1      54.258   1.215   7.260  0.00  0.00    +0.000 OA
ATOM     43  H   UNL     1      54.804   0.414   7.329  0.00  0.00    +0.000 HD
ENDBRANCH   7  42
TORSDOF 2
ENDMDL
MODEL 5
REMARK VINA RESULT:      -8.1      2.539      7.093
REMARK  Name = 6509753_ManzamineA.pdbqt.pdb
REMARK  2 active torsions:
REMARK  status: ('A' for Active; 'I' for Inactive)
REMARK    1  A    between atoms: C_7  and  O_42
REMARK    2  A    between atoms: C_11  and  C_30
REMARK                            x       y       z     vdW  Elec       q    Type
REMARK                         _______ _______ _______ _____ _____    ______ ____
ROOT
ATOM      1  N   UNL     1      53.547   0.939  12.602  0.00  0.00    +0.000 N 
ATOM      2  N   UNL     1      49.628   3.560  10.984  0.00  0.00    +0.000 N 
ATOM      3  C   UNL     1      51.460   1.356  11.230  0.00  0.00    +0.000 C 
ATOM      4  C   UNL     1      53.023   1.362  11.278  0.00  0.00    +0.000 C 
ATOM      5  C   UNL     1      50.729   0.577  10.060  0.00  0.00    +0.000 C 
ATOM      6  C   UNL     1      51.259   0.682  12.509  0.00  0.00    +0.000 C 
ATOM      7  C   UNL     1      53.805   0.935  10.034  0.00  0.00    +0.000 C 
ATOM      8  C   UNL     1      50.839   2.726  11.282  0.00  0.00    +0.000 C 
ATOM      9  C   UNL     1      52.345   0.611  13.402  0.00  0.00    +0.000 C 
ATOM     10  C   UNL     1      49.469   1.168   9.687  0.00  0.00    +0.000 C 
ATOM     11  C   UNL     1      51.567  -0.024   9.032  0.00  0.00    +0.000 C 
ATOM     12  C   UNL     1      52.815   0.278   9.205  0.00  0.00    +0.000 C 
ATOM     13  C   UNL     1      49.003   2.569  10.095  0.00  0.00    +0.000 C 
ATOM     14  C   UNL     1      54.383   1.971  13.220  0.00  0.00    +0.000 C 
ATOM     15  C   UNL     1      54.445   2.091   9.411  0.00  0.00    +0.000 C 
ATOM     16  C   UNL     1      52.285   0.873  14.803  0.00  0.00    +0.000 C 
ATOM     17  C   UNL     1      50.056   4.691  10.178  0.00  0.00    +0.000 C 
ATOM     18  C   UNL     1      54.959   2.872  14.328  0.00  0.00    +0.000 C 
ATOM     19  C   UNL     1      54.945   3.370   8.738  0.00  0.00    +0.000 C 
ATOM     20  C   UNL     1      52.576   1.391  15.848  0.00  0.00    +0.000 C 
ATOM     21  C   UNL     1      54.652   3.096  15.808  0.00  0.00    +0.000 C 
ATOM     22  C   UNL     1      50.681   5.819   9.352  0.00  0.00    +0.000 C 
ATOM     23  C   UNL     1      53.523   2.376  16.536  0.00  0.00    +0.000 C 
ATOM     24  C   UNL     1      54.957   4.778   8.147  0.00  0.00    +0.000 C 
ATOM     25  C   UNL     1      51.725   6.607   8.567  0.00  0.00    +0.000 C 
ATOM     26  C   UNL     1      53.136   6.661   8.003  0.00  0.00    +0.000 C 
ATOM     27  C   UNL     1      54.387   5.805   7.915  0.00  0.00    +0.000 C 
ENDROOT
BRANCH  11  30
ATOM     28  N   UNL     1      50.566  -1.952   7.951  0.00  0.00    +0.000 NA
ATOM     29  N   UNL     1      51.711   1.094   6.188  0.00  0.00    +0.000 N 
ATOM     30  C   UNL     1      51.105  -0.717   7.837  0.00  0.00    +0.000 A 
ATOM     31  C   UNL     1      51.222  -0.133   6.578  0.00  0.00    +0.000 A 
ATOM     32  C   UNL     1      50.799  -0.790   5.422  0.00  0.00    +0.000 A 
ATOM     33  C   UNL     1      50.158  -2.582   6.828  0.00  0.00    +0.000 A 
ATOM     34  C   UNL     1      50.242  -2.073   5.539  0.00  0.00    +0.000 A 
ATOM     35  C   UNL     1      51.056   0.077   4.316  0.00  0.00    +0.000 A 
ATOM     36  C   UNL     1      51.624   1.243   4.824  0.00  0.00    +0.000 A 
ATOM     37  C   UNL     1      50.853  -0.027   2.927  0.00  0.00    +0.000 A 
ATOM     38  C   UNL     1      52.003   2.320   4.017  0.00  0.00    +0.000 A 
ATOM     39  C   UNL     1      51.225   1.039   2.104  0.00  0.00    +0.000 A 
ATOM     40  C   UNL     1      51.789   2.189   2.644  0.00  0.00    +0.000 A 
ATOM     41  H   UNL     1      52.075   1.796   6.817  0.00  0.00    +0.000 HD
ENDBRANCH  11  30
BRANCH   7  42
ATOM     42  O   UNL     1      54.800  -0.023  10.365  0.00  0.00    +0.000 OA
ATOM     43  H   UNL     1      54.322  -0.805  10.689  0.00  0.00    +0.000 HD
ENDBRANCH   7  42
TORSDOF 2
ENDMDL
MODEL 6
REMARK VINA RESULT:      -7.6     19.756     21.634
REMARK  Name = 6509753_ManzamineA.pdbqt.pdb
REMARK  2 active torsions:
REMARK  status: ('A' for Active; 'I' for Inactive)
REMARK    1  A    between atoms: C_7  and  O_42
REMARK    2  A    between atoms: C_11  and  C_30
REMARK                            x       y       z     vdW  Elec       q    Type
REMARK                         _______ _______ _______ _____ _____    ______ ____
ROOT
ATOM      1  N   UNL     1      41.308  -0.316  -9.613  0.00  0.00    +0.000 N 
ATOM      2  N   UNL     1      38.861   2.756 -12.682  0.00  0.00    +0.000 N 
ATOM      3  C   UNL     1      40.850   1.872 -10.802  0.00  0.00    +0.000 C 
ATOM      4  C   UNL     1      40.680   1.025  -9.498  0.00  0.00    +0.000 C 
ATOM      5  C   UNL     1      41.446   3.336 -10.696  0.00  0.00    +0.000 C 
ATOM      6  C   UNL     1      41.793   0.973 -11.460  0.00  0.00    +0.000 C 
ATOM      7  C   UNL     1      40.750   1.731  -8.141  0.00  0.00    +0.000 C 
ATOM      8  C   UNL     1      39.598   1.981 -11.631  0.00  0.00    +0.000 C 
ATOM      9  C   UNL     1      41.925  -0.335 -10.958  0.00  0.00    +0.000 C 
ATOM     10  C   UNL     1      40.935   4.230 -11.705  0.00  0.00    +0.000 C 
ATOM     11  C   UNL     1      41.725   3.851  -9.363  0.00  0.00    +0.000 C 
ATOM     12  C   UNL     1      41.328   3.024  -8.447  0.00  0.00    +0.000 C 
ATOM     13  C   UNL     1      39.710   3.953 -12.581  0.00  0.00    +0.000 C 
ATOM     14  C   UNL     1      40.339  -1.396  -9.410  0.00  0.00    +0.000 C 
ATOM     15  C   UNL     1      39.427   1.789  -7.527  0.00  0.00    +0.000 C 
ATOM     16  C   UNL     1      41.967  -1.526 -11.743  0.00  0.00    +0.000 C 
ATOM     17  C   UNL     1      37.547   3.082 -12.153  0.00  0.00    +0.000 C 
ATOM     18  C   UNL     1      39.628  -2.743  -9.641  0.00  0.00    +0.000 C 
ATOM     19  C   UNL     1      37.989   1.947  -7.031  0.00  0.00    +0.000 C 
ATOM     20  C   UNL     1      41.648  -2.625 -12.109  0.00  0.00    +0.000 C 
ATOM     21  C   UNL     1      39.751  -3.868 -10.668  0.00  0.00    +0.000 C 
ATOM     22  C   UNL     1      36.210   3.324 -11.446  0.00  0.00    +0.000 C 
ATOM     23  C   UNL     1      40.728  -3.817 -11.837  0.00  0.00    +0.000 C 
ATOM     24  C   UNL     1      36.497   2.271  -7.016  0.00  0.00    +0.000 C 
ATOM     25  C   UNL     1      35.165   3.356 -10.335  0.00  0.00    +0.000 C 
ATOM     26  C   UNL     1      34.839   3.101  -8.873  0.00  0.00    +0.000 C 
ATOM     27  C   UNL     1      35.514   2.636  -7.593  0.00  0.00    +0.000 C 
ENDROOT
BRANCH  11  30
ATOM     28  N   UNL     1      43.527   5.449  -9.082  0.00  0.00    +0.000 NA
ATOM     29  N   UNL     1      39.944   6.199  -8.544  0.00  0.00    +0.000 N 
ATOM     30  C   UNL     1      42.202   5.186  -9.035  0.00  0.00    +0.000 A 
ATOM     31  C   UNL     1      41.316   6.193  -8.660  0.00  0.00    +0.000 A 
ATOM     32  C   UNL     1      41.759   7.474  -8.327  0.00  0.00    +0.000 A 
ATOM     33  C   UNL     1      43.949   6.691  -8.759  0.00  0.00    +0.000 A 
ATOM     34  C   UNL     1      43.135   7.747  -8.372  0.00  0.00    +0.000 A 
ATOM     35  C   UNL     1      40.609   8.255  -7.996  0.00  0.00    +0.000 A 
ATOM     36  C   UNL     1      39.493   7.433  -8.141  0.00  0.00    +0.000 A 
ATOM     37  C   UNL     1      40.419   9.588  -7.590  0.00  0.00    +0.000 A 
ATOM     38  C   UNL     1      38.187   7.874  -7.902  0.00  0.00    +0.000 A 
ATOM     39  C   UNL     1      39.122  10.047  -7.345  0.00  0.00    +0.000 A 
ATOM     40  C   UNL     1      38.029   9.202  -7.500  0.00  0.00    +0.000 A 
ATOM     41  H   UNL     1      39.345   5.408  -8.738  0.00  0.00    +0.000 HD
ENDBRANCH  11  30
BRANCH   7  42
ATOM     42  O   UNL     1      41.639   1.055  -7.265  0.00  0.00    +0.000 OA
ATOM     43  H   UNL     1      42.527   1.165  -7.645  0.00  0.00    +0.000 HD
ENDBRANCH   7  42
TORSDOF 2
ENDMDL
MODEL 7
REMARK VINA RESULT:      -7.6      3.812      6.980
REMARK  Name = 6509753_ManzamineA.pdbqt.pdb
REMARK  2 active torsions:
REMARK  status: ('A' for Active; 'I' for Inactive)
REMARK    1  A    between atoms: C_7  and  O_42
REMARK    2  A    between atoms: C_11  and  C_30
REMARK                            x       y       z     vdW  Elec       q    Type
REMARK                         _______ _______ _______ _____ _____    ______ ____
ROOT
ATOM      1  N   UNL     1      52.991   2.942   6.561  0.00  0.00    +0.000 N 
ATOM      2  N   UNL     1      50.492   6.886   8.308  0.00  0.00    +0.000 N 
ATOM      3  C   UNL     1      52.228   5.357   6.599  0.00  0.00    +0.000 C 
ATOM      4  C   UNL     1      53.340   4.325   6.977  0.00  0.00    +0.000 C 
ATOM      5  C   UNL     1      52.629   6.658   5.789  0.00  0.00    +0.000 C 
ATOM      6  C   UNL     1      51.439   4.451   5.770  0.00  0.00    +0.000 C 
ATOM      7  C   UNL     1      54.809   4.748   6.880  0.00  0.00    +0.000 C 
ATOM      8  C   UNL     1      51.398   5.821   7.765  0.00  0.00    +0.000 C 
ATOM      9  C   UNL     1      51.686   3.069   5.874  0.00  0.00    +0.000 C 
ATOM     10  C   UNL     1      51.795   7.794   6.092  0.00  0.00    +0.000 C 
ATOM     11  C   UNL     1      54.044   6.866   5.515  0.00  0.00    +0.000 C 
ATOM     12  C   UNL     1      54.773   5.962   6.090  0.00  0.00    +0.000 C 
ATOM     13  C   UNL     1      50.845   7.888   7.290  0.00  0.00    +0.000 C 
ATOM     14  C   UNL     1      52.954   2.018   7.697  0.00  0.00    +0.000 C 
ATOM     15  C   UNL     1      55.382   4.909   8.213  0.00  0.00    +0.000 C 
ATOM     16  C   UNL     1      50.689   2.053   5.970  0.00  0.00    +0.000 C 
ATOM     17  C   UNL     1      51.034   7.322   9.584  0.00  0.00    +0.000 C 
ATOM     18  C   UNL     1      52.449   0.872   8.594  0.00  0.00    +0.000 C 
ATOM     19  C   UNL     1      55.856   5.209   9.637  0.00  0.00    +0.000 C 
ATOM     20  C   UNL     1      50.111   1.107   6.434  0.00  0.00    +0.000 C 
ATOM     21  C   UNL     1      51.230  -0.049   8.585  0.00  0.00    +0.000 C 
ATOM     22  C   UNL     1      51.734   7.646  10.907  0.00  0.00    +0.000 C 
ATOM     23  C   UNL     1      50.122   0.054   7.544  0.00  0.00    +0.000 C 
ATOM     24  C   UNL     1      55.887   5.765  11.058  0.00  0.00    +0.000 C 
ATOM     25  C   UNL     1      52.798   7.645  12.000  0.00  0.00    +0.000 C 
ATOM     26  C   UNL     1      54.175   7.184  12.450  0.00  0.00    +0.000 C 
ATOM     27  C   UNL     1      55.361   6.387  11.935  0.00  0.00    +0.000 C 
ENDROOT
BRANCH  11  30
ATOM     28  N   UNL     1      55.227   8.982   5.601  0.00  0.00    +0.000 NA
ATOM     29  N   UNL     1      54.073   7.340   2.493  0.00  0.00    +0.000 N 
ATOM     30  C   UNL     1      54.636   8.021   4.856  0.00  0.00    +0.000 A 
ATOM     31  C   UNL     1      54.591   8.159   3.470  0.00  0.00    +0.000 A 
ATOM     32  C   UNL     1      55.140   9.268   2.825  0.00  0.00    +0.000 A 
ATOM     33  C   UNL     1      55.756  10.052   4.970  0.00  0.00    +0.000 A 
ATOM     34  C   UNL     1      55.750  10.267   3.598  0.00  0.00    +0.000 A 
ATOM     35  C   UNL     1      54.928   9.097   1.422  0.00  0.00    +0.000 A 
ATOM     36  C   UNL     1      54.261   7.887   1.246  0.00  0.00    +0.000 A 
ATOM     37  C   UNL     1      55.248   9.865   0.287  0.00  0.00    +0.000 A 
ATOM     38  C   UNL     1      53.895   7.396  -0.011  0.00  0.00    +0.000 A 
ATOM     39  C   UNL     1      54.889   9.391  -0.978  0.00  0.00    +0.000 A 
ATOM     40  C   UNL     1      54.225   8.178  -1.119  0.00  0.00    +0.000 A 
ATOM     41  H   UNL     1      53.623   6.451   2.663  0.00  0.00    +0.000 HD
ENDBRANCH  11  30
BRANCH   7  42
ATOM     42  O   UNL     1      55.566   3.785   6.163  0.00  0.00    +0.000 OA
ATOM     43  H   UNL     1      55.137   3.697   5.295  0.00  0.00    +0.000 HD
ENDBRANCH   7  42
TORSDOF 2
ENDMDL
MODEL 8
REMARK VINA RESULT:      -7.3      4.002      6.565
REMARK  Name = 6509753_ManzamineA.pdbqt.pdb
REMARK  2 active torsions:
REMARK  status: ('A' for Active; 'I' for Inactive)
REMARK    1  A    between atoms: C_7  and  O_42
REMARK    2  A    between atoms: C_11  and  C_30
REMARK                            x       y       z     vdW  Elec       q    Type
REMARK                         _______ _______ _______ _____ _____    ______ ____
ROOT
ATOM      1  N   UNL     1      53.095   2.901   6.010  0.00  0.00    +0.000 N 
ATOM      2  N   UNL     1      50.879   6.614   8.490  0.00  0.00    +0.000 N 
ATOM      3  C   UNL     1      52.197   5.247   6.330  0.00  0.00    +0.000 C 
ATOM      4  C   UNL     1      53.442   4.302   6.363  0.00  0.00    +0.000 C 
ATOM      5  C   UNL     1      52.269   6.586   5.485  0.00  0.00    +0.000 C 
ATOM      6  C   UNL     1      51.282   4.291   5.712  0.00  0.00    +0.000 C 
ATOM      7  C   UNL     1      54.795   4.840   5.890  0.00  0.00    +0.000 C 
ATOM      8  C   UNL     1      51.680   5.630   7.690  0.00  0.00    +0.000 C 
ATOM      9  C   UNL     1      51.648   2.933   5.701  0.00  0.00    +0.000 C 
ATOM     10  C   UNL     1      51.467   7.648   6.038  0.00  0.00    +0.000 C 
ATOM     11  C   UNL     1      53.539   6.908   4.849  0.00  0.00    +0.000 C 
ATOM     12  C   UNL     1      54.460   6.057   5.179  0.00  0.00    +0.000 C 
ATOM     13  C   UNL     1      50.871   7.652   7.448  0.00  0.00    +0.000 C 
ATOM     14  C   UNL     1      53.433   1.963   7.083  0.00  0.00    +0.000 C 
ATOM     15  C   UNL     1      55.693   5.031   7.025  0.00  0.00    +0.000 C 
ATOM     16  C   UNL     1      50.791   1.840   6.028  0.00  0.00    +0.000 C 
ATOM     17  C   UNL     1      51.711   7.075   9.589  0.00  0.00    +0.000 C 
ATOM     18  C   UNL     1      53.273   0.770   8.044  0.00  0.00    +0.000 C 
ATOM     19  C   UNL     1      56.510   5.349   8.280  0.00  0.00    +0.000 C 
ATOM     20  C   UNL     1      50.429   0.846   6.598  0.00  0.00    +0.000 C 
ATOM     21  C   UNL     1      52.168  -0.245   8.332  0.00  0.00    +0.000 C 
ATOM     22  C   UNL     1      52.715   7.437  10.686  0.00  0.00    +0.000 C 
ATOM     23  C   UNL     1      50.815  -0.217   7.629  0.00  0.00    +0.000 C 
ATOM     24  C   UNL     1      56.882   5.889   9.658  0.00  0.00    +0.000 C 
ATOM     25  C   UNL     1      54.032   7.508  11.454  0.00  0.00    +0.000 C 
ATOM     26  C   UNL     1      55.509   7.151  11.504  0.00  0.00    +0.000 C 
ATOM     27  C   UNL     1      56.567   6.457  10.664  0.00  0.00    +0.000 C 
ENDROOT
BRANCH  11  30
ATOM     28  N   UNL     1      53.336   8.269   2.852  0.00  0.00    +0.000 NA
ATOM     29  N   UNL     1      55.295   9.205   5.848  0.00  0.00    +0.000 N 
ATOM     30  C   UNL     1      53.846   8.114   4.094  0.00  0.00    +0.000 A 
ATOM     31  C   UNL     1      54.667   9.105   4.627  0.00  0.00    +0.000 A 
ATOM     32  C   UNL     1      54.983  10.260   3.910  0.00  0.00    +0.000 A 
ATOM     33  C   UNL     1      53.646   9.389   2.164  0.00  0.00    +0.000 A 
ATOM     34  C   UNL     1      54.457  10.420   2.619  0.00  0.00    +0.000 A 
ATOM     35  C   UNL     1      55.832  11.060   4.735  0.00  0.00    +0.000 A 
ATOM     36  C   UNL     1      56.008  10.376   5.937  0.00  0.00    +0.000 A 
ATOM     37  C   UNL     1      56.463  12.306   4.567  0.00  0.00    +0.000 A 
ATOM     38  C   UNL     1      56.785  10.873   6.988  0.00  0.00    +0.000 A 
ATOM     39  C   UNL     1      57.245  12.819   5.606  0.00  0.00    +0.000 A 
ATOM     40  C   UNL     1      57.399  12.112   6.793  0.00  0.00    +0.000 A 
ATOM     41  H   UNL     1      55.234   8.517   6.586  0.00  0.00    +0.000 HD
ENDBRANCH  11  30
BRANCH   7  42
ATOM     42  O   UNL     1      55.400   3.949   4.965  0.00  0.00    +0.000 OA
ATOM     43  H   UNL     1      54.760   3.838   4.241  0.00  0.00    +0.000 HD
ENDBRANCH   7  42
TORSDOF 2
ENDMDL
MODEL 9
REMARK VINA RESULT:      -7.0      2.774      4.224
REMARK  Name = 6509753_ManzamineA.pdbqt.pdb
REMARK  2 active torsions:
REMARK  status: ('A' for Active; 'I' for Inactive)
REMARK    1  A    between atoms: C_7  and  O_42
REMARK    2  A    between atoms: C_11  and  C_30
REMARK                            x       y       z     vdW  Elec       q    Type
REMARK                         _______ _______ _______ _____ _____    ______ ____
ROOT
ATOM      1  N   UNL     1      52.332   1.562   4.865  0.00  0.00    +0.000 N 
ATOM      2  N   UNL     1      51.455   0.331   9.615  0.00  0.00    +0.000 N 
ATOM      3  C   UNL     1      51.567   1.958   7.245  0.00  0.00    +0.000 C 
ATOM      4  C   UNL     1      52.714   2.106   6.193  0.00  0.00    +0.000 C 
ATOM      5  C   UNL     1      51.102   3.234   8.062  0.00  0.00    +0.000 C 
ATOM      6  C   UNL     1      50.533   1.539   6.304  0.00  0.00    +0.000 C 
ATOM      7  C   UNL     1      53.591   3.361   6.224  0.00  0.00    +0.000 C 
ATOM      8  C   UNL     1      51.797   0.867   8.256  0.00  0.00    +0.000 C 
ATOM      9  C   UNL     1      50.934   1.105   5.027  0.00  0.00    +0.000 C 
ATOM     10  C   UNL     1      50.627   2.918   9.385  0.00  0.00    +0.000 C 
ATOM     11  C   UNL     1      51.839   4.472   7.846  0.00  0.00    +0.000 C 
ATOM     12  C   UNL     1      52.855   4.284   7.063  0.00  0.00    +0.000 C 
ATOM     13  C   UNL     1      50.841   1.578  10.096  0.00  0.00    +0.000 C 
ATOM     14  C   UNL     1      53.237   0.497   4.426  0.00  0.00    +0.000 C 
ATOM     15  C   UNL     1      54.929   3.036   6.709  0.00  0.00    +0.000 C 
ATOM     16  C   UNL     1      50.444  -0.053   4.352  0.00  0.00    +0.000 C 
ATOM     17  C   UNL     1      52.699   0.125  10.337  0.00  0.00    +0.000 C 
ATOM     18  C   UNL     1      53.676  -0.842   3.804  0.00  0.00    +0.000 C 
ATOM     19  C   UNL     1      56.249   2.641   7.374  0.00  0.00    +0.000 C 
ATOM     20  C   UNL     1      50.496  -1.107   3.778  0.00  0.00    +0.000 C 
ATOM     21  C   UNL     1      52.949  -2.055   3.227  0.00  0.00    +0.000 C 
ATOM     22  C   UNL     1      54.096  -0.041  10.940  0.00  0.00    +0.000 C 
ATOM     23  C   UNL     1      51.429  -2.174   3.202  0.00  0.00    +0.000 C 
ATOM     24  C   UNL     1      57.239   2.040   8.369  0.00  0.00    +0.000 C 
ATOM     25  C   UNL     1      55.612   0.057  11.087  0.00  0.00    +0.000 C 
ATOM     26  C   UNL     1      56.925   0.573  10.522  0.00  0.00    +0.000 C 
ATOM     27  C   UNL     1      57.447   1.396   9.356  0.00  0.00    +0.000 C 
ENDROOT
BRANCH  11  30
ATOM     28  N   UNL     1      51.048   6.764   7.887  0.00  0.00    +0.000 NA
ATOM     29  N   UNL     1      52.626   5.030  10.749  0.00  0.00    +0.000 N 
ATOM     30  C   UNL     1      51.630   5.734   8.541  0.00  0.00    +0.000 A 
ATOM     31  C   UNL     1      52.033   5.901   9.864  0.00  0.00    +0.000 A 
ATOM     32  C   UNL     1      51.854   7.109  10.538  0.00  0.00    +0.000 A 
ATOM     33  C   UNL     1      50.878   7.931   8.546  0.00  0.00    +0.000 A 
ATOM     34  C   UNL     1      51.253   8.181   9.859  0.00  0.00    +0.000 A 
ATOM     35  C   UNL     1      52.368   6.944  11.861  0.00  0.00    +0.000 A 
ATOM     36  C   UNL     1      52.842   5.637  11.963  0.00  0.00    +0.000 A 
ATOM     37  C   UNL     1      52.468   7.789  12.982  0.00  0.00    +0.000 A 
ATOM     38  C   UNL     1      53.414   5.124  13.131  0.00  0.00    +0.000 A 
ATOM     39  C   UNL     1      53.038   7.295  14.158  0.00  0.00    +0.000 A 
ATOM     40  C   UNL     1      53.500   5.985  14.227  0.00  0.00    +0.000 A 
ATOM     41  H   UNL     1      52.863   4.069  10.542  0.00  0.00    +0.000 HD
ENDBRANCH  11  30
BRANCH   7  42
ATOM     42  O   UNL     1      53.694   3.938   4.930  0.00  0.00    +0.000 OA
ATOM     43  H   UNL     1      53.781   3.194   4.310  0.00  0.00    +0.000 HD
ENDBRANCH   7  42
TORSDOF 2
ENDMDL
