MODEL 1
REMARK VINA RESULT:      -4.9      0.000      0.000
REMARK  Name = 67499_Pyrazolo.pdbqt.pdb
REMARK  0 active torsions:
REMARK  status: ('A' for Active; 'I' for Inactive)
REMARK                            x       y       z     vdW  Elec       q    Type
REMARK                         _______ _______ _______ _____ _____    ______ ____
ROOT
ATOM      1  N   UNL     1      39.605   0.392  12.476  0.00  0.00    +0.000 N 
ATOM      2  N   UNL     1      39.718  -0.952  12.394  0.00  0.00    +0.000 NA
ATOM      3  N   UNL     1      39.492   2.140  14.149  0.00  0.00    +0.000 NA
ATOM      4  N   UNL     1      39.615   1.243  16.395  0.00  0.00    +0.000 NA
ATOM      5  C   UNL     1      39.704  -0.249  14.568  0.00  0.00    +0.000 A 
ATOM      6  C   UNL     1      39.592   0.861  13.757  0.00  0.00    +0.000 A 
ATOM      7  C   UNL     1      39.778  -1.334  13.677  0.00  0.00    +0.000 A 
ATOM      8  C   UNL     1      39.714  -0.029  15.938  0.00  0.00    +0.000 A 
ATOM      9  C   UNL     1      39.511   2.240  15.492  0.00  0.00    +0.000 A 
ATOM     10  H   UNL     1      39.541   0.936  11.624  0.00  0.00    +0.000 HD
ENDROOT
TORSDOF 0
ENDMDL
MODEL 2
REMARK VINA RESULT:      -4.9      2.019      3.543
REMARK  Name = 67499_Pyrazolo.pdbqt.pdb
REMARK  0 active torsions:
REMARK  status: ('A' for Active; 'I' for Inactive)
REMARK                            x       y       z     vdW  Elec       q    Type
REMARK                         _______ _______ _______ _____ _____    ______ ____
ROOT
ATOM      1  N   UNL     1      39.603   0.561  12.549  0.00  0.00    +0.000 N 
ATOM      2  N   UNL     1      39.322   1.101  13.755  0.00  0.00    +0.000 NA
ATOM      3  N   UNL     1      41.176  -0.976  11.533  0.00  0.00    +0.000 NA
ATOM      4  N   UNL     1      42.759  -1.841  13.149  0.00  0.00    +0.000 NA
ATOM      5  C   UNL     1      41.109  -0.316  13.876  0.00  0.00    +0.000 A 
ATOM      6  C   UNL     1      40.666  -0.295  12.570  0.00  0.00    +0.000 A 
ATOM      7  C   UNL     1      40.247   0.559  14.558  0.00  0.00    +0.000 A 
ATOM      8  C   UNL     1      42.200  -1.127  14.157  0.00  0.00    +0.000 A 
ATOM      9  C   UNL     1      42.226  -1.729  11.914  0.00  0.00    +0.000 A 
ATOM     10  H   UNL     1      39.036   0.814  11.749  0.00  0.00    +0.000 HD
ENDROOT
TORSDOF 0
ENDMDL
MODEL 3
REMARK VINA RESULT:      -4.5      2.070      2.557
REMARK  Name = 67499_Pyrazolo.pdbqt.pdb
REMARK  0 active torsions:
REMARK  status: ('A' for Active; 'I' for Inactive)
REMARK                            x       y       z     vdW  Elec       q    Type
REMARK                         _______ _______ _______ _____ _____    ______ ____
ROOT
ATOM      1  N   UNL     1      42.586  -1.071  13.769  0.00  0.00    +0.000 N 
ATOM      2  N   UNL     1      42.511  -1.498  12.490  0.00  0.00    +0.000 NA
ATOM      3  N   UNL     1      41.405   0.381  15.306  0.00  0.00    +0.000 NA
ATOM      4  N   UNL     1      39.478   1.416  14.265  0.00  0.00    +0.000 NA
ATOM      5  C   UNL     1      40.812  -0.053  12.985  0.00  0.00    +0.000 A 
ATOM      6  C   UNL     1      41.590  -0.204  14.114  0.00  0.00    +0.000 A 
ATOM      7  C   UNL     1      41.425  -0.870  12.019  0.00  0.00    +0.000 A 
ATOM      8  C   UNL     1      39.718   0.794  13.084  0.00  0.00    +0.000 A 
ATOM      9  C   UNL     1      40.320   1.180  15.293  0.00  0.00    +0.000 A 
ATOM     10  H   UNL     1      43.338  -1.406  14.359  0.00  0.00    +0.000 HD
ENDROOT
TORSDOF 0
ENDMDL
MODEL 4
REMARK VINA RESULT:      -4.3      3.201      4.243
REMARK  Name = 67499_Pyrazolo.pdbqt.pdb
REMARK  0 active torsions:
REMARK  status: ('A' for Active; 'I' for Inactive)
REMARK                            x       y       z     vdW  Elec       q    Type
REMARK                         _______ _______ _______ _____ _____    ______ ____
ROOT
ATOM      1  N   UNL     1      43.116  -1.415  15.055  0.00  0.00    +0.000 N 
ATOM      2  N   UNL     1      43.797  -2.566  14.867  0.00  0.00    +0.000 NA
ATOM      3  N   UNL     1      41.490  -0.023  13.922  0.00  0.00    +0.000 NA
ATOM      4  N   UNL     1      40.858  -0.945  11.774  0.00  0.00    +0.000 NA
ATOM      5  C   UNL     1      42.434  -2.107  13.092  0.00  0.00    +0.000 A 
ATOM      6  C   UNL     1      42.286  -1.097  14.019  0.00  0.00    +0.000 A 
ATOM      7  C   UNL     1      43.374  -2.982  13.665  0.00  0.00    +0.000 A 
ATOM      8  C   UNL     1      41.682  -2.010  11.930  0.00  0.00    +0.000 A 
ATOM      9  C   UNL     1      40.807  -0.026  12.760  0.00  0.00    +0.000 A 
ATOM     10  H   UNL     1      43.258  -0.890  15.909  0.00  0.00    +0.000 HD
ENDROOT
TORSDOF 0
ENDMDL
MODEL 5
REMARK VINA RESULT:      -4.2      1.817      2.407
REMARK  Name = 67499_Pyrazolo.pdbqt.pdb
REMARK  0 active torsions:
REMARK  status: ('A' for Active; 'I' for Inactive)
REMARK                            x       y       z     vdW  Elec       q    Type
REMARK                         _______ _______ _______ _____ _____    ______ ____
ROOT
ATOM      1  N   UNL     1      40.571  -1.814  12.746  0.00  0.00    +0.000 N 
ATOM      2  N   UNL     1      39.297  -1.530  12.398  0.00  0.00    +0.000 NA
ATOM      3  N   UNL     1      42.280  -1.056  14.286  0.00  0.00    +0.000 NA
ATOM      4  N   UNL     1      41.506   0.790  15.650  0.00  0.00    +0.000 NA
ATOM      5  C   UNL     1      40.034  -0.144  14.059  0.00  0.00    +0.000 A 
ATOM      6  C   UNL     1      41.057  -1.011  13.737  0.00  0.00    +0.000 A 
ATOM      7  C   UNL     1      38.978  -0.509  13.205  0.00  0.00    +0.000 A 
ATOM      8  C   UNL     1      40.287   0.786  15.057  0.00  0.00    +0.000 A 
ATOM      9  C   UNL     1      42.420  -0.115  15.240  0.00  0.00    +0.000 A 
ATOM     10  H   UNL     1      41.057  -2.566  12.273  0.00  0.00    +0.000 HD
ENDROOT
TORSDOF 0
ENDMDL
MODEL 6
REMARK VINA RESULT:      -4.1     19.534     20.299
REMARK  Name = 67499_Pyrazolo.pdbqt.pdb
REMARK  0 active torsions:
REMARK  status: ('A' for Active; 'I' for Inactive)
REMARK                            x       y       z     vdW  Elec       q    Type
REMARK                         _______ _______ _______ _____ _____    ______ ____
ROOT
ATOM      1  N   UNL     1      49.520  17.530   6.660  0.00  0.00    +0.000 N 
ATOM      2  N   UNL     1      48.250  17.618   6.208  0.00  0.00    +0.000 NA
ATOM      3  N   UNL     1      50.727  17.283   8.746  0.00  0.00    +0.000 NA
ATOM      4  N   UNL     1      49.227  17.146  10.642  0.00  0.00    +0.000 NA
ATOM      5  C   UNL     1      48.309  17.391   8.480  0.00  0.00    +0.000 A 
ATOM      6  C   UNL     1      49.608  17.393   8.015  0.00  0.00    +0.000 A 
ATOM      7  C   UNL     1      47.518  17.532   7.327  0.00  0.00    +0.000 A 
ATOM      8  C   UNL     1      48.132  17.261   9.851  0.00  0.00    +0.000 A 
ATOM      9  C   UNL     1      50.443  17.163  10.057  0.00  0.00    +0.000 A 
ATOM     10  H   UNL     1      50.285  17.570   5.998  0.00  0.00    +0.000 HD
ENDROOT
TORSDOF 0
ENDMDL
MODEL 7
REMARK VINA RESULT:      -3.9     16.851     18.812
REMARK  Name = 67499_Pyrazolo.pdbqt.pdb
REMARK  0 active torsions:
REMARK  status: ('A' for Active; 'I' for Inactive)
REMARK                            x       y       z     vdW  Elec       q    Type
REMARK                         _______ _______ _______ _____ _____    ______ ____
ROOT
ATOM      1  N   UNL     1      36.240  19.357  20.244  0.00  0.00    +0.000 N 
ATOM      2  N   UNL     1      36.943  20.412  19.779  0.00  0.00    +0.000 NA
ATOM      3  N   UNL     1      36.421  16.948  20.418  0.00  0.00    +0.000 NA
ATOM      4  N   UNL     1      38.497  16.131  19.476  0.00  0.00    +0.000 NA
ATOM      5  C   UNL     1      38.064  18.452  19.437  0.00  0.00    +0.000 A 
ATOM      6  C   UNL     1      36.870  18.160  20.062  0.00  0.00    +0.000 A 
ATOM      7  C   UNL     1      38.055  19.850  19.288  0.00  0.00    +0.000 A 
ATOM      8  C   UNL     1      38.897  17.382  19.140  0.00  0.00    +0.000 A 
ATOM      9  C   UNL     1      37.303  15.985  20.086  0.00  0.00    +0.000 A 
ATOM     10  H   UNL     1      35.337  19.514  20.675  0.00  0.00    +0.000 HD
ENDROOT
TORSDOF 0
ENDMDL
MODEL 8
REMARK VINA RESULT:      -3.8      1.467      2.294
REMARK  Name = 67499_Pyrazolo.pdbqt.pdb
REMARK  0 active torsions:
REMARK  status: ('A' for Active; 'I' for Inactive)
REMARK                            x       y       z     vdW  Elec       q    Type
REMARK                         _______ _______ _______ _____ _____    ______ ____
ROOT
ATOM      1  N   UNL     1      39.633  -1.755  15.699  0.00  0.00    +0.000 N 
ATOM      2  N   UNL     1      39.619  -2.602  14.647  0.00  0.00    +0.000 NA
ATOM      3  N   UNL     1      39.625   0.624  16.158  0.00  0.00    +0.000 NA
ATOM      4  N   UNL     1      39.576   1.932  14.120  0.00  0.00    +0.000 NA
ATOM      5  C   UNL     1      39.590  -0.423  13.960  0.00  0.00    +0.000 A 
ATOM      6  C   UNL     1      39.617  -0.438  15.339  0.00  0.00    +0.000 A 
ATOM      7  C   UNL     1      39.593  -1.780  13.590  0.00  0.00    +0.000 A 
ATOM      8  C   UNL     1      39.569   0.820  13.345  0.00  0.00    +0.000 A 
ATOM      9  C   UNL     1      39.603   1.776  15.460  0.00  0.00    +0.000 A 
ATOM     10  H   UNL     1      39.654  -2.133  16.639  0.00  0.00    +0.000 HD
ENDROOT
TORSDOF 0
ENDMDL
MODEL 9
REMARK VINA RESULT:      -3.7     13.690     14.235
REMARK  Name = 67499_Pyrazolo.pdbqt.pdb
REMARK  0 active torsions:
REMARK  status: ('A' for Active; 'I' for Inactive)
REMARK                            x       y       z     vdW  Elec       q    Type
REMARK                         _______ _______ _______ _____ _____    ______ ____
ROOT
ATOM      1  N   UNL     1      49.671   7.078   7.869  0.00  0.00    +0.000 N 
ATOM      2  N   UNL     1      50.045   8.260   7.333  0.00  0.00    +0.000 NA
ATOM      3  N   UNL     1      50.276   5.600   9.690  0.00  0.00    +0.000 NA
ATOM      4  N   UNL     1      52.128   6.475  10.982  0.00  0.00    +0.000 NA
ATOM      5  C   UNL     1      51.334   7.723   9.141  0.00  0.00    +0.000 A 
ATOM      6  C   UNL     1      50.413   6.713   8.955  0.00  0.00    +0.000 A 
ATOM      7  C   UNL     1      51.061   8.646   8.117  0.00  0.00    +0.000 A 
ATOM      8  C   UNL     1      52.217   7.581  10.201  0.00  0.00    +0.000 A 
ATOM      9  C   UNL     1      51.179   5.562  10.689  0.00  0.00    +0.000 A 
ATOM     10  H   UNL     1      48.903   6.567   7.452  0.00  0.00    +0.000 HD
ENDROOT
TORSDOF 0
ENDMDL
