MODEL 1
REMARK VINA RESULT:      -6.1      0.000      0.000
REMARK  Name = 71369791_5FluoroDione.pdbqt.pdb
REMARK  1 active torsions:
REMARK  status: ('A' for Active; 'I' for Inactive)
REMARK    1  A    between atoms: N_4  and  C_12
REMARK                            x       y       z     vdW  Elec       q    Type
REMARK                         _______ _______ _______ _____ _____    ______ ____
ROOT
ATOM      1  F   UNL     1      43.145  -2.006  12.807  0.00  0.00    +0.000 F 
ATOM      2  O   UNL     1      39.212   1.618  13.839  0.00  0.00    +0.000 OA
ATOM      3  O   UNL     1      41.492  -0.923  10.776  0.00  0.00    +0.000 OA
ATOM      4  N   UNL     1      40.756   0.050  14.702  0.00  0.00    +0.000 N 
ATOM      5  N   UNL     1      40.331   0.246  12.387  0.00  0.00    +0.000 N 
ATOM      6  C   UNL     1      41.619  -0.913  14.326  0.00  0.00    +0.000 C 
ATOM      7  C   UNL     1      41.961  -1.427  13.070  0.00  0.00    +0.000 C 
ATOM      8  C   UNL     1      40.029   0.715  13.688  0.00  0.00    +0.000 C 
ATOM      9  C   UNL     1      41.263  -0.712  11.961  0.00  0.00    +0.000 C 
ATOM     10  H   UNL     1      39.852   0.737  11.645  0.00  0.00    +0.000 HD
ENDROOT
BRANCH   4  12
ATOM     11  O   UNL     1      41.574   1.098  16.735  0.00  0.00    +0.000 OA
ATOM     12  C   UNL     1      40.632   0.337  16.032  0.00  0.00    +0.000 C 
ATOM     13  C   UNL     1      39.604  -0.041  16.937  0.00  0.00    +0.000 C 
ATOM     14  C   UNL     1      39.622   0.368  18.411  0.00  0.00    +0.000 C 
ATOM     15  C   UNL     1      40.909   1.008  17.893  0.00  0.00    +0.000 C 
ENDBRANCH   4  12
TORSDOF 1
ENDMDL
MODEL 2
REMARK VINA RESULT:      -6.0      1.602      1.776
REMARK  Name = 71369791_5FluoroDione.pdbqt.pdb
REMARK  1 active torsions:
REMARK  status: ('A' for Active; 'I' for Inactive)
REMARK    1  A    between atoms: N_4  and  C_12
REMARK                            x       y       z     vdW  Elec       q    Type
REMARK                         _______ _______ _______ _____ _____    ______ ____
ROOT
ATOM      1  F   UNL     1      43.341  -1.895  14.055  0.00  0.00    +0.000 F 
ATOM      2  O   UNL     1      38.544   0.301  12.702  0.00  0.00    +0.000 OA
ATOM      3  O   UNL     1      41.796  -2.825  11.870  0.00  0.00    +0.000 OA
ATOM      4  N   UNL     1      40.274   0.120  14.302  0.00  0.00    +0.000 N 
ATOM      5  N   UNL     1      40.162  -1.293  12.412  0.00  0.00    +0.000 N 
ATOM      6  C   UNL     1      41.390  -0.578  14.591  0.00  0.00    +0.000 C 
ATOM      7  C   UNL     1      42.028  -1.639  13.937  0.00  0.00    +0.000 C 
ATOM      8  C   UNL     1      39.567  -0.226  13.128  0.00  0.00    +0.000 C 
ATOM      9  C   UNL     1      41.350  -1.998  12.657  0.00  0.00    +0.000 C 
ATOM     10  H   UNL     1      39.694  -1.528  11.548  0.00  0.00    +0.000 HD
ENDROOT
BRANCH   4  12
ATOM     11  O   UNL     1      39.813   2.461  14.752  0.00  0.00    +0.000 OA
ATOM     12  C   UNL     1      39.889   1.120  15.149  0.00  0.00    +0.000 C 
ATOM     13  C   UNL     1      39.510   1.040  16.515  0.00  0.00    +0.000 C 
ATOM     14  C   UNL     1      39.104   2.274  17.323  0.00  0.00    +0.000 C 
ATOM     15  C   UNL     1      39.409   2.883  15.956  0.00  0.00    +0.000 C 
ENDBRANCH   4  12
TORSDOF 1
ENDMDL
MODEL 3
REMARK VINA RESULT:      -5.2      2.222      2.461
REMARK  Name = 71369791_5FluoroDione.pdbqt.pdb
REMARK  1 active torsions:
REMARK  status: ('A' for Active; 'I' for Inactive)
REMARK    1  A    between atoms: N_4  and  C_12
REMARK                            x       y       z     vdW  Elec       q    Type
REMARK                         _______ _______ _______ _____ _____    ______ ____
ROOT
ATOM      1  F   UNL     1      43.927  -2.592  16.522  0.00  0.00    +0.000 F 
ATOM      2  O   UNL     1      40.914   0.387  13.100  0.00  0.00    +0.000 OA
ATOM      3  O   UNL     1      43.824  -3.100  13.737  0.00  0.00    +0.000 OA
ATOM      4  N   UNL     1      41.417  -0.178  15.339  0.00  0.00    +0.000 N 
ATOM      5  N   UNL     1      42.289  -1.397  13.513  0.00  0.00    +0.000 N 
ATOM      6  C   UNL     1      42.118  -1.053  16.086  0.00  0.00    +0.000 C 
ATOM      7  C   UNL     1      42.933  -2.137  15.740  0.00  0.00    +0.000 C 
ATOM      8  C   UNL     1      41.474  -0.318  13.934  0.00  0.00    +0.000 C 
ATOM      9  C   UNL     1      43.074  -2.286  14.261  0.00  0.00    +0.000 C 
ATOM     10  H   UNL     1      42.376  -1.488  12.511  0.00  0.00    +0.000 HD
ENDROOT
BRANCH   4  12
ATOM     11  O   UNL     1      41.088   2.139  15.989  0.00  0.00    +0.000 OA
ATOM     12  C   UNL     1      40.696   0.794  15.973  0.00  0.00    +0.000 C 
ATOM     13  C   UNL     1      39.484   0.677  16.703  0.00  0.00    +0.000 C 
ATOM     14  C   UNL     1      38.805   1.882  17.357  0.00  0.00    +0.000 C 
ATOM     15  C   UNL     1      40.034   2.525  16.718  0.00  0.00    +0.000 C 
ENDBRANCH   4  12
TORSDOF 1
ENDMDL
MODEL 4
REMARK VINA RESULT:      -4.7      2.276      2.690
REMARK  Name = 71369791_5FluoroDione.pdbqt.pdb
REMARK  1 active torsions:
REMARK  status: ('A' for Active; 'I' for Inactive)
REMARK    1  A    between atoms: N_4  and  C_12
REMARK                            x       y       z     vdW  Elec       q    Type
REMARK                         _______ _______ _______ _____ _____    ______ ____
ROOT
ATOM      1  F   UNL     1      38.146  -2.543  14.309  0.00  0.00    +0.000 F 
ATOM      2  O   UNL     1      42.589   0.485  15.179  0.00  0.00    +0.000 OA
ATOM      3  O   UNL     1      39.725  -1.503  12.199  0.00  0.00    +0.000 OA
ATOM      4  N   UNL     1      40.634  -0.493  16.079  0.00  0.00    +0.000 N 
ATOM      5  N   UNL     1      41.060  -0.453  13.756  0.00  0.00    +0.000 N 
ATOM      6  C   UNL     1      39.505  -1.137  15.725  0.00  0.00    +0.000 C 
ATOM      7  C   UNL     1      38.992  -1.513  14.478  0.00  0.00    +0.000 C 
ATOM      8  C   UNL     1      41.517  -0.098  15.048  0.00  0.00    +0.000 C 
ATOM      9  C   UNL     1      39.922  -1.171  13.361  0.00  0.00    +0.000 C 
ATOM     10  H   UNL     1      41.698  -0.216  13.008  0.00  0.00    +0.000 HD
ENDROOT
BRANCH   4  12
ATOM     11  O   UNL     1      41.240  -1.272  18.298  0.00  0.00    +0.000 OA
ATOM     12  C   UNL     1      40.869  -0.259  17.404  0.00  0.00    +0.000 C 
ATOM     13  C   UNL     1      40.794   0.962  18.125  0.00  0.00    +0.000 C 
ATOM     14  C   UNL     1      41.090   1.045  19.624  0.00  0.00    +0.000 C 
ATOM     15  C   UNL     1      41.305  -0.441  19.345  0.00  0.00    +0.000 C 
ENDBRANCH   4  12
TORSDOF 1
ENDMDL
MODEL 5
REMARK VINA RESULT:      -4.5      2.534      5.007
REMARK  Name = 71369791_5FluoroDione.pdbqt.pdb
REMARK  1 active torsions:
REMARK  status: ('A' for Active; 'I' for Inactive)
REMARK    1  A    between atoms: N_4  and  C_12
REMARK                            x       y       z     vdW  Elec       q    Type
REMARK                         _______ _______ _______ _____ _____    ______ ____
ROOT
ATOM      1  F   UNL     1      43.428  -2.629  18.110  0.00  0.00    +0.000 F 
ATOM      2  O   UNL     1      40.799   1.259  15.347  0.00  0.00    +0.000 OA
ATOM      3  O   UNL     1      42.969  -0.042  19.172  0.00  0.00    +0.000 OA
ATOM      4  N   UNL     1      41.857  -0.854  15.298  0.00  0.00    +0.000 N 
ATOM      5  N   UNL     1      41.980   0.566  17.182  0.00  0.00    +0.000 N 
ATOM      6  C   UNL     1      42.610  -1.686  16.043  0.00  0.00    +0.000 C 
ATOM      7  C   UNL     1      43.135  -1.571  17.336  0.00  0.00    +0.000 C 
ATOM      8  C   UNL     1      41.484   0.385  15.868  0.00  0.00    +0.000 C 
ATOM      9  C   UNL     1      42.715  -0.302  18.002  0.00  0.00    +0.000 C 
ATOM     10  H   UNL     1      41.689   1.428  17.622  0.00  0.00    +0.000 HD
ENDROOT
BRANCH   4  12
ATOM     11  O   UNL     1      40.244  -1.819  13.760  0.00  0.00    +0.000 OA
ATOM     12  C   UNL     1      41.491  -1.248  14.042  0.00  0.00    +0.000 C 
ATOM     13  C   UNL     1      42.230  -1.177  12.831  0.00  0.00    +0.000 C 
ATOM     14  C   UNL     1      41.664  -1.672  11.499  0.00  0.00    +0.000 C 
ATOM     15  C   UNL     1      40.510  -1.963  12.456  0.00  0.00    +0.000 C 
ENDBRANCH   4  12
TORSDOF 1
ENDMDL
MODEL 6
REMARK VINA RESULT:      -4.5      2.878      3.311
REMARK  Name = 71369791_5FluoroDione.pdbqt.pdb
REMARK  1 active torsions:
REMARK  status: ('A' for Active; 'I' for Inactive)
REMARK    1  A    between atoms: N_4  and  C_12
REMARK                            x       y       z     vdW  Elec       q    Type
REMARK                         _______ _______ _______ _____ _____    ______ ____
ROOT
ATOM      1  F   UNL     1      39.176  -3.316  17.197  0.00  0.00    +0.000 F 
ATOM      2  O   UNL     1      41.155   0.289  13.626  0.00  0.00    +0.000 OA
ATOM      3  O   UNL     1      40.346  -4.087  14.734  0.00  0.00    +0.000 OA
ATOM      4  N   UNL     1      39.863  -0.091  15.568  0.00  0.00    +0.000 N 
ATOM      5  N   UNL     1      40.628  -1.862  14.206  0.00  0.00    +0.000 N 
ATOM      6  C   UNL     1      39.320  -1.074  16.311  0.00  0.00    +0.000 C 
ATOM      7  C   UNL     1      39.317  -2.466  16.165  0.00  0.00    +0.000 C 
ATOM      8  C   UNL     1      40.587  -0.462  14.412  0.00  0.00    +0.000 C 
ATOM      9  C   UNL     1      40.123  -2.910  14.990  0.00  0.00    +0.000 C 
ATOM     10  H   UNL     1      41.176  -2.150  13.407  0.00  0.00    +0.000 HD
ENDROOT
BRANCH   4  12
ATOM     11  O   UNL     1      39.988   2.297  15.144  0.00  0.00    +0.000 OA
ATOM     12  C   UNL     1      39.693   1.204  15.969  0.00  0.00    +0.000 C 
ATOM     13  C   UNL     1      39.218   1.702  17.211  0.00  0.00    +0.000 C 
ATOM     14  C   UNL     1      39.090   3.200  17.496  0.00  0.00    +0.000 C 
ATOM     15  C   UNL     1      39.628   3.198  16.066  0.00  0.00    +0.000 C 
ENDBRANCH   4  12
TORSDOF 1
ENDMDL
MODEL 7
REMARK VINA RESULT:      -4.4     10.145     11.164
REMARK  Name = 71369791_5FluoroDione.pdbqt.pdb
REMARK  1 active torsions:
REMARK  status: ('A' for Active; 'I' for Inactive)
REMARK    1  A    between atoms: N_4  and  C_12
REMARK                            x       y       z     vdW  Elec       q    Type
REMARK                         _______ _______ _______ _____ _____    ______ ____
ROOT
ATOM      1  F   UNL     1      52.568   3.255  13.057  0.00  0.00    +0.000 F 
ATOM      2  O   UNL     1      47.984   4.440  10.366  0.00  0.00    +0.000 OA
ATOM      3  O   UNL     1      51.292   5.777  13.247  0.00  0.00    +0.000 OA
ATOM      4  N   UNL     1      49.807   2.961  10.646  0.00  0.00    +0.000 N 
ATOM      5  N   UNL     1      49.723   5.065  11.718  0.00  0.00    +0.000 N 
ATOM      6  C   UNL     1      50.989   2.835  11.280  0.00  0.00    +0.000 C 
ATOM      7  C   UNL     1      51.686   3.690  12.142  0.00  0.00    +0.000 C 
ATOM      8  C   UNL     1      49.075   4.154  10.849  0.00  0.00    +0.000 C 
ATOM      9  C   UNL     1      50.921   4.938  12.436  0.00  0.00    +0.000 C 
ATOM     10  H   UNL     1      49.196   5.906  11.908  0.00  0.00    +0.000 HD
ENDROOT
BRANCH   4  12
ATOM     11  O   UNL     1      48.671   2.150   8.659  0.00  0.00    +0.000 OA
ATOM     12  C   UNL     1      49.377   1.938   9.850  0.00  0.00    +0.000 C 
ATOM     13  C   UNL     1      49.532   0.538  10.030  0.00  0.00    +0.000 C 
ATOM     14  C   UNL     1      48.981  -0.480   9.030  0.00  0.00    +0.000 C 
ATOM     15  C   UNL     1      48.560   0.843   8.392  0.00  0.00    +0.000 C 
ENDBRANCH   4  12
TORSDOF 1
ENDMDL
MODEL 8
REMARK VINA RESULT:      -4.1     12.584     13.725
REMARK  Name = 71369791_5FluoroDione.pdbqt.pdb
REMARK  1 active torsions:
REMARK  status: ('A' for Active; 'I' for Inactive)
REMARK    1  A    between atoms: N_4  and  C_12
REMARK                            x       y       z     vdW  Elec       q    Type
REMARK                         _______ _______ _______ _____ _____    ______ ____
ROOT
ATOM      1  F   UNL     1      27.885  -3.207  13.571  0.00  0.00    +0.000 F 
ATOM      2  O   UNL     1      29.674  -1.327   8.784  0.00  0.00    +0.000 OA
ATOM      3  O   UNL     1      28.508  -0.478  13.137  0.00  0.00    +0.000 OA
ATOM      4  N   UNL     1      29.218  -3.205  10.144  0.00  0.00    +0.000 N 
ATOM      5  N   UNL     1      29.169  -1.001  10.993  0.00  0.00    +0.000 N 
ATOM      6  C   UNL     1      28.886  -3.554  11.402  0.00  0.00    +0.000 C 
ATOM      7  C   UNL     1      28.664  -2.796  12.558  0.00  0.00    +0.000 C 
ATOM      8  C   UNL     1      29.384  -1.829   9.865  0.00  0.00    +0.000 C 
ATOM      9  C   UNL     1      28.768  -1.330  12.296  0.00  0.00    +0.000 C 
ATOM     10  H   UNL     1      29.243  -0.011  10.804  0.00  0.00    +0.000 HD
ENDROOT
BRANCH   4  12
ATOM     11  O   UNL     1      28.582  -4.269   8.056  0.00  0.00    +0.000 OA
ATOM     12  C   UNL     1      29.372  -4.189   9.209  0.00  0.00    +0.000 C 
ATOM     13  C   UNL     1      30.291  -5.271   9.192  0.00  0.00    +0.000 C 
ATOM     14  C   UNL     1      30.326  -6.295   8.055  0.00  0.00    +0.000 C 
ATOM     15  C   UNL     1      29.196  -5.370   7.608  0.00  0.00    +0.000 C 
ENDBRANCH   4  12
TORSDOF 1
ENDMDL
MODEL 9
REMARK VINA RESULT:      -4.0      4.025      5.777
REMARK  Name = 71369791_5FluoroDione.pdbqt.pdb
REMARK  1 active torsions:
REMARK  status: ('A' for Active; 'I' for Inactive)
REMARK    1  A    between atoms: N_4  and  C_12
REMARK                            x       y       z     vdW  Elec       q    Type
REMARK                         _______ _______ _______ _____ _____    ______ ____
ROOT
ATOM      1  F   UNL     1      41.940  -0.057  13.949  0.00  0.00    +0.000 F 
ATOM      2  O   UNL     1      40.838  -5.104  15.676  0.00  0.00    +0.000 OA
ATOM      3  O   UNL     1      39.473  -0.756  15.156  0.00  0.00    +0.000 OA
ATOM      4  N   UNL     1      42.256  -3.691  14.419  0.00  0.00    +0.000 N 
ATOM      5  N   UNL     1      40.193  -2.941  15.292  0.00  0.00    +0.000 N 
ATOM      6  C   UNL     1      42.359  -2.435  13.943  0.00  0.00    +0.000 C 
ATOM      7  C   UNL     1      41.508  -1.327  14.030  0.00  0.00    +0.000 C 
ATOM      8  C   UNL     1      41.099  -4.022  15.160  0.00  0.00    +0.000 C 
ATOM      9  C   UNL     1      40.299  -1.611  14.859  0.00  0.00    +0.000 C 
ATOM     10  H   UNL     1      39.379  -3.145  15.854  0.00  0.00    +0.000 HD
ENDROOT
BRANCH   4  12
ATOM     11  O   UNL     1      44.517  -4.494  14.795  0.00  0.00    +0.000 OA
ATOM     12  C   UNL     1      43.268  -4.573  14.166  0.00  0.00    +0.000 C 
ATOM     13  C   UNL     1      43.288  -5.682  13.280  0.00  0.00    +0.000 C 
ATOM     14  C   UNL     1      44.520  -6.575  13.116  0.00  0.00    +0.000 C 
ATOM     15  C   UNL     1      45.004  -5.562  14.153  0.00  0.00    +0.000 C 
ENDBRANCH   4  12
TORSDOF 1
ENDMDL
