MODEL 1
REMARK VINA RESULT:      -3.4      0.000      0.000
REMARK  Name = 7288_3Pentanone.pdbqt.pdb
REMARK  2 active torsions:
REMARK  status: ('A' for Active; 'I' for Inactive)
REMARK    1  A    between atoms: C_2  and  C_3
REMARK    2  A    between atoms: C_2  and  C_5
REMARK                            x       y       z     vdW  Elec       q    Type
REMARK                         _______ _______ _______ _____ _____    ______ ____
ROOT
ATOM      1  O   UNL     1      36.262  17.028  21.951  0.00  0.00    +0.000 OA
ATOM      2  C   UNL     1      36.765  16.291  21.112  0.00  0.00    +0.000 C 
ENDROOT
BRANCH   2   3
ATOM      3  C   UNL     1      36.341  14.917  20.983  0.00  0.00    +0.000 C 
ATOM      4  C   UNL     1      35.907  13.446  20.831  0.00  0.00    +0.000 C 
ENDBRANCH   2   3
BRANCH   2   5
ATOM      5  C   UNL     1      37.798  16.773  20.226  0.00  0.00    +0.000 C 
ATOM      6  C   UNL     1      38.886  17.286  19.261  0.00  0.00    +0.000 C 
ENDBRANCH   2   5
TORSDOF 2
ENDMDL
MODEL 2
REMARK VINA RESULT:      -3.1     19.658     20.806
REMARK  Name = 7288_3Pentanone.pdbqt.pdb
REMARK  2 active torsions:
REMARK  status: ('A' for Active; 'I' for Inactive)
REMARK    1  A    between atoms: C_2  and  C_3
REMARK    2  A    between atoms: C_2  and  C_5
REMARK                            x       y       z     vdW  Elec       q    Type
REMARK                         _______ _______ _______ _____ _____    ______ ____
ROOT
ATOM      1  O   UNL     1      50.226   9.822   7.748  0.00  0.00    +0.000 OA
ATOM      2  C   UNL     1      50.944   8.837   7.876  0.00  0.00    +0.000 C 
ENDROOT
BRANCH   2   3
ATOM      3  C   UNL     1      51.567   8.220   6.729  0.00  0.00    +0.000 C 
ATOM      4  C   UNL     1      52.238   7.584   5.496  0.00  0.00    +0.000 C 
ENDBRANCH   2   3
BRANCH   2   5
ATOM      5  C   UNL     1      51.190   8.264   9.178  0.00  0.00    +0.000 C 
ATOM      6  C   UNL     1      51.474   7.646  10.562  0.00  0.00    +0.000 C 
ENDBRANCH   2   5
TORSDOF 2
ENDMDL
MODEL 3
REMARK VINA RESULT:      -3.0     18.200     19.499
REMARK  Name = 7288_3Pentanone.pdbqt.pdb
REMARK  2 active torsions:
REMARK  status: ('A' for Active; 'I' for Inactive)
REMARK    1  A    between atoms: C_2  and  C_3
REMARK    2  A    between atoms: C_2  and  C_5
REMARK                            x       y       z     vdW  Elec       q    Type
REMARK                         _______ _______ _______ _____ _____    ______ ____
ROOT
ATOM      1  O   UNL     1      41.437  -0.894  10.823  0.00  0.00    +0.000 OA
ATOM      2  C   UNL     1      41.428  -0.923  12.047  0.00  0.00    +0.000 C 
ENDROOT
BRANCH   2   3
ATOM      3  C   UNL     1      40.551  -0.061  12.803  0.00  0.00    +0.000 C 
ATOM      4  C   UNL     1      39.603   0.866  13.589  0.00  0.00    +0.000 C 
ENDBRANCH   2   3
BRANCH   2   5
ATOM      5  C   UNL     1      42.295  -1.821  12.773  0.00  0.00    +0.000 C 
ATOM      6  C   UNL     1      43.201  -2.792  13.557  0.00  0.00    +0.000 C 
ENDBRANCH   2   5
TORSDOF 2
ENDMDL
MODEL 4
REMARK VINA RESULT:      -3.0     16.727     18.072
REMARK  Name = 7288_3Pentanone.pdbqt.pdb
REMARK  2 active torsions:
REMARK  status: ('A' for Active; 'I' for Inactive)
REMARK    1  A    between atoms: C_2  and  C_3
REMARK    2  A    between atoms: C_2  and  C_5
REMARK                            x       y       z     vdW  Elec       q    Type
REMARK                         _______ _______ _______ _____ _____    ______ ____
ROOT
ATOM      1  O   UNL     1      38.755   0.159  12.586  0.00  0.00    +0.000 OA
ATOM      2  C   UNL     1      39.844   0.065  13.140  0.00  0.00    +0.000 C 
ENDROOT
BRANCH   2   3
ATOM      3  C   UNL     1      40.961  -0.563  12.476  0.00  0.00    +0.000 C 
ATOM      4  C   UNL     1      42.144  -1.228  11.746  0.00  0.00    +0.000 C 
ENDBRANCH   2   3
BRANCH   2   5
ATOM      5  C   UNL     1      40.044   0.580  14.474  0.00  0.00    +0.000 C 
ATOM      6  C   UNL     1      40.280   1.131  15.895  0.00  0.00    +0.000 C 
ENDBRANCH   2   5
TORSDOF 2
ENDMDL
MODEL 5
REMARK VINA RESULT:      -3.0      2.701      3.634
REMARK  Name = 7288_3Pentanone.pdbqt.pdb
REMARK  2 active torsions:
REMARK  status: ('A' for Active; 'I' for Inactive)
REMARK    1  A    between atoms: C_2  and  C_3
REMARK    2  A    between atoms: C_2  and  C_5
REMARK                            x       y       z     vdW  Elec       q    Type
REMARK                         _______ _______ _______ _____ _____    ______ ____
ROOT
ATOM      1  O   UNL     1      35.638  12.197  19.910  0.00  0.00    +0.000 OA
ATOM      2  C   UNL     1      35.903  12.852  20.912  0.00  0.00    +0.000 C 
ENDROOT
BRANCH   2   3
ATOM      3  C   UNL     1      35.861  12.249  22.223  0.00  0.00    +0.000 C 
ATOM      4  C   UNL     1      35.793  11.610  23.624  0.00  0.00    +0.000 C 
ENDBRANCH   2   3
BRANCH   2   5
ATOM      5  C   UNL     1      36.265  14.246  20.812  0.00  0.00    +0.000 C 
ATOM      6  C   UNL     1      36.632  15.740  20.720  0.00  0.00    +0.000 C 
ENDBRANCH   2   5
TORSDOF 2
ENDMDL
MODEL 6
REMARK VINA RESULT:      -2.7     20.357     21.240
REMARK  Name = 7288_3Pentanone.pdbqt.pdb
REMARK  2 active torsions:
REMARK  status: ('A' for Active; 'I' for Inactive)
REMARK    1  A    between atoms: C_2  and  C_3
REMARK    2  A    between atoms: C_2  and  C_5
REMARK                            x       y       z     vdW  Elec       q    Type
REMARK                         _______ _______ _______ _____ _____    ______ ____
ROOT
ATOM      1  O   UNL     1      41.163  -3.825  13.641  0.00  0.00    +0.000 OA
ATOM      2  C   UNL     1      42.118  -3.158  13.264  0.00  0.00    +0.000 C 
ENDROOT
BRANCH   2   3
ATOM      3  C   UNL     1      41.951  -2.120  12.274  0.00  0.00    +0.000 C 
ATOM      4  C   UNL     1      41.798  -1.008  11.218  0.00  0.00    +0.000 C 
ENDBRANCH   2   3
BRANCH   2   5
ATOM      5  C   UNL     1      43.440  -3.387  13.797  0.00  0.00    +0.000 C 
ATOM      6  C   UNL     1      44.861  -3.627  14.345  0.00  0.00    +0.000 C 
ENDBRANCH   2   5
TORSDOF 2
ENDMDL
MODEL 7
REMARK VINA RESULT:      -2.7      3.127      5.357
REMARK  Name = 7288_3Pentanone.pdbqt.pdb
REMARK  2 active torsions:
REMARK  status: ('A' for Active; 'I' for Inactive)
REMARK    1  A    between atoms: C_2  and  C_3
REMARK    2  A    between atoms: C_2  and  C_5
REMARK                            x       y       z     vdW  Elec       q    Type
REMARK                         _______ _______ _______ _____ _____    ______ ____
ROOT
ATOM      1  O   UNL     1      36.013  12.849  24.239  0.00  0.00    +0.000 OA
ATOM      2  C   UNL     1      35.895  12.448  23.088  0.00  0.00    +0.000 C 
ENDROOT
BRANCH   2   3
ATOM      3  C   UNL     1      35.931  13.368  21.976  0.00  0.00    +0.000 C 
ATOM      4  C   UNL     1      35.977  14.332  20.774  0.00  0.00    +0.000 C 
ENDBRANCH   2   3
BRANCH   2   5
ATOM      5  C   UNL     1      35.717  11.043  22.806  0.00  0.00    +0.000 C 
ATOM      6  C   UNL     1      35.545   9.538  22.520  0.00  0.00    +0.000 C 
ENDBRANCH   2   5
TORSDOF 2
ENDMDL
MODEL 8
REMARK VINA RESULT:      -2.7     15.402     16.054
REMARK  Name = 7288_3Pentanone.pdbqt.pdb
REMARK  2 active torsions:
REMARK  status: ('A' for Active; 'I' for Inactive)
REMARK    1  A    between atoms: C_2  and  C_3
REMARK    2  A    between atoms: C_2  and  C_5
REMARK                            x       y       z     vdW  Elec       q    Type
REMARK                         _______ _______ _______ _____ _____    ______ ____
ROOT
ATOM      1  O   UNL     1      51.207  17.623  10.805  0.00  0.00    +0.000 OA
ATOM      2  C   UNL     1      50.188  17.057  11.180  0.00  0.00    +0.000 C 
ENDROOT
BRANCH   2   3
ATOM      3  C   UNL     1      50.126  16.422  12.474  0.00  0.00    +0.000 C 
ATOM      4  C   UNL     1      50.085  15.740  13.856  0.00  0.00    +0.000 C 
ENDBRANCH   2   3
BRANCH   2   5
ATOM      5  C   UNL     1      49.016  17.008  10.338  0.00  0.00    +0.000 C 
ATOM      6  C   UNL     1      47.771  16.975   9.428  0.00  0.00    +0.000 C 
ENDBRANCH   2   5
TORSDOF 2
ENDMDL
MODEL 9
REMARK VINA RESULT:      -2.7     25.280     26.021
REMARK  Name = 7288_3Pentanone.pdbqt.pdb
REMARK  2 active torsions:
REMARK  status: ('A' for Active; 'I' for Inactive)
REMARK    1  A    between atoms: C_2  and  C_3
REMARK    2  A    between atoms: C_2  and  C_5
REMARK                            x       y       z     vdW  Elec       q    Type
REMARK                         _______ _______ _______ _____ _____    ______ ____
ROOT
ATOM      1  O   UNL     1      31.023   6.645  -2.361  0.00  0.00    +0.000 OA
ATOM      2  C   UNL     1      29.983   6.079  -2.044  0.00  0.00    +0.000 C 
ENDROOT
BRANCH   2   3
ATOM      3  C   UNL     1      29.582   4.851  -2.688  0.00  0.00    +0.000 C 
ATOM      4  C   UNL     1      29.175   3.539  -3.387  0.00  0.00    +0.000 C 
ENDBRANCH   2   3
BRANCH   2   5
ATOM      5  C   UNL     1      29.126   6.624  -1.018  0.00  0.00    +0.000 C 
ATOM      6  C   UNL     1      28.220   7.228   0.074  0.00  0.00    +0.000 C 
ENDBRANCH   2   5
TORSDOF 2
ENDMDL
