MODEL 1
REMARK VINA RESULT:      -7.1      0.000      0.000
REMARK  Name = 73299_Hederagenin.pdbqt.pdb
REMARK  5 active torsions:
REMARK  status: ('A' for Active; 'I' for Inactive)
REMARK    1  A    between atoms: C_9  and  C_35
REMARK    2  A    between atoms: C_14  and  C_32
REMARK    3  A    between atoms: C_17  and  O_29
REMARK    4  A    between atoms: C_32  and  O_33
REMARK    5  A    between atoms: C_35  and  O_36
REMARK                            x       y       z     vdW  Elec       q    Type
REMARK                         _______ _______ _______ _____ _____    ______ ____
ROOT
ATOM      1  C   UNL     1      51.601   0.602   8.993  0.00  0.00    +0.000 C 
ATOM      2  C   UNL     1      52.251   2.001   8.626  0.00  0.00    +0.000 C 
ATOM      3  C   UNL     1      52.302   3.188   9.594  0.00  0.00    +0.000 C 
ATOM      4  C   UNL     1      50.740  -0.038   7.731  0.00  0.00    +0.000 C 
ATOM      5  C   UNL     1      51.111   3.347  10.583  0.00  0.00    +0.000 C 
ATOM      6  C   UNL     1      50.734   0.866  10.146  0.00  0.00    +0.000 C 
ATOM      7  C   UNL     1      50.472   2.119  10.914  0.00  0.00    +0.000 C 
ATOM      8  C   UNL     1      51.577  -0.009   6.339  0.00  0.00    +0.000 C 
ATOM      9  C   UNL     1      50.501   4.709  10.954  0.00  0.00    +0.000 C 
ATOM     10  C   UNL     1      51.609  -1.108   5.350  0.00  0.00    +0.000 C 
ATOM     11  C   UNL     1      52.701   2.050   7.269  0.00  0.00    +0.000 C 
ATOM     12  C   UNL     1      52.340   4.438   8.842  0.00  0.00    +0.000 C 
ATOM     13  C   UNL     1      50.411  -1.465   7.906  0.00  0.00    +0.000 C 
ATOM     14  C   UNL     1      51.444  -2.697   5.764  0.00  0.00    +0.000 C 
ATOM     15  C   UNL     1      52.790  -0.353   9.418  0.00  0.00    +0.000 C 
ATOM     16  C   UNL     1      50.694  -2.654   7.019  0.00  0.00    +0.000 C 
ATOM     17  C   UNL     1      51.056   5.976  10.250  0.00  0.00    +0.000 C 
ATOM     18  C   UNL     1      52.355   1.029   6.222  0.00  0.00    +0.000 C 
ATOM     19  C   UNL     1      53.591   3.043  10.444  0.00  0.00    +0.000 C 
ATOM     20  C   UNL     1      51.801   5.811   9.069  0.00  0.00    +0.000 C 
ATOM     21  C   UNL     1      49.411   0.783   7.433  0.00  0.00    +0.000 C 
ATOM     22  C   UNL     1      51.244  -0.799   3.967  0.00  0.00    +0.000 C 
ATOM     23  C   UNL     1      50.732  -3.300   4.605  0.00  0.00    +0.000 C 
ATOM     24  C   UNL     1      50.610  -1.342   2.707  0.00  0.00    +0.000 C 
ATOM     25  C   UNL     1      50.643   4.919  12.498  0.00  0.00    +0.000 C 
ATOM     26  C   UNL     1      50.358  -2.730   3.212  0.00  0.00    +0.000 C 
ATOM     27  C   UNL     1      49.299  -0.604   2.381  0.00  0.00    +0.000 C 
ATOM     28  C   UNL     1      51.600  -1.329   1.528  0.00  0.00    +0.000 C 
ENDROOT
BRANCH  17  29
ATOM     29  O   UNL     1      51.097   7.198  10.901  0.00  0.00    +0.000 OA
ATOM     30  H   UNL     1      51.154   7.934  10.257  0.00  0.00    +0.000 HD
ENDBRANCH  17  29
BRANCH  14  32
ATOM     31  O   UNL     1      53.542  -3.267   6.921  0.00  0.00    +0.000 OA
ATOM     32  C   UNL     1      52.852  -3.286   5.910  0.00  0.00    +0.000 C 
BRANCH  32  33
ATOM     33  O   UNL     1      53.361  -3.803   4.770  0.00  0.00    +0.000 OA
ATOM     34  H   UNL     1      52.635  -3.739   4.113  0.00  0.00    +0.000 HD
ENDBRANCH  32  33
ENDBRANCH  14  32
BRANCH   9  35
ATOM     35  C   UNL     1      49.049   4.668  10.592  0.00  0.00    +0.000 C 
BRANCH  35  36
ATOM     36  O   UNL     1      47.750   4.642  10.280  0.00  0.00    +0.000 OA
ATOM     37  H   UNL     1      47.198   4.821  11.063  0.00  0.00    +0.000 HD
ENDBRANCH  35  36
ENDBRANCH   9  35
TORSDOF 5
ENDMDL
MODEL 2
REMARK VINA RESULT:      -7.0     11.808     13.978
REMARK  Name = 73299_Hederagenin.pdbqt.pdb
REMARK  5 active torsions:
REMARK  status: ('A' for Active; 'I' for Inactive)
REMARK    1  A    between atoms: C_9  and  C_35
REMARK    2  A    between atoms: C_14  and  C_32
REMARK    3  A    between atoms: C_17  and  O_29
REMARK    4  A    between atoms: C_32  and  O_33
REMARK    5  A    between atoms: C_35  and  O_36
REMARK                            x       y       z     vdW  Elec       q    Type
REMARK                         _______ _______ _______ _____ _____    ______ ____
ROOT
ATOM      1  C   UNL     1      42.033  -2.976  14.626  0.00  0.00    +0.000 C 
ATOM      2  C   UNL     1      40.632  -2.923  15.367  0.00  0.00    +0.000 C 
ATOM      3  C   UNL     1      39.819  -1.636  15.545  0.00  0.00    +0.000 C 
ATOM      4  C   UNL     1      43.109  -3.975  15.392  0.00  0.00    +0.000 C 
ATOM      5  C   UNL     1      40.619  -0.313  15.728  0.00  0.00    +0.000 C 
ATOM      6  C   UNL     1      42.517  -1.590  14.610  0.00  0.00    +0.000 C 
ATOM      7  C   UNL     1      41.900  -0.327  15.109  0.00  0.00    +0.000 C 
ATOM      8  C   UNL     1      42.458  -5.422  15.743  0.00  0.00    +0.000 C 
ATOM      9  C   UNL     1      40.196   0.796  16.705  0.00  0.00    +0.000 C 
ATOM     10  C   UNL     1      43.152  -6.720  15.588  0.00  0.00    +0.000 C 
ATOM     11  C   UNL     1      40.263  -4.190  15.919  0.00  0.00    +0.000 C 
ATOM     12  C   UNL     1      38.982  -1.741  16.735  0.00  0.00    +0.000 C 
ATOM     13  C   UNL     1      44.284  -4.316  14.570  0.00  0.00    +0.000 C 
ATOM     14  C   UNL     1      44.307  -6.992  14.442  0.00  0.00    +0.000 C 
ATOM     15  C   UNL     1      41.748  -3.465  13.148  0.00  0.00    +0.000 C 
ATOM     16  C   UNL     1      44.845  -5.660  14.165  0.00  0.00    +0.000 C 
ATOM     17  C   UNL     1      38.954   0.549  17.603  0.00  0.00    +0.000 C 
ATOM     18  C   UNL     1      41.194  -5.363  16.048  0.00  0.00    +0.000 C 
ATOM     19  C   UNL     1      38.930  -1.466  14.286  0.00  0.00    +0.000 C 
ATOM     20  C   UNL     1      38.500  -0.772  17.763  0.00  0.00    +0.000 C 
ATOM     21  C   UNL     1      43.588  -3.386  16.789  0.00  0.00    +0.000 C 
ATOM     22  C   UNL     1      43.234  -7.598  16.755  0.00  0.00    +0.000 C 
ATOM     23  C   UNL     1      45.245  -7.946  15.094  0.00  0.00    +0.000 C 
ATOM     24  C   UNL     1      44.073  -8.640  17.459  0.00  0.00    +0.000 C 
ATOM     25  C   UNL     1      39.947   2.111  15.895  0.00  0.00    +0.000 C 
ATOM     26  C   UNL     1      45.164  -8.719  16.435  0.00  0.00    +0.000 C 
ATOM     27  C   UNL     1      44.593  -8.115  18.810  0.00  0.00    +0.000 C 
ATOM     28  C   UNL     1      43.317  -9.973  17.599  0.00  0.00    +0.000 C 
ENDROOT
BRANCH  17  29
ATOM     29  O   UNL     1      38.128   1.592  17.986  0.00  0.00    +0.000 OA
ATOM     30  H   UNL     1      37.923   1.540  18.943  0.00  0.00    +0.000 HD
ENDBRANCH  17  29
BRANCH  14  32
ATOM     31  O   UNL     1      42.628  -7.211  12.653  0.00  0.00    +0.000 OA
ATOM     32  C   UNL     1      43.618  -7.638  13.234  0.00  0.00    +0.000 C 
BRANCH  32  33
ATOM     33  O   UNL     1      44.149  -8.821  12.855  0.00  0.00    +0.000 OA
ATOM     34  H   UNL     1      45.101  -8.636  12.701  0.00  0.00    +0.000 HD
ENDBRANCH  32  33
ENDBRANCH  14  32
BRANCH   9  35
ATOM     35  C   UNL     1      41.329   1.013  17.660  0.00  0.00    +0.000 C 
BRANCH  35  36
ATOM     36  O   UNL     1      42.346   1.193  18.508  0.00  0.00    +0.000 OA
ATOM     37  H   UNL     1      42.489   0.401  19.058  0.00  0.00    +0.000 HD
ENDBRANCH  35  36
ENDBRANCH   9  35
TORSDOF 5
ENDMDL
MODEL 3
REMARK VINA RESULT:      -6.9     11.667     15.922
REMARK  Name = 73299_Hederagenin.pdbqt.pdb
REMARK  5 active torsions:
REMARK  status: ('A' for Active; 'I' for Inactive)
REMARK    1  A    between atoms: C_9  and  C_35
REMARK    2  A    between atoms: C_14  and  C_32
REMARK    3  A    between atoms: C_17  and  O_29
REMARK    4  A    between atoms: C_32  and  O_33
REMARK    5  A    between atoms: C_35  and  O_36
REMARK                            x       y       z     vdW  Elec       q    Type
REMARK                         _______ _______ _______ _____ _____    ______ ____
ROOT
ATOM      1  C   UNL     1      40.702  -1.372  15.456  0.00  0.00    +0.000 C 
ATOM      2  C   UNL     1      42.263  -1.462  15.191  0.00  0.00    +0.000 C 
ATOM      3  C   UNL     1      42.899  -2.467  14.225  0.00  0.00    +0.000 C 
ATOM      4  C   UNL     1      40.352  -1.115  17.054  0.00  0.00    +0.000 C 
ATOM      5  C   UNL     1      42.211  -3.857  14.096  0.00  0.00    +0.000 C 
ATOM      6  C   UNL     1      40.155  -2.652  14.993  0.00  0.00    +0.000 C 
ATOM      7  C   UNL     1      40.813  -3.833  14.360  0.00  0.00    +0.000 C 
ATOM      8  C   UNL     1      41.231   0.096  17.687  0.00  0.00    +0.000 C 
ATOM      9  C   UNL     1      42.994  -5.174  13.969  0.00  0.00    +0.000 C 
ATOM     10  C   UNL     1      40.707   1.126  18.610  0.00  0.00    +0.000 C 
ATOM     11  C   UNL     1      43.005  -0.560  16.017  0.00  0.00    +0.000 C 
ATOM     12  C   UNL     1      44.266  -2.758  14.643  0.00  0.00    +0.000 C 
ATOM     13  C   UNL     1      38.960  -0.691  17.291  0.00  0.00    +0.000 C 
ATOM     14  C   UNL     1      39.142   1.649  18.583  0.00  0.00    +0.000 C 
ATOM     15  C   UNL     1      40.155  -0.192  14.552  0.00  0.00    +0.000 C 
ATOM     16  C   UNL     1      38.409   0.525  17.999  0.00  0.00    +0.000 C 
ATOM     17  C   UNL     1      44.543  -5.117  14.048  0.00  0.00    +0.000 C 
ATOM     18  C   UNL     1      42.434   0.177  17.195  0.00  0.00    +0.000 C 
ATOM     19  C   UNL     1      42.904  -1.823  12.815  0.00  0.00    +0.000 C 
ATOM     20  C   UNL     1      45.141  -3.966  14.591  0.00  0.00    +0.000 C 
ATOM     21  C   UNL     1      40.684  -2.383  17.953  0.00  0.00    +0.000 C 
ATOM     22  C   UNL     1      41.385   1.307  19.894  0.00  0.00    +0.000 C 
ATOM     23  C   UNL     1      38.836   1.951  20.007  0.00  0.00    +0.000 C 
ATOM     24  C   UNL     1      41.198   1.680  21.347  0.00  0.00    +0.000 C 
ATOM     25  C   UNL     1      42.609  -5.860  12.617  0.00  0.00    +0.000 C 
ATOM     26  C   UNL     1      39.736   1.994  21.270  0.00  0.00    +0.000 C 
ATOM     27  C   UNL     1      41.478   0.479  22.270  0.00  0.00    +0.000 C 
ATOM     28  C   UNL     1      42.033   2.917  21.723  0.00  0.00    +0.000 C 
ENDROOT
BRANCH  17  29
ATOM     29  O   UNL     1      45.331  -6.008  13.339  0.00  0.00    +0.000 OA
ATOM     30  H   UNL     1      44.829  -6.400  12.594  0.00  0.00    +0.000 HD
ENDBRANCH  17  29
BRANCH  14  32
ATOM     31  O   UNL     1      39.268   2.987  16.519  0.00  0.00    +0.000 OA
ATOM     32  C   UNL     1      39.094   2.922  17.729  0.00  0.00    +0.000 C 
BRANCH  32  33
ATOM     33  O   UNL     1      38.907   4.059  18.434  0.00  0.00    +0.000 OA
ATOM     34  H   UNL     1      38.179   3.855  19.060  0.00  0.00    +0.000 HD
ENDBRANCH  32  33
ENDBRANCH  14  32
BRANCH   9  35
ATOM     35  C   UNL     1      42.579  -6.058  15.105  0.00  0.00    +0.000 C 
BRANCH  35  36
ATOM     36  O   UNL     1      42.221  -6.855  16.115  0.00  0.00    +0.000 OA
ATOM     37  H   UNL     1      42.935  -6.929  16.774  0.00  0.00    +0.000 HD
ENDBRANCH  35  36
ENDBRANCH   9  35
TORSDOF 5
ENDMDL
MODEL 4
REMARK VINA RESULT:      -6.9      1.349      8.359
REMARK  Name = 73299_Hederagenin.pdbqt.pdb
REMARK  5 active torsions:
REMARK  status: ('A' for Active; 'I' for Inactive)
REMARK    1  A    between atoms: C_9  and  C_35
REMARK    2  A    between atoms: C_14  and  C_32
REMARK    3  A    between atoms: C_17  and  O_29
REMARK    4  A    between atoms: C_32  and  O_33
REMARK    5  A    between atoms: C_35  and  O_36
REMARK                            x       y       z     vdW  Elec       q    Type
REMARK                         _______ _______ _______ _____ _____    ______ ____
ROOT
ATOM      1  C   UNL     1      50.365   0.296   7.365  0.00  0.00    +0.000 C 
ATOM      2  C   UNL     1      51.258   0.543   6.078  0.00  0.00    +0.000 C 
ATOM      3  C   UNL     1      51.337  -0.439   4.904  0.00  0.00    +0.000 C 
ATOM      4  C   UNL     1      51.134   0.754   8.758  0.00  0.00    +0.000 C 
ATOM      5  C   UNL     1      51.214  -1.954   5.239  0.00  0.00    +0.000 C 
ATOM      6  C   UNL     1      50.076  -1.143   7.368  0.00  0.00    +0.000 C 
ATOM      7  C   UNL     1      50.450  -2.223   6.408  0.00  0.00    +0.000 C 
ATOM      8  C   UNL     1      51.781   2.240   8.641  0.00  0.00    +0.000 C 
ATOM      9  C   UNL     1      52.055  -3.039   4.546  0.00  0.00    +0.000 C 
ATOM     10  C   UNL     1      51.741   3.264   9.708  0.00  0.00    +0.000 C 
ATOM     11  C   UNL     1      52.039   1.737   6.182  0.00  0.00    +0.000 C 
ATOM     12  C   UNL     1      52.625  -0.302   4.231  0.00  0.00    +0.000 C 
ATOM     13  C   UNL     1      50.233   0.861   9.921  0.00  0.00    +0.000 C 
ATOM     14  C   UNL     1      50.514   3.373  10.807  0.00  0.00    +0.000 C 
ATOM     15  C   UNL     1      49.027   1.115   7.153  0.00  0.00    +0.000 C 
ATOM     16  C   UNL     1      49.972   2.015  10.859  0.00  0.00    +0.000 C 
ATOM     17  C   UNL     1      53.128  -2.590   3.519  0.00  0.00    +0.000 C 
ATOM     18  C   UNL     1      52.229   2.519   7.451  0.00  0.00    +0.000 C 
ATOM     19  C   UNL     1      50.189  -0.089   3.923  0.00  0.00    +0.000 C 
ATOM     20  C   UNL     1      53.545  -1.247   3.532  0.00  0.00    +0.000 C 
ATOM     21  C   UNL     1      52.353  -0.202   9.114  0.00  0.00    +0.000 C 
ATOM     22  C   UNL     1      53.009   3.843  10.153  0.00  0.00    +0.000 C 
ATOM     23  C   UNL     1      51.182   3.852  12.047  0.00  0.00    +0.000 C 
ATOM     24  C   UNL     1      53.754   4.424  11.333  0.00  0.00    +0.000 C 
ATOM     25  C   UNL     1      51.091  -4.038   3.826  0.00  0.00    +0.000 C 
ATOM     26  C   UNL     1      52.626   4.350  12.317  0.00  0.00    +0.000 C 
ATOM     27  C   UNL     1      54.933   3.523  11.745  0.00  0.00    +0.000 C 
ATOM     28  C   UNL     1      54.189   5.875  11.065  0.00  0.00    +0.000 C 
ENDROOT
BRANCH  17  29
ATOM     29  O   UNL     1      53.448  -3.378   2.426  0.00  0.00    +0.000 OA
ATOM     30  H   UNL     1      52.793  -4.098   2.312  0.00  0.00    +0.000 HD
ENDBRANCH  17  29
BRANCH  14  32
ATOM     31  O   UNL     1      49.686   5.624  10.247  0.00  0.00    +0.000 OA
ATOM     32  C   UNL     1      49.516   4.413  10.283  0.00  0.00    +0.000 C 
BRANCH  32  33
ATOM     33  O   UNL     1      48.326   3.899   9.900  0.00  0.00    +0.000 OA
ATOM     34  H   UNL     1      47.678   4.623  10.039  0.00  0.00    +0.000 HD
ENDBRANCH  32  33
ENDBRANCH  14  32
BRANCH   9  35
ATOM     35  C   UNL     1      52.817  -3.768   5.610  0.00  0.00    +0.000 C 
BRANCH  35  36
ATOM     36  O   UNL     1      53.483  -4.421   6.566  0.00  0.00    +0.000 OA
ATOM     37  H   UNL     1      54.171  -4.997   6.183  0.00  0.00    +0.000 HD
ENDBRANCH  35  36
ENDBRANCH   9  35
TORSDOF 5
ENDMDL
MODEL 5
REMARK VINA RESULT:      -6.8      2.637      4.258
REMARK  Name = 73299_Hederagenin.pdbqt.pdb
REMARK  5 active torsions:
REMARK  status: ('A' for Active; 'I' for Inactive)
REMARK    1  A    between atoms: C_9  and  C_35
REMARK    2  A    between atoms: C_14  and  C_32
REMARK    3  A    between atoms: C_17  and  O_29
REMARK    4  A    between atoms: C_32  and  O_33
REMARK    5  A    between atoms: C_35  and  O_36
REMARK                            x       y       z     vdW  Elec       q    Type
REMARK                         _______ _______ _______ _____ _____    ______ ____
ROOT
ATOM      1  C   UNL     1      51.594   1.020   7.528  0.00  0.00    +0.000 C 
ATOM      2  C   UNL     1      50.561   0.622   8.663  0.00  0.00    +0.000 C 
ATOM      3  C   UNL     1      50.478   1.336  10.017  0.00  0.00    +0.000 C 
ATOM      4  C   UNL     1      52.233  -0.307   6.771  0.00  0.00    +0.000 C 
ATOM      5  C   UNL     1      51.808   1.881  10.613  0.00  0.00    +0.000 C 
ATOM      6  C   UNL     1      52.637   1.798   8.206  0.00  0.00    +0.000 C 
ATOM      7  C   UNL     1      52.781   2.218   9.631  0.00  0.00    +0.000 C 
ATOM      8  C   UNL     1      51.088  -1.368   6.322  0.00  0.00    +0.000 C 
ATOM      9  C   UNL     1      52.152   1.807  12.110  0.00  0.00    +0.000 C 
ATOM     10  C   UNL     1      51.067  -2.092   5.032  0.00  0.00    +0.000 C 
ATOM     11  C   UNL     1      49.783  -0.525   8.310  0.00  0.00    +0.000 C 
ATOM     12  C   UNL     1      49.956   0.422  11.027  0.00  0.00    +0.000 C 
ATOM     13  C   UNL     1      52.923   0.012   5.507  0.00  0.00    +0.000 C 
ATOM     14  C   UNL     1      51.702  -1.472   3.641  0.00  0.00    +0.000 C 
ATOM     15  C   UNL     1      50.812   1.943   6.506  0.00  0.00    +0.000 C 
ATOM     16  C   UNL     1      52.713  -0.526   4.111  0.00  0.00    +0.000 C 
ATOM     17  C   UNL     1      51.154   1.088  13.056  0.00  0.00    +0.000 C 
ATOM     18  C   UNL     1      50.084  -1.430   7.149  0.00  0.00    +0.000 C 
ATOM     19  C   UNL     1      49.519   2.543   9.852  0.00  0.00    +0.000 C 
ATOM     20  C   UNL     1      50.195   0.231  12.488  0.00  0.00    +0.000 C 
ATOM     21  C   UNL     1      53.210  -1.127   7.720  0.00  0.00    +0.000 C 
ATOM     22  C   UNL     1      50.986  -3.553   5.066  0.00  0.00    +0.000 C 
ATOM     23  C   UNL     1      52.219  -2.665   2.917  0.00  0.00    +0.000 C 
ATOM     24  C   UNL     1      51.390  -4.828   4.361  0.00  0.00    +0.000 C 
ATOM     25  C   UNL     1      52.361   3.260  12.650  0.00  0.00    +0.000 C 
ATOM     26  C   UNL     1      52.082  -4.184   3.199  0.00  0.00    +0.000 C 
ATOM     27  C   UNL     1      52.363  -5.654   5.221  0.00  0.00    +0.000 C 
ATOM     28  C   UNL     1      50.160  -5.641   3.920  0.00  0.00    +0.000 C 
ENDROOT
BRANCH  17  29
ATOM     29  O   UNL     1      50.992   1.495  14.370  0.00  0.00    +0.000 OA
ATOM     30  H   UNL     1      51.102   0.739  14.985  0.00  0.00    +0.000 HD
ENDBRANCH  17  29
BRANCH  14  32
ATOM     31  O   UNL     1      49.752  -0.005   3.310  0.00  0.00    +0.000 OA
ATOM     32  C   UNL     1      50.557  -0.812   2.864  0.00  0.00    +0.000 C 
BRANCH  32  33
ATOM     33  O   UNL     1      50.425  -1.244   1.590  0.00  0.00    +0.000 OA
ATOM     34  H   UNL     1      51.343  -1.364   1.265  0.00  0.00    +0.000 HD
ENDBRANCH  32  33
ENDBRANCH  14  32
BRANCH   9  35
ATOM     35  C   UNL     1      53.433   1.042  12.242  0.00  0.00    +0.000 C 
BRANCH  35  36
ATOM     36  O   UNL     1      54.570   0.349  12.352  0.00  0.00    +0.000 OA
ATOM     37  H   UNL     1      54.422  -0.597  12.171  0.00  0.00    +0.000 HD
ENDBRANCH  35  36
ENDBRANCH   9  35
TORSDOF 5
ENDMDL
MODEL 6
REMARK VINA RESULT:      -6.7      2.405      4.819
REMARK  Name = 73299_Hederagenin.pdbqt.pdb
REMARK  5 active torsions:
REMARK  status: ('A' for Active; 'I' for Inactive)
REMARK    1  A    between atoms: C_9  and  C_35
REMARK    2  A    between atoms: C_14  and  C_32
REMARK    3  A    between atoms: C_17  and  O_29
REMARK    4  A    between atoms: C_32  and  O_33
REMARK    5  A    between atoms: C_35  and  O_36
REMARK                            x       y       z     vdW  Elec       q    Type
REMARK                         _______ _______ _______ _____ _____    ______ ____
ROOT
ATOM      1  C   UNL     1      51.326  -0.589   6.286  0.00  0.00    +0.000 C 
ATOM      2  C   UNL     1      50.220  -0.527   7.420  0.00  0.00    +0.000 C 
ATOM      3  C   UNL     1      49.811   0.769   8.129  0.00  0.00    +0.000 C 
ATOM      4  C   UNL     1      52.294  -1.925   6.429  0.00  0.00    +0.000 C 
ATOM      5  C   UNL     1      50.920   1.838   8.346  0.00  0.00    +0.000 C 
ATOM      6  C   UNL     1      52.103   0.647   6.432  0.00  0.00    +0.000 C 
ATOM      7  C   UNL     1      51.956   1.796   7.371  0.00  0.00    +0.000 C 
ATOM      8  C   UNL     1      51.433  -3.288   6.630  0.00  0.00    +0.000 C 
ATOM      9  C   UNL     1      51.043   2.674   9.631  0.00  0.00    +0.000 C 
ATOM     10  C   UNL     1      51.733  -4.581   5.976  0.00  0.00    +0.000 C 
ATOM     11  C   UNL     1      49.717  -1.823   7.758  0.00  0.00    +0.000 C 
ATOM     12  C   UNL     1      49.311   0.464   9.466  0.00  0.00    +0.000 C 
ATOM     13  C   UNL     1      53.100  -2.201   5.225  0.00  0.00    +0.000 C 
ATOM     14  C   UNL     1      52.453  -4.696   4.495  0.00  0.00    +0.000 C 
ATOM     15  C   UNL     1      50.558  -0.584   4.901  0.00  0.00    +0.000 C 
ATOM     16  C   UNL     1      53.200  -3.444   4.373  0.00  0.00    +0.000 C 
ATOM     17  C   UNL     1      50.055   2.383  10.792  0.00  0.00    +0.000 C 
ATOM     18  C   UNL     1      50.343  -3.117   7.321  0.00  0.00    +0.000 C 
ATOM     19  C   UNL     1      48.691   1.431   7.286  0.00  0.00    +0.000 C 
ATOM     20  C   UNL     1      49.357   1.162  10.784  0.00  0.00    +0.000 C 
ATOM     21  C   UNL     1      53.246  -1.845   7.701  0.00  0.00    +0.000 C 
ATOM     22  C   UNL     1      51.905  -5.758   6.828  0.00  0.00    +0.000 C 
ATOM     23  C   UNL     1      53.273  -5.933   4.587  0.00  0.00    +0.000 C 
ATOM     24  C   UNL     1      52.626  -7.077   6.980  0.00  0.00    +0.000 C 
ATOM     25  C   UNL     1      50.911   4.188   9.259  0.00  0.00    +0.000 C 
ATOM     26  C   UNL     1      53.362  -7.035   5.675  0.00  0.00    +0.000 C 
ATOM     27  C   UNL     1      53.589  -7.051   8.181  0.00  0.00    +0.000 C 
ATOM     28  C   UNL     1      51.638  -8.256   7.044  0.00  0.00    +0.000 C 
ENDROOT
BRANCH  17  29
ATOM     29  O   UNL     1      49.629   3.391  11.641  0.00  0.00    +0.000 OA
ATOM     30  H   UNL     1      50.369   3.719  12.193  0.00  0.00    +0.000 HD
ENDBRANCH  17  29
BRANCH  14  32
ATOM     31  O   UNL     1      51.250  -5.740   2.617  0.00  0.00    +0.000 OA
ATOM     32  C   UNL     1      51.340  -4.850   3.452  0.00  0.00    +0.000 C 
BRANCH  32  33
ATOM     33  O   UNL     1      50.433  -3.847   3.451  0.00  0.00    +0.000 OA
ATOM     34  H   UNL     1      49.622  -4.236   3.842  0.00  0.00    +0.000 HD
ENDBRANCH  32  33
ENDBRANCH  14  32
BRANCH   9  35
ATOM     35  C   UNL     1      52.403   2.424  10.206  0.00  0.00    +0.000 C 
BRANCH  35  36
ATOM     36  O   UNL     1      53.610   2.193  10.729  0.00  0.00    +0.000 OA
ATOM     37  H   UNL     1      53.548   2.006  11.684  0.00  0.00    +0.000 HD
ENDBRANCH  35  36
ENDBRANCH   9  35
TORSDOF 5
ENDMDL
MODEL 7
REMARK VINA RESULT:      -6.7     11.090     12.976
REMARK  Name = 73299_Hederagenin.pdbqt.pdb
REMARK  5 active torsions:
REMARK  status: ('A' for Active; 'I' for Inactive)
REMARK    1  A    between atoms: C_9  and  C_35
REMARK    2  A    between atoms: C_14  and  C_32
REMARK    3  A    between atoms: C_17  and  O_29
REMARK    4  A    between atoms: C_32  and  O_33
REMARK    5  A    between atoms: C_35  and  O_36
REMARK                            x       y       z     vdW  Elec       q    Type
REMARK                         _______ _______ _______ _____ _____    ______ ____
ROOT
ATOM      1  C   UNL     1      43.521  -4.097  14.505  0.00  0.00    +0.000 C 
ATOM      2  C   UNL     1      42.588  -3.656  13.301  0.00  0.00    +0.000 C 
ATOM      3  C   UNL     1      41.939  -2.271  13.199  0.00  0.00    +0.000 C 
ATOM      4  C   UNL     1      43.235  -5.659  14.977  0.00  0.00    +0.000 C 
ATOM      5  C   UNL     1      41.524  -1.584  14.533  0.00  0.00    +0.000 C 
ATOM      6  C   UNL     1      43.229  -3.153  15.589  0.00  0.00    +0.000 C 
ATOM      7  C   UNL     1      42.312  -1.978  15.651  0.00  0.00    +0.000 C 
ATOM      8  C   UNL     1      43.201  -6.685  13.718  0.00  0.00    +0.000 C 
ATOM      9  C   UNL     1      40.225  -0.777  14.694  0.00  0.00    +0.000 C 
ATOM     10  C   UNL     1      43.813  -8.031  13.710  0.00  0.00    +0.000 C 
ATOM     11  C   UNL     1      42.357  -4.722  12.375  0.00  0.00    +0.000 C 
ATOM     12  C   UNL     1      40.710  -2.357  12.418  0.00  0.00    +0.000 C 
ATOM     13  C   UNL     1      44.290  -6.213  15.846  0.00  0.00    +0.000 C 
ATOM     14  C   UNL     1      45.153  -8.418  14.592  0.00  0.00    +0.000 C 
ATOM     15  C   UNL     1      45.014  -3.911  14.014  0.00  0.00    +0.000 C 
ATOM     16  C   UNL     1      45.131  -7.460  15.697  0.00  0.00    +0.000 C 
ATOM     17  C   UNL     1      39.251  -0.707  13.487  0.00  0.00    +0.000 C 
ATOM     18  C   UNL     1      42.701  -6.161  12.636  0.00  0.00    +0.000 C 
ATOM     19  C   UNL     1      42.950  -1.332  12.492  0.00  0.00    +0.000 C 
ATOM     20  C   UNL     1      39.393  -1.656  12.459  0.00  0.00    +0.000 C 
ATOM     21  C   UNL     1      41.821  -5.823  15.685  0.00  0.00    +0.000 C 
ATOM     22  C   UNL     1      42.961  -9.171  13.369  0.00  0.00    +0.000 C 
ATOM     23  C   UNL     1      44.942  -9.842  14.964  0.00  0.00    +0.000 C 
ATOM     24  C   UNL     1      42.709 -10.641  13.614  0.00  0.00    +0.000 C 
ATOM     25  C   UNL     1      40.593   0.690  15.097  0.00  0.00    +0.000 C 
ATOM     26  C   UNL     1      43.870 -10.876  14.531  0.00  0.00    +0.000 C 
ATOM     27  C   UNL     1      41.362 -10.863  14.327  0.00  0.00    +0.000 C 
ATOM     28  C   UNL     1      42.827 -11.457  12.315  0.00  0.00    +0.000 C 
ENDROOT
BRANCH  17  29
ATOM     29  O   UNL     1      38.472   0.415  13.259  0.00  0.00    +0.000 OA
ATOM     30  H   UNL     1      38.893   1.215  13.638  0.00  0.00    +0.000 HD
ENDBRANCH  17  29
BRANCH  14  32
ATOM     31  O   UNL     1      47.136  -9.157  13.331  0.00  0.00    +0.000 OA
ATOM     32  C   UNL     1      46.371  -8.265  13.672  0.00  0.00    +0.000 C 
BRANCH  32  33
ATOM     33  O   UNL     1      46.620  -6.995  13.283  0.00  0.00    +0.000 OA
ATOM     34  H   UNL     1      47.358  -7.064  12.640  0.00  0.00    +0.000 HD
ENDBRANCH  32  33
ENDBRANCH  14  32
BRANCH   9  35
ATOM     35  C   UNL     1      39.434  -1.408  15.797  0.00  0.00    +0.000 C 
BRANCH  35  36
ATOM     36  O   UNL     1      38.718  -1.960  16.780  0.00  0.00    +0.000 OA
ATOM     37  H   UNL     1      38.061  -2.588  16.426  0.00  0.00    +0.000 HD
ENDBRANCH  35  36
ENDBRANCH   9  35
TORSDOF 5
ENDMDL
MODEL 8
REMARK VINA RESULT:      -6.6      5.165      8.259
REMARK  Name = 73299_Hederagenin.pdbqt.pdb
REMARK  5 active torsions:
REMARK  status: ('A' for Active; 'I' for Inactive)
REMARK    1  A    between atoms: C_9  and  C_35
REMARK    2  A    between atoms: C_14  and  C_32
REMARK    3  A    between atoms: C_17  and  O_29
REMARK    4  A    between atoms: C_32  and  O_33
REMARK    5  A    between atoms: C_35  and  O_36
REMARK                            x       y       z     vdW  Elec       q    Type
REMARK                         _______ _______ _______ _____ _____    ______ ____
ROOT
ATOM      1  C   UNL     1      52.076   3.196  10.695  0.00  0.00    +0.000 C 
ATOM      2  C   UNL     1      51.529   4.631  11.090  0.00  0.00    +0.000 C 
ATOM      3  C   UNL     1      50.923   5.611  10.081  0.00  0.00    +0.000 C 
ATOM      4  C   UNL     1      53.478   2.819  11.491  0.00  0.00    +0.000 C 
ATOM      5  C   UNL     1      51.507   5.594   8.638  0.00  0.00    +0.000 C 
ATOM      6  C   UNL     1      52.288   3.247   9.244  0.00  0.00    +0.000 C 
ATOM      7  C   UNL     1      52.043   4.334   8.251  0.00  0.00    +0.000 C 
ATOM      8  C   UNL     1      53.371   3.101  13.088  0.00  0.00    +0.000 C 
ATOM      9  C   UNL     1      51.740   6.869   7.811  0.00  0.00    +0.000 C 
ATOM     10  C   UNL     1      53.906   2.209  14.140  0.00  0.00    +0.000 C 
ATOM     11  C   UNL     1      51.747   4.931  12.472  0.00  0.00    +0.000 C 
ATOM     12  C   UNL     1      51.107   6.981  10.549  0.00  0.00    +0.000 C 
ATOM     13  C   UNL     1      53.831   1.389  11.416  0.00  0.00    +0.000 C 
ATOM     14  C   UNL     1      54.022   0.573  13.961  0.00  0.00    +0.000 C 
ATOM     15  C   UNL     1      50.927   2.162  11.036  0.00  0.00    +0.000 C 
ATOM     16  C   UNL     1      54.106   0.386  12.512  0.00  0.00    +0.000 C 
ATOM     17  C   UNL     1      51.444   8.240   8.476  0.00  0.00    +0.000 C 
ATOM     18  C   UNL     1      52.634   4.132  13.385  0.00  0.00    +0.000 C 
ATOM     19  C   UNL     1      49.410   5.291   9.968  0.00  0.00    +0.000 C 
ATOM     20  C   UNL     1      51.343   8.292   9.878  0.00  0.00    +0.000 C 
ATOM     21  C   UNL     1      54.706   3.698  10.995  0.00  0.00    +0.000 C 
ATOM     22  C   UNL     1      54.830   2.780  15.120  0.00  0.00    +0.000 C 
ATOM     23  C   UNL     1      55.241   0.211  14.732  0.00  0.00    +0.000 C 
ATOM     24  C   UNL     1      56.020   2.495  16.007  0.00  0.00    +0.000 C 
ATOM     25  C   UNL     1      50.888   6.780   6.501  0.00  0.00    +0.000 C 
ATOM     26  C   UNL     1      56.151   1.040  15.675  0.00  0.00    +0.000 C 
ATOM     27  C   UNL     1      57.254   3.298  15.557  0.00  0.00    +0.000 C 
ATOM     28  C   UNL     1      55.684   2.718  17.492  0.00  0.00    +0.000 C 
ENDROOT
BRANCH  17  29
ATOM     29  O   UNL     1      50.989   9.315   7.732  0.00  0.00    +0.000 OA
ATOM     30  H   UNL     1      50.020   9.424   7.834  0.00  0.00    +0.000 HD
ENDBRANCH  17  29
BRANCH  14  32
ATOM     31  O   UNL     1      51.766  -0.416  13.989  0.00  0.00    +0.000 OA
ATOM     32  C   UNL     1      52.769  -0.051  14.588  0.00  0.00    +0.000 C 
BRANCH  32  33
ATOM     33  O   UNL     1      52.797  -0.121  15.937  0.00  0.00    +0.000 OA
ATOM     34  H   UNL     1      51.857  -0.080  16.215  0.00  0.00    +0.000 HD
ENDBRANCH  32  33
ENDBRANCH  14  32
BRANCH   9  35
ATOM     35  C   UNL     1      53.193   6.916   7.451  0.00  0.00    +0.000 C 
BRANCH  35  36
ATOM     36  O   UNL     1      54.485   6.959   7.117  0.00  0.00    +0.000 OA
ATOM     37  H   UNL     1      54.626   7.520   6.332  0.00  0.00    +0.000 HD
ENDBRANCH  35  36
ENDBRANCH   9  35
TORSDOF 5
ENDMDL
MODEL 9
REMARK VINA RESULT:      -6.6     12.574     16.786
REMARK  Name = 73299_Hederagenin.pdbqt.pdb
REMARK  5 active torsions:
REMARK  status: ('A' for Active; 'I' for Inactive)
REMARK    1  A    between atoms: C_9  and  C_35
REMARK    2  A    between atoms: C_14  and  C_32
REMARK    3  A    between atoms: C_17  and  O_29
REMARK    4  A    between atoms: C_32  and  O_33
REMARK    5  A    between atoms: C_35  and  O_36
REMARK                            x       y       z     vdW  Elec       q    Type
REMARK                         _______ _______ _______ _____ _____    ______ ____
ROOT
ATOM      1  C   UNL     1      40.007  -1.625  17.424  0.00  0.00    +0.000 C 
ATOM      2  C   UNL     1      39.915  -0.670  16.160  0.00  0.00    +0.000 C 
ATOM      3  C   UNL     1      40.079  -1.162  14.718  0.00  0.00    +0.000 C 
ATOM      4  C   UNL     1      40.824  -0.921  18.680  0.00  0.00    +0.000 C 
ATOM      5  C   UNL     1      41.066  -2.342  14.479  0.00  0.00    +0.000 C 
ATOM      6  C   UNL     1      40.697  -2.830  16.951  0.00  0.00    +0.000 C 
ATOM      7  C   UNL     1      41.208  -3.206  15.601  0.00  0.00    +0.000 C 
ATOM      8  C   UNL     1      40.298   0.584  18.989  0.00  0.00    +0.000 C 
ATOM      9  C   UNL     1      42.005  -2.420  13.264  0.00  0.00    +0.000 C 
ATOM     10  C   UNL     1      40.088   1.145  20.342  0.00  0.00    +0.000 C 
ATOM     11  C   UNL     1      39.750   0.702  16.529  0.00  0.00    +0.000 C 
ATOM     12  C   UNL     1      40.577  -0.076  13.879  0.00  0.00    +0.000 C 
ATOM     13  C   UNL     1      40.641  -1.621  19.966  0.00  0.00    +0.000 C 
ATOM     14  C   UNL     1      39.660   0.224  21.642  0.00  0.00    +0.000 C 
ATOM     15  C   UNL     1      38.519  -1.979  17.833  0.00  0.00    +0.000 C 
ATOM     16  C   UNL     1      40.151  -1.111  21.301  0.00  0.00    +0.000 C 
ATOM     17  C   UNL     1      42.019  -1.228  12.270  0.00  0.00    +0.000 C 
ATOM     18  C   UNL     1      39.928   1.234  17.923  0.00  0.00    +0.000 C 
ATOM     19  C   UNL     1      38.685  -1.619  14.218  0.00  0.00    +0.000 C 
ATOM     20  C   UNL     1      41.479  -0.000  12.694  0.00  0.00    +0.000 C 
ATOM     21  C   UNL     1      42.377  -0.764  18.375  0.00  0.00    +0.000 C 
ATOM     22  C   UNL     1      40.770   2.395  20.680  0.00  0.00    +0.000 C 
ATOM     23  C   UNL     1      40.332   0.887  22.792  0.00  0.00    +0.000 C 
ATOM     24  C   UNL     1      41.406   3.191  21.797  0.00  0.00    +0.000 C 
ATOM     25  C   UNL     1      41.671  -3.715  12.454  0.00  0.00    +0.000 C 
ATOM     26  C   UNL     1      41.107   2.226  22.903  0.00  0.00    +0.000 C 
ATOM     27  C   UNL     1      42.920   3.352  21.572  0.00  0.00    +0.000 C 
ATOM     28  C   UNL     1      40.695   4.540  22.002  0.00  0.00    +0.000 C 
ENDROOT
BRANCH  17  29
ATOM     29  O   UNL     1      42.259  -1.423  10.920  0.00  0.00    +0.000 OA
ATOM     30  H   UNL     1      43.154  -1.795  10.776  0.00  0.00    +0.000 HD
ENDBRANCH  17  29
BRANCH  14  32
ATOM     31  O   UNL     1      37.420  -0.510  22.356  0.00  0.00    +0.000 OA
ATOM     32  C   UNL     1      38.134   0.299  21.780  0.00  0.00    +0.000 C 
BRANCH  32  33
ATOM     33  O   UNL     1      37.567   1.339  21.129  0.00  0.00    +0.000 OA
ATOM     34  H   UNL     1      38.319   1.856  20.768  0.00  0.00    +0.000 HD
ENDBRANCH  32  33
ENDBRANCH  14  32
BRANCH   9  35
ATOM     35  C   UNL     1      43.407  -2.510  13.782  0.00  0.00    +0.000 C 
BRANCH  35  36
ATOM     36  O   UNL     1      44.658  -2.606  14.242  0.00  0.00    +0.000 OA
ATOM     37  H   UNL     1      44.743  -2.183  15.117  0.00  0.00    +0.000 HD
ENDBRANCH  35  36
ENDBRANCH   9  35
TORSDOF 5
ENDMDL
