MODEL 1
REMARK VINA RESULT:      -7.9      0.000      0.000
REMARK  Name = 73659_MaslinicAcid.pdbqt.pdb
REMARK  4 active torsions:
REMARK  status: ('A' for Active; 'I' for Inactive)
REMARK    1  A    between atoms: C_14  and  C_35
REMARK    2  A    between atoms: C_17  and  O_30
REMARK    3  A    between atoms: C_19  and  O_32
REMARK    4  A    between atoms: C_35  and  O_36
REMARK                            x       y       z     vdW  Elec       q    Type
REMARK                         _______ _______ _______ _____ _____    ______ ____
ROOT
ATOM      1  C   UNL     1      51.375  -1.174   6.766  0.00  0.00    +0.000 C 
ATOM      2  C   UNL     1      50.759  -0.802   5.350  0.00  0.00    +0.000 C 
ATOM      3  C   UNL     1      50.904  -1.688   4.108  0.00  0.00    +0.000 C 
ATOM      4  C   UNL     1      52.013   0.144   7.537  0.00  0.00    +0.000 C 
ATOM      5  C   UNL     1      52.191  -2.510   3.975  0.00  0.00    +0.000 C 
ATOM      6  C   UNL     1      52.406  -2.179   6.484  0.00  0.00    +0.000 C 
ATOM      7  C   UNL     1      52.823  -2.831   5.207  0.00  0.00    +0.000 C 
ATOM      8  C   UNL     1      50.988   1.405   7.542  0.00  0.00    +0.000 C 
ATOM      9  C   UNL     1      52.776  -2.791   2.600  0.00  0.00    +0.000 C 
ATOM     10  C   UNL     1      50.737   2.287   8.703  0.00  0.00    +0.000 C 
ATOM     11  C   UNL     1      50.128   0.481   5.355  0.00  0.00    +0.000 C 
ATOM     12  C   UNL     1      50.889  -0.865   2.909  0.00  0.00    +0.000 C 
ATOM     13  C   UNL     1      52.283  -0.087   8.968  0.00  0.00    +0.000 C 
ATOM     14  C   UNL     1      50.863   1.776  10.267  0.00  0.00    +0.000 C 
ATOM     15  C   UNL     1      50.206  -1.827   7.609  0.00  0.00    +0.000 C 
ATOM     16  C   UNL     1      51.799   0.654  10.193  0.00  0.00    +0.000 C 
ATOM     17  C   UNL     1      52.320  -1.916   1.405  0.00  0.00    +0.000 C 
ATOM     18  C   UNL     1      49.712  -2.674   4.096  0.00  0.00    +0.000 C 
ATOM     19  C   UNL     1      51.442  -0.818   1.634  0.00  0.00    +0.000 C 
ATOM     20  C   UNL     1      50.264   1.488   6.461  0.00  0.00    +0.000 C 
ATOM     21  C   UNL     1      53.326   0.679   6.821  0.00  0.00    +0.000 C 
ATOM     22  C   UNL     1      50.901   3.728   8.520  0.00  0.00    +0.000 C 
ATOM     23  C   UNL     1      51.345   2.976  11.001  0.00  0.00    +0.000 C 
ATOM     24  C   UNL     1      51.292   5.023   9.197  0.00  0.00    +0.000 C 
ATOM     25  C   UNL     1      54.328  -2.572   2.665  0.00  0.00    +0.000 C 
ATOM     26  C   UNL     1      52.504  -4.275   2.220  0.00  0.00    +0.000 C 
ATOM     27  C   UNL     1      51.531   4.451  10.561  0.00  0.00    +0.000 C 
ATOM     28  C   UNL     1      50.131   6.034   9.193  0.00  0.00    +0.000 C 
ATOM     29  C   UNL     1      52.580   5.604   8.586  0.00  0.00    +0.000 C 
ENDROOT
BRANCH  17  30
ATOM     30  O   UNL     1      52.702  -2.151   0.086  0.00  0.00    +0.000 OA
ATOM     31  H   UNL     1      52.266  -2.952  -0.270  0.00  0.00    +0.000 HD
ENDBRANCH  17  30
BRANCH  19  32
ATOM     32  O   UNL     1      50.878  -0.146   0.592  0.00  0.00    +0.000 OA
ATOM     33  H   UNL     1      51.562   0.219  -0.002  0.00  0.00    +0.000 HD
ENDBRANCH  19  32
BRANCH  14  35
ATOM     34  O   UNL     1      48.918   0.289  10.545  0.00  0.00    +0.000 OA
ATOM     35  C   UNL     1      49.462   1.369  10.737  0.00  0.00    +0.000 C 
BRANCH  35  36
ATOM     36  O   UNL     1      48.777   2.354  11.359  0.00  0.00    +0.000 OA
ATOM     37  H   UNL     1      49.265   3.179  11.144  0.00  0.00    +0.000 HD
ENDBRANCH  35  36
ENDBRANCH  14  35
TORSDOF 4
ENDMDL
MODEL 2
REMARK VINA RESULT:      -7.6      1.926      8.536
REMARK  Name = 73659_MaslinicAcid.pdbqt.pdb
REMARK  4 active torsions:
REMARK  status: ('A' for Active; 'I' for Inactive)
REMARK    1  A    between atoms: C_14  and  C_35
REMARK    2  A    between atoms: C_17  and  O_30
REMARK    3  A    between atoms: C_19  and  O_32
REMARK    4  A    between atoms: C_35  and  O_36
REMARK                            x       y       z     vdW  Elec       q    Type
REMARK                         _______ _______ _______ _____ _____    ______ ____
ROOT
ATOM      1  C   UNL     1      51.412   1.238   7.484  0.00  0.00    +0.000 C 
ATOM      2  C   UNL     1      50.448   0.807   8.671  0.00  0.00    +0.000 C 
ATOM      3  C   UNL     1      50.374   1.547  10.010  0.00  0.00    +0.000 C 
ATOM      4  C   UNL     1      52.091  -0.066   6.725  0.00  0.00    +0.000 C 
ATOM      5  C   UNL     1      51.663   2.198  10.526  0.00  0.00    +0.000 C 
ATOM      6  C   UNL     1      52.434   2.085   8.110  0.00  0.00    +0.000 C 
ATOM      7  C   UNL     1      52.594   2.560   9.516  0.00  0.00    +0.000 C 
ATOM      8  C   UNL     1      50.987  -1.193   6.339  0.00  0.00    +0.000 C 
ATOM      9  C   UNL     1      51.929   2.278  12.021  0.00  0.00    +0.000 C 
ATOM     10  C   UNL     1      50.939  -1.926   5.055  0.00  0.00    +0.000 C 
ATOM     11  C   UNL     1      49.722  -0.389   8.370  0.00  0.00    +0.000 C 
ATOM     12  C   UNL     1      50.002   0.622  11.067  0.00  0.00    +0.000 C 
ATOM     13  C   UNL     1      52.712   0.268   5.430  0.00  0.00    +0.000 C 
ATOM     14  C   UNL     1      51.477  -1.286   3.631  0.00  0.00    +0.000 C 
ATOM     15  C   UNL     1      50.539   2.100   6.484  0.00  0.00    +0.000 C 
ATOM     16  C   UNL     1      52.467  -0.293   4.047  0.00  0.00    +0.000 C 
ATOM     17  C   UNL     1      51.126   1.352  12.970  0.00  0.00    +0.000 C 
ATOM     18  C   UNL     1      49.308   2.660   9.871  0.00  0.00    +0.000 C 
ATOM     19  C   UNL     1      50.231   0.390  12.419  0.00  0.00    +0.000 C 
ATOM     20  C   UNL     1      50.024  -1.295   7.211  0.00  0.00    +0.000 C 
ATOM     21  C   UNL     1      53.144  -0.815   7.649  0.00  0.00    +0.000 C 
ATOM     22  C   UNL     1      50.923  -3.387   5.096  0.00  0.00    +0.000 C 
ATOM     23  C   UNL     1      52.008  -2.459   2.887  0.00  0.00    +0.000 C 
ATOM     24  C   UNL     1      51.344  -4.648   4.375  0.00  0.00    +0.000 C 
ATOM     25  C   UNL     1      53.426   1.888  12.282  0.00  0.00    +0.000 C 
ATOM     26  C   UNL     1      51.711   3.740  12.505  0.00  0.00    +0.000 C 
ATOM     27  C   UNL     1      51.950  -3.981   3.177  0.00  0.00    +0.000 C 
ATOM     28  C   UNL     1      50.128  -5.513   3.996  0.00  0.00    +0.000 C 
ATOM     29  C   UNL     1      52.393  -5.430   5.186  0.00  0.00    +0.000 C 
ENDROOT
BRANCH  17  30
ATOM     30  O   UNL     1      51.205   1.414  14.359  0.00  0.00    +0.000 OA
ATOM     31  H   UNL     1      50.339   1.651  14.752  0.00  0.00    +0.000 HD
ENDBRANCH  17  30
BRANCH  19  32
ATOM     32  O   UNL     1      49.378  -0.308  13.220  0.00  0.00    +0.000 OA
ATOM     33  H   UNL     1      48.481   0.077  13.196  0.00  0.00    +0.000 HD
ENDBRANCH  19  32
BRANCH  14  35
ATOM     34  O   UNL     1      49.984   0.512   2.852  0.00  0.00    +0.000 OA
ATOM     35  C   UNL     1      50.269  -0.676   2.910  0.00  0.00    +0.000 C 
BRANCH  35  36
ATOM     36  O   UNL     1      49.434  -1.586   2.359  0.00  0.00    +0.000 OA
ATOM     37  H   UNL     1      49.381  -2.314   3.016  0.00  0.00    +0.000 HD
ENDBRANCH  35  36
ENDBRANCH  14  35
TORSDOF 4
ENDMDL
MODEL 3
REMARK VINA RESULT:      -7.6      2.760      8.591
REMARK  Name = 73659_MaslinicAcid.pdbqt.pdb
REMARK  4 active torsions:
REMARK  status: ('A' for Active; 'I' for Inactive)
REMARK    1  A    between atoms: C_14  and  C_35
REMARK    2  A    between atoms: C_17  and  O_30
REMARK    3  A    between atoms: C_19  and  O_32
REMARK    4  A    between atoms: C_35  and  O_36
REMARK                            x       y       z     vdW  Elec       q    Type
REMARK                         _______ _______ _______ _____ _____    ______ ____
ROOT
ATOM      1  C   UNL     1      51.365  -0.901   6.451  0.00  0.00    +0.000 C 
ATOM      2  C   UNL     1      50.243  -0.676   7.553  0.00  0.00    +0.000 C 
ATOM      3  C   UNL     1      49.941   0.686   8.185  0.00  0.00    +0.000 C 
ATOM      4  C   UNL     1      52.193  -2.315   6.680  0.00  0.00    +0.000 C 
ATOM      5  C   UNL     1      51.114   1.659   8.354  0.00  0.00    +0.000 C 
ATOM      6  C   UNL     1      52.251   0.263   6.565  0.00  0.00    +0.000 C 
ATOM      7  C   UNL     1      52.178   1.476   7.431  0.00  0.00    +0.000 C 
ATOM      8  C   UNL     1      51.196  -3.577   6.915  0.00  0.00    +0.000 C 
ATOM      9  C   UNL     1      51.144   2.616   9.536  0.00  0.00    +0.000 C 
ATOM     10  C   UNL     1      51.369  -4.916   6.310  0.00  0.00    +0.000 C 
ATOM     11  C   UNL     1      49.609  -1.900   7.937  0.00  0.00    +0.000 C 
ATOM     12  C   UNL     1      49.438   0.505   9.537  0.00  0.00    +0.000 C 
ATOM     13  C   UNL     1      52.996  -2.721   5.512  0.00  0.00    +0.000 C 
ATOM     14  C   UNL     1      52.101  -5.157   4.849  0.00  0.00    +0.000 C 
ATOM     15  C   UNL     1      50.631  -0.881   5.049  0.00  0.00    +0.000 C 
ATOM     16  C   UNL     1      52.983  -3.999   4.706  0.00  0.00    +0.000 C 
ATOM     17  C   UNL     1      50.233   2.322  10.755  0.00  0.00    +0.000 C 
ATOM     18  C   UNL     1      48.875   1.383   7.306  0.00  0.00    +0.000 C 
ATOM     19  C   UNL     1      49.464   1.123  10.782  0.00  0.00    +0.000 C 
ATOM     20  C   UNL     1      50.114  -3.267   7.571  0.00  0.00    +0.000 C 
ATOM     21  C   UNL     1      53.113  -2.266   7.974  0.00  0.00    +0.000 C 
ATOM     22  C   UNL     1      51.393  -6.075   7.200  0.00  0.00    +0.000 C 
ATOM     23  C   UNL     1      52.776  -6.474   4.998  0.00  0.00    +0.000 C 
ATOM     24  C   UNL     1      51.958  -7.463   7.406  0.00  0.00    +0.000 C 
ATOM     25  C   UNL     1      52.594   2.624  10.134  0.00  0.00    +0.000 C 
ATOM     26  C   UNL     1      50.809   4.053   9.042  0.00  0.00    +0.000 C 
ATOM     27  C   UNL     1      52.721  -7.544   6.118  0.00  0.00    +0.000 C 
ATOM     28  C   UNL     1      50.842  -8.521   7.481  0.00  0.00    +0.000 C 
ATOM     29  C   UNL     1      52.893  -7.506   8.628  0.00  0.00    +0.000 C 
ENDROOT
BRANCH  17  30
ATOM     30  O   UNL     1      50.095   3.182  11.841  0.00  0.00    +0.000 OA
ATOM     31  H   UNL     1      50.927   3.670  12.013  0.00  0.00    +0.000 HD
ENDBRANCH  17  30
BRANCH  19  32
ATOM     32  O   UNL     1      48.520   0.922  11.743  0.00  0.00    +0.000 OA
ATOM     33  H   UNL     1      48.908   0.503  12.535  0.00  0.00    +0.000 HD
ENDBRANCH  19  32
BRANCH  14  35
ATOM     34  O   UNL     1      50.287  -4.292   3.423  0.00  0.00    +0.000 OA
ATOM     35  C   UNL     1      51.000  -5.219   3.784  0.00  0.00    +0.000 C 
BRANCH  35  36
ATOM     36  O   UNL     1      50.792  -6.453   3.272  0.00  0.00    +0.000 OA
ATOM     37  H   UNL     1      50.408  -6.974   4.010  0.00  0.00    +0.000 HD
ENDBRANCH  35  36
ENDBRANCH  14  35
TORSDOF 4
ENDMDL
MODEL 4
REMARK VINA RESULT:      -7.3      1.966      2.976
REMARK  Name = 73659_MaslinicAcid.pdbqt.pdb
REMARK  4 active torsions:
REMARK  status: ('A' for Active; 'I' for Inactive)
REMARK    1  A    between atoms: C_14  and  C_35
REMARK    2  A    between atoms: C_17  and  O_30
REMARK    3  A    between atoms: C_19  and  O_32
REMARK    4  A    between atoms: C_35  and  O_36
REMARK                            x       y       z     vdW  Elec       q    Type
REMARK                         _______ _______ _______ _____ _____    ______ ____
ROOT
ATOM      1  C   UNL     1      50.308   0.411   7.591  0.00  0.00    +0.000 C 
ATOM      2  C   UNL     1      51.252   0.536   6.320  0.00  0.00    +0.000 C 
ATOM      3  C   UNL     1      51.331  -0.526   5.219  0.00  0.00    +0.000 C 
ATOM      4  C   UNL     1      51.044   0.947   8.973  0.00  0.00    +0.000 C 
ATOM      5  C   UNL     1      51.118  -1.987   5.634  0.00  0.00    +0.000 C 
ATOM      6  C   UNL     1      49.973  -1.014   7.681  0.00  0.00    +0.000 C 
ATOM      7  C   UNL     1      50.324  -2.166   6.799  0.00  0.00    +0.000 C 
ATOM      8  C   UNL     1      51.739   2.402   8.771  0.00  0.00    +0.000 C 
ATOM      9  C   UNL     1      51.856  -3.100   4.906  0.00  0.00    +0.000 C 
ATOM     10  C   UNL     1      51.677   3.512   9.748  0.00  0.00    +0.000 C 
ATOM     11  C   UNL     1      52.069   1.710   6.366  0.00  0.00    +0.000 C 
ATOM     12  C   UNL     1      52.655  -0.522   4.620  0.00  0.00    +0.000 C 
ATOM     13  C   UNL     1      50.108   1.162  10.091  0.00  0.00    +0.000 C 
ATOM     14  C   UNL     1      50.408   3.733  10.782  0.00  0.00    +0.000 C 
ATOM     15  C   UNL     1      49.004   1.249   7.269  0.00  0.00    +0.000 C 
ATOM     16  C   UNL     1      49.838   2.394  10.925  0.00  0.00    +0.000 C 
ATOM     17  C   UNL     1      53.102  -2.736   4.059  0.00  0.00    +0.000 C 
ATOM     18  C   UNL     1      50.261  -0.178   4.157  0.00  0.00    +0.000 C 
ATOM     19  C   UNL     1      53.579  -1.394   4.055  0.00  0.00    +0.000 C 
ATOM     20  C   UNL     1      52.238   2.578   7.580  0.00  0.00    +0.000 C 
ATOM     21  C   UNL     1      52.221  -0.015   9.435  0.00  0.00    +0.000 C 
ATOM     22  C   UNL     1      52.935   4.106  10.196  0.00  0.00    +0.000 C 
ATOM     23  C   UNL     1      51.034   4.306  12.003  0.00  0.00    +0.000 C 
ATOM     24  C   UNL     1      53.642   4.777  11.352  0.00  0.00    +0.000 C 
ATOM     25  C   UNL     1      52.400  -4.115   5.971  0.00  0.00    +0.000 C 
ATOM     26  C   UNL     1      50.863  -3.851   3.974  0.00  0.00    +0.000 C 
ATOM     27  C   UNL     1      52.474   4.805  12.290  0.00  0.00    +0.000 C 
ATOM     28  C   UNL     1      54.113   6.194  10.978  0.00  0.00    +0.000 C 
ATOM     29  C   UNL     1      54.787   3.899  11.890  0.00  0.00    +0.000 C 
ENDROOT
BRANCH  17  30
ATOM     30  O   UNL     1      53.788  -3.650   3.264  0.00  0.00    +0.000 OA
ATOM     31  H   UNL     1      53.167  -4.224   2.768  0.00  0.00    +0.000 HD
ENDBRANCH  17  30
BRANCH  19  32
ATOM     32  O   UNL     1      54.551  -1.002   3.185  0.00  0.00    +0.000 OA
ATOM     33  H   UNL     1      55.406  -1.424   3.399  0.00  0.00    +0.000 HD
ENDBRANCH  19  32
BRANCH  14  35
ATOM     34  O   UNL     1      49.745   5.838   9.687  0.00  0.00    +0.000 OA
ATOM     35  C   UNL     1      49.449   4.737  10.131  0.00  0.00    +0.000 C 
BRANCH  35  36
ATOM     36  O   UNL     1      48.154   4.348  10.132  0.00  0.00    +0.000 OA
ATOM     37  H   UNL     1      47.695   4.992  10.715  0.00  0.00    +0.000 HD
ENDBRANCH  35  36
ENDBRANCH  14  35
TORSDOF 4
ENDMDL
MODEL 5
REMARK VINA RESULT:      -7.3      2.008      3.439
REMARK  Name = 73659_MaslinicAcid.pdbqt.pdb
REMARK  4 active torsions:
REMARK  status: ('A' for Active; 'I' for Inactive)
REMARK    1  A    between atoms: C_14  and  C_35
REMARK    2  A    between atoms: C_17  and  O_30
REMARK    3  A    between atoms: C_19  and  O_32
REMARK    4  A    between atoms: C_35  and  O_36
REMARK                            x       y       z     vdW  Elec       q    Type
REMARK                         _______ _______ _______ _____ _____    ______ ____
ROOT
ATOM      1  C   UNL     1      51.733   0.924   9.429  0.00  0.00    +0.000 C 
ATOM      2  C   UNL     1      50.875   0.669   8.116  0.00  0.00    +0.000 C 
ATOM      3  C   UNL     1      50.807  -0.685   7.403  0.00  0.00    +0.000 C 
ATOM      4  C   UNL     1      52.485   2.398   9.408  0.00  0.00    +0.000 C 
ATOM      5  C   UNL     1      52.057  -1.571   7.453  0.00  0.00    +0.000 C 
ATOM      6  C   UNL     1      52.706  -0.173   9.470  0.00  0.00    +0.000 C 
ATOM      7  C   UNL     1      52.897  -1.355   8.577  0.00  0.00    +0.000 C 
ATOM      8  C   UNL     1      51.468   3.599   9.006  0.00  0.00    +0.000 C 
ATOM      9  C   UNL     1      52.393  -2.478   6.279  0.00  0.00    +0.000 C 
ATOM     10  C   UNL     1      51.418   4.922   9.667  0.00  0.00    +0.000 C 
ATOM     11  C   UNL     1      50.245   1.862   7.641  0.00  0.00    +0.000 C 
ATOM     12  C   UNL     1      50.575  -0.485   5.982  0.00  0.00    +0.000 C 
ATOM     13  C   UNL     1      53.005   2.810  10.725  0.00  0.00    +0.000 C 
ATOM     14  C   UNL     1      51.820   5.154  11.251  0.00  0.00    +0.000 C 
ATOM     15  C   UNL     1      50.734   0.802  10.651  0.00  0.00    +0.000 C 
ATOM     16  C   UNL     1      52.737   4.053  11.543  0.00  0.00    +0.000 C 
ATOM     17  C   UNL     1      51.728  -2.197   4.907  0.00  0.00    +0.000 C 
ATOM     18  C   UNL     1      49.639  -1.484   8.029  0.00  0.00    +0.000 C 
ATOM     19  C   UNL     1      50.896  -1.051   4.753  0.00  0.00    +0.000 C 
ATOM     20  C   UNL     1      50.566   3.244   8.135  0.00  0.00    +0.000 C 
ATOM     21  C   UNL     1      53.649   2.460   8.328  0.00  0.00    +0.000 C 
ATOM     22  C   UNL     1      51.537   6.114   8.829  0.00  0.00    +0.000 C 
ATOM     23  C   UNL     1      52.415   6.517  11.275  0.00  0.00    +0.000 C 
ATOM     24  C   UNL     1      52.030   7.543   8.776  0.00  0.00    +0.000 C 
ATOM     25  C   UNL     1      53.931  -2.367   5.989  0.00  0.00    +0.000 C 
ATOM     26  C   UNL     1      52.071  -3.952   6.659  0.00  0.00    +0.000 C 
ATOM     27  C   UNL     1      52.509   7.624  10.194  0.00  0.00    +0.000 C 
ATOM     28  C   UNL     1      50.879   8.527   8.501  0.00  0.00    +0.000 C 
ATOM     29  C   UNL     1      53.187   7.695   7.771  0.00  0.00    +0.000 C 
ENDROOT
BRANCH  17  30
ATOM     30  O   UNL     1      51.875  -3.022   3.795  0.00  0.00    +0.000 OA
ATOM     31  H   UNL     1      52.110  -2.503   2.998  0.00  0.00    +0.000 HD
ENDBRANCH  17  30
BRANCH  19  32
ATOM     32  O   UNL     1      50.153  -0.876   3.625  0.00  0.00    +0.000 OA
ATOM     33  H   UNL     1      49.349  -0.354   3.812  0.00  0.00    +0.000 HD
ENDBRANCH  19  32
BRANCH  14  35
ATOM     34  O   UNL     1      50.213   5.859  12.980  0.00  0.00    +0.000 OA
ATOM     35  C   UNL     1      50.526   5.102  12.071  0.00  0.00    +0.000 C 
BRANCH  35  36
ATOM     36  O   UNL     1      49.716   4.063  11.765  0.00  0.00    +0.000 OA
ATOM     37  H   UNL     1      50.305   3.395  11.350  0.00  0.00    +0.000 HD
ENDBRANCH  35  36
ENDBRANCH  14  35
TORSDOF 4
ENDMDL
MODEL 6
REMARK VINA RESULT:      -7.3      5.921      9.400
REMARK  Name = 73659_MaslinicAcid.pdbqt.pdb
REMARK  4 active torsions:
REMARK  status: ('A' for Active; 'I' for Inactive)
REMARK    1  A    between atoms: C_14  and  C_35
REMARK    2  A    between atoms: C_17  and  O_30
REMARK    3  A    between atoms: C_19  and  O_32
REMARK    4  A    between atoms: C_35  and  O_36
REMARK                            x       y       z     vdW  Elec       q    Type
REMARK                         _______ _______ _______ _____ _____    ______ ____
ROOT
ATOM      1  C   UNL     1      54.266   6.065   9.329  0.00  0.00    +0.000 C 
ATOM      2  C   UNL     1      52.688   6.135   9.499  0.00  0.00    +0.000 C 
ATOM      3  C   UNL     1      51.916   5.330  10.549  0.00  0.00    +0.000 C 
ATOM      4  C   UNL     1      54.725   6.076   7.739  0.00  0.00    +0.000 C 
ATOM      5  C   UNL     1      52.473   3.954  10.931  0.00  0.00    +0.000 C 
ATOM      6  C   UNL     1      54.668   4.821   9.994  0.00  0.00    +0.000 C 
ATOM      7  C   UNL     1      53.875   3.807  10.751  0.00  0.00    +0.000 C 
ATOM      8  C   UNL     1      53.994   7.258   6.898  0.00  0.00    +0.000 C 
ATOM      9  C   UNL     1      51.525   2.829  11.315  0.00  0.00    +0.000 C 
ATOM     10  C   UNL     1      54.661   8.126   5.903  0.00  0.00    +0.000 C 
ATOM     11  C   UNL     1      52.074   6.971   8.513  0.00  0.00    +0.000 C 
ATOM     12  C   UNL     1      50.575   5.043  10.065  0.00  0.00    +0.000 C 
ATOM     13  C   UNL     1      56.161   6.350   7.545  0.00  0.00    +0.000 C 
ATOM     14  C   UNL     1      56.261   8.523   5.983  0.00  0.00    +0.000 C 
ATOM     15  C   UNL     1      54.859   7.307  10.110  0.00  0.00    +0.000 C 
ATOM     16  C   UNL     1      56.857   7.422   6.738  0.00  0.00    +0.000 C 
ATOM     17  C   UNL     1      50.031   2.948  10.921  0.00  0.00    +0.000 C 
ATOM     18  C   UNL     1      51.849   6.185  11.836  0.00  0.00    +0.000 C 
ATOM     19  C   UNL     1      49.599   4.054  10.134  0.00  0.00    +0.000 C 
ATOM     20  C   UNL     1      52.775   7.496   7.293  0.00  0.00    +0.000 C 
ATOM     21  C   UNL     1      54.330   4.730   6.993  0.00  0.00    +0.000 C 
ATOM     22  C   UNL     1      54.081   8.209   4.563  0.00  0.00    +0.000 C 
ATOM     23  C   UNL     1      56.677   8.633   4.559  0.00  0.00    +0.000 C 
ATOM     24  C   UNL     1      54.386   8.398   3.095  0.00  0.00    +0.000 C 
ATOM     25  C   UNL     1      52.004   1.512  10.610  0.00  0.00    +0.000 C 
ATOM     26  C   UNL     1      51.584   2.611  12.854  0.00  0.00    +0.000 C 
ATOM     27  C   UNL     1      55.864   8.603   3.239  0.00  0.00    +0.000 C 
ATOM     28  C   UNL     1      53.686   9.647   2.529  0.00  0.00    +0.000 C 
ATOM     29  C   UNL     1      54.061   7.126   2.290  0.00  0.00    +0.000 C 
ENDROOT
BRANCH  17  30
ATOM     30  O   UNL     1      49.054   2.037  11.314  0.00  0.00    +0.000 OA
ATOM     31  H   UNL     1      49.087   1.225  10.765  0.00  0.00    +0.000 HD
ENDBRANCH  17  30
BRANCH  19  32
ATOM     32  O   UNL     1      48.274   4.288   9.927  0.00  0.00    +0.000 OA
ATOM     33  H   UNL     1      48.141   4.993   9.264  0.00  0.00    +0.000 HD
ENDBRANCH  19  32
BRANCH  14  35
ATOM     34  O   UNL     1      56.903  10.088   7.774  0.00  0.00    +0.000 OA
ATOM     35  C   UNL     1      56.368   9.877   6.694  0.00  0.00    +0.000 C 
BRANCH  35  36
ATOM     36  O   UNL     1      55.737  10.890   6.058  0.00  0.00    +0.000 OA
ATOM     37  H   UNL     1      55.526  10.538   5.166  0.00  0.00    +0.000 HD
ENDBRANCH  35  36
ENDBRANCH  14  35
TORSDOF 4
ENDMDL
MODEL 7
REMARK VINA RESULT:      -7.0      6.707      9.075
REMARK  Name = 73659_MaslinicAcid.pdbqt.pdb
REMARK  4 active torsions:
REMARK  status: ('A' for Active; 'I' for Inactive)
REMARK    1  A    between atoms: C_14  and  C_35
REMARK    2  A    between atoms: C_17  and  O_30
REMARK    3  A    between atoms: C_19  and  O_32
REMARK    4  A    between atoms: C_35  and  O_36
REMARK                            x       y       z     vdW  Elec       q    Type
REMARK                         _______ _______ _______ _____ _____    ______ ____
ROOT
ATOM      1  C   UNL     1      52.970   3.878  11.725  0.00  0.00    +0.000 C 
ATOM      2  C   UNL     1      52.009   5.131  11.552  0.00  0.00    +0.000 C 
ATOM      3  C   UNL     1      51.499   5.622  10.194  0.00  0.00    +0.000 C 
ATOM      4  C   UNL     1      54.130   4.133  12.877  0.00  0.00    +0.000 C 
ATOM      5  C   UNL     1      52.424   5.438   8.985  0.00  0.00    +0.000 C 
ATOM      6  C   UNL     1      53.567   3.667  10.401  0.00  0.00    +0.000 C 
ATOM      7  C   UNL     1      53.347   4.364   9.099  0.00  0.00    +0.000 C 
ATOM      8  C   UNL     1      53.503   4.715  14.258  0.00  0.00    +0.000 C 
ATOM      9  C   UNL     1      52.411   6.455   7.854  0.00  0.00    +0.000 C 
ATOM     10  C   UNL     1      53.889   4.271  15.616  0.00  0.00    +0.000 C 
ATOM     11  C   UNL     1      51.745   5.786  12.796  0.00  0.00    +0.000 C 
ATOM     12  C   UNL     1      51.266   7.057  10.241  0.00  0.00    +0.000 C 
ATOM     13  C   UNL     1      54.816   2.898  13.301  0.00  0.00    +0.000 C 
ATOM     14  C   UNL     1      54.423   2.745  15.947  0.00  0.00    +0.000 C 
ATOM     15  C   UNL     1      52.045   2.649  12.098  0.00  0.00    +0.000 C 
ATOM     16  C   UNL     1      54.979   2.286  14.674  0.00  0.00    +0.000 C 
ATOM     17  C   UNL     1      51.792   7.852   8.118  0.00  0.00    +0.000 C 
ATOM     18  C   UNL     1      50.178   4.875   9.893  0.00  0.00    +0.000 C 
ATOM     19  C   UNL     1      51.338   8.182   9.427  0.00  0.00    +0.000 C 
ATOM     20  C   UNL     1      52.493   5.517  14.071  0.00  0.00    +0.000 C 
ATOM     21  C   UNL     1      55.202   5.212  12.418  0.00  0.00    +0.000 C 
ATOM     22  C   UNL     1      54.319   5.287  16.576  0.00  0.00    +0.000 C 
ATOM     23  C   UNL     1      55.402   2.937  17.050  0.00  0.00    +0.000 C 
ATOM     24  C   UNL     1      55.218   5.565  17.760  0.00  0.00    +0.000 C 
ATOM     25  C   UNL     1      53.894   6.763   7.445  0.00  0.00    +0.000 C 
ATOM     26  C   UNL     1      51.678   5.847   6.624  0.00  0.00    +0.000 C 
ATOM     27  C   UNL     1      55.771   4.180  17.900  0.00  0.00    +0.000 C 
ATOM     28  C   UNL     1      54.405   5.988  18.997  0.00  0.00    +0.000 C 
ATOM     29  C   UNL     1      56.313   6.585  17.399  0.00  0.00    +0.000 C 
ENDROOT
BRANCH  17  30
ATOM     30  O   UNL     1      51.626   8.821   7.132  0.00  0.00    +0.000 OA
ATOM     31  H   UNL     1      51.823   8.457   6.243  0.00  0.00    +0.000 HD
ENDBRANCH  17  30
BRANCH  19  32
ATOM     32  O   UNL     1      50.626   9.321   9.652  0.00  0.00    +0.000 OA
ATOM     33  H   UNL     1      49.740   9.116  10.008  0.00  0.00    +0.000 HD
ENDBRANCH  19  32
BRANCH  14  35
ATOM     34  O   UNL     1      52.392   1.372  15.700  0.00  0.00    +0.000 OA
ATOM     35  C   UNL     1      53.217   1.923  16.416  0.00  0.00    +0.000 C 
BRANCH  35  36
ATOM     36  O   UNL     1      53.057   1.890  17.759  0.00  0.00    +0.000 OA
ATOM     37  H   UNL     1      52.940   0.940  17.978  0.00  0.00    +0.000 HD
ENDBRANCH  35  36
ENDBRANCH  14  35
TORSDOF 4
ENDMDL
MODEL 8
REMARK VINA RESULT:      -6.5      2.567      4.344
REMARK  Name = 73659_MaslinicAcid.pdbqt.pdb
REMARK  4 active torsions:
REMARK  status: ('A' for Active; 'I' for Inactive)
REMARK    1  A    between atoms: C_14  and  C_35
REMARK    2  A    between atoms: C_17  and  O_30
REMARK    3  A    between atoms: C_19  and  O_32
REMARK    4  A    between atoms: C_35  and  O_36
REMARK                            x       y       z     vdW  Elec       q    Type
REMARK                         _______ _______ _______ _____ _____    ______ ____
ROOT
ATOM      1  C   UNL     1      51.880   1.787   8.356  0.00  0.00    +0.000 C 
ATOM      2  C   UNL     1      51.195   1.104   7.095  0.00  0.00    +0.000 C 
ATOM      3  C   UNL     1      51.026  -0.411   6.943  0.00  0.00    +0.000 C 
ATOM      4  C   UNL     1      52.843   3.063   7.931  0.00  0.00    +0.000 C 
ATOM      5  C   UNL     1      52.105  -1.305   7.565  0.00  0.00    +0.000 C 
ATOM      6  C   UNL     1      52.657   0.719   8.995  0.00  0.00    +0.000 C 
ATOM      7  C   UNL     1      52.795  -0.731   8.666  0.00  0.00    +0.000 C 
ATOM      8  C   UNL     1      52.091   4.087   6.918  0.00  0.00    +0.000 C 
ATOM      9  C   UNL     1      52.469  -2.628   6.907  0.00  0.00    +0.000 C 
ATOM     10  C   UNL     1      52.148   5.562   7.010  0.00  0.00    +0.000 C 
ATOM     11  C   UNL     1      50.832   2.060   6.094  0.00  0.00    +0.000 C 
ATOM     12  C   UNL     1      51.040  -0.772   5.535  0.00  0.00    +0.000 C 
ATOM     13  C   UNL     1      53.220   3.919   9.071  0.00  0.00    +0.000 C 
ATOM     14  C   UNL     1      52.343   6.369   8.437  0.00  0.00    +0.000 C 
ATOM     15  C   UNL     1      50.705   2.243   9.314  0.00  0.00    +0.000 C 
ATOM     16  C   UNL     1      53.028   5.402   9.294  0.00  0.00    +0.000 C 
ATOM     17  C   UNL     1      52.063  -2.859   5.429  0.00  0.00    +0.000 C 
ATOM     18  C   UNL     1      49.671  -0.796   7.582  0.00  0.00    +0.000 C 
ATOM     19  C   UNL     1      51.448  -1.804   4.697  0.00  0.00    +0.000 C 
ATOM     20  C   UNL     1      51.284   3.492   6.086  0.00  0.00    +0.000 C 
ATOM     21  C   UNL     1      54.149   2.595   7.156  0.00  0.00    +0.000 C 
ATOM     22  C   UNL     1      52.569   6.310   5.826  0.00  0.00    +0.000 C 
ATOM     23  C   UNL     1      53.129   7.576   8.063  0.00  0.00    +0.000 C 
ATOM     24  C   UNL     1      53.277   7.554   5.339  0.00  0.00    +0.000 C 
ATOM     25  C   UNL     1      54.031  -2.769   6.903  0.00  0.00    +0.000 C 
ATOM     26  C   UNL     1      51.872  -3.797   7.742  0.00  0.00    +0.000 C 
ATOM     27  C   UNL     1      53.550   8.150   6.686  0.00  0.00    +0.000 C 
ATOM     28  C   UNL     1      52.343   8.441   4.496  0.00  0.00    +0.000 C 
ATOM     29  C   UNL     1      54.579   7.198   4.597  0.00  0.00    +0.000 C 
ENDROOT
BRANCH  17  30
ATOM     30  O   UNL     1      52.244  -4.067   4.759  0.00  0.00    +0.000 OA
ATOM     31  H   UNL     1      53.128  -4.447   4.948  0.00  0.00    +0.000 HD
ENDBRANCH  17  30
BRANCH  19  32
ATOM     32  O   UNL     1      50.914  -2.029   3.464  0.00  0.00    +0.000 OA
ATOM     33  H   UNL     1      50.024  -1.634   3.390  0.00  0.00    +0.000 HD
ENDBRANCH  19  32
BRANCH  14  35
ATOM     34  O   UNL     1      50.592   7.868   9.306  0.00  0.00    +0.000 OA
ATOM     35  C   UNL     1      50.950   6.755   8.946  0.00  0.00    +0.000 C 
BRANCH  35  36
ATOM     36  O   UNL     1      50.091   5.716   9.053  0.00  0.00    +0.000 OA
ATOM     37  H   UNL     1      50.559   5.054   9.607  0.00  0.00    +0.000 HD
ENDBRANCH  35  36
ENDBRANCH  14  35
TORSDOF 4
ENDMDL
MODEL 9
REMARK VINA RESULT:      -6.5      6.830     11.090
REMARK  Name = 73659_MaslinicAcid.pdbqt.pdb
REMARK  4 active torsions:
REMARK  status: ('A' for Active; 'I' for Inactive)
REMARK    1  A    between atoms: C_14  and  C_35
REMARK    2  A    between atoms: C_17  and  O_30
REMARK    3  A    between atoms: C_19  and  O_32
REMARK    4  A    between atoms: C_35  and  O_36
REMARK                            x       y       z     vdW  Elec       q    Type
REMARK                         _______ _______ _______ _____ _____    ______ ____
ROOT
ATOM      1  C   UNL     1      53.850   5.993  13.906  0.00  0.00    +0.000 C 
ATOM      2  C   UNL     1      53.068   7.120  13.105  0.00  0.00    +0.000 C 
ATOM      3  C   UNL     1      51.759   6.867  12.351  0.00  0.00    +0.000 C 
ATOM      4  C   UNL     1      55.489   6.111  13.715  0.00  0.00    +0.000 C 
ATOM      5  C   UNL     1      51.563   5.480  11.728  0.00  0.00    +0.000 C 
ATOM      6  C   UNL     1      53.339   4.723  13.377  0.00  0.00    +0.000 C 
ATOM      7  C   UNL     1      52.279   4.432  12.366  0.00  0.00    +0.000 C 
ATOM      8  C   UNL     1      56.026   7.625  13.957  0.00  0.00    +0.000 C 
ATOM      9  C   UNL     1      50.777   5.332  10.434  0.00  0.00    +0.000 C 
ATOM     10  C   UNL     1      57.247   7.978  14.714  0.00  0.00    +0.000 C 
ATOM     11  C   UNL     1      53.769   8.368  13.107  0.00  0.00    +0.000 C 
ATOM     12  C   UNL     1      51.654   7.777  11.222  0.00  0.00    +0.000 C 
ATOM     13  C   UNL     1      56.253   5.312  14.691  0.00  0.00    +0.000 C 
ATOM     14  C   UNL     1      57.832   7.065  15.959  0.00  0.00    +0.000 C 
ATOM     15  C   UNL     1      53.432   6.148  15.425  0.00  0.00    +0.000 C 
ATOM     16  C   UNL     1      57.322   5.723  15.677  0.00  0.00    +0.000 C 
ATOM     17  C   UNL     1      50.549   6.587   9.555  0.00  0.00    +0.000 C 
ATOM     18  C   UNL     1      50.596   7.106  13.342  0.00  0.00    +0.000 C 
ATOM     19  C   UNL     1      51.153   7.823   9.925  0.00  0.00    +0.000 C 
ATOM     20  C   UNL     1      55.191   8.541  13.556  0.00  0.00    +0.000 C 
ATOM     21  C   UNL     1      55.948   5.738  12.240  0.00  0.00    +0.000 C 
ATOM     22  C   UNL     1      58.247   8.818  14.056  0.00  0.00    +0.000 C 
ATOM     23  C   UNL     1      59.307   7.232  15.868  0.00  0.00    +0.000 C 
ATOM     24  C   UNL     1      59.723   9.127  13.949  0.00  0.00    +0.000 C 
ATOM     25  C   UNL     1      51.549   4.340   9.494  0.00  0.00    +0.000 C 
ATOM     26  C   UNL     1      49.380   4.724  10.748  0.00  0.00    +0.000 C 
ATOM     27  C   UNL     1      60.190   8.160  14.994  0.00  0.00    +0.000 C 
ATOM     28  C   UNL     1      60.023  10.585  14.339  0.00  0.00    +0.000 C 
ATOM     29  C   UNL     1      60.266   8.768  12.554  0.00  0.00    +0.000 C 
ENDROOT
BRANCH  17  30
ATOM     30  O   UNL     1      49.754   6.594   8.410  0.00  0.00    +0.000 OA
ATOM     31  H   UNL     1      48.807   6.697   8.639  0.00  0.00    +0.000 HD
ENDBRANCH  17  30
BRANCH  19  32
ATOM     32  O   UNL     1      50.826   8.979   9.285  0.00  0.00    +0.000 OA
ATOM     33  H   UNL     1      50.645   8.818   8.338  0.00  0.00    +0.000 HD
ENDBRANCH  19  32
BRANCH  14  35
ATOM     34  O   UNL     1      57.275   7.112  18.359  0.00  0.00    +0.000 OA
ATOM     35  C   UNL     1      57.290   7.660  17.265  0.00  0.00    +0.000 C 
BRANCH  35  36
ATOM     36  O   UNL     1      56.726   8.881  17.127  0.00  0.00    +0.000 OA
ATOM     37  H   UNL     1      56.014   8.759  16.461  0.00  0.00    +0.000 HD
ENDBRANCH  35  36
ENDBRANCH  14  35
TORSDOF 4
ENDMDL
