MODEL 1
REMARK VINA RESULT:      -4.4      0.000      0.000
REMARK  Name = 76617_Cardol.pdbqt.pdb
REMARK  10 active torsions:
REMARK  status: ('A' for Active; 'I' for Inactive)
REMARK    1  A    between atoms: C_1  and  C_2
REMARK    2  A    between atoms: C_3  and  C_4
REMARK    3  A    between atoms: C_5  and  C_6
REMARK    4  A    between atoms: C_7  and  C_8
REMARK    5  A    between atoms: C_8  and  C_9
REMARK    6  A    between atoms: C_10  and  C_11
REMARK    7  A    between atoms: C_14  and  C_15
REMARK    8  A    between atoms: C_15  and  C_16
REMARK    9  A    between atoms: C_19  and  O_24
REMARK   10  A    between atoms: C_20  and  O_22
REMARK                            x       y       z     vdW  Elec       q    Type
REMARK                         _______ _______ _______ _____ _____    ______ ____
ROOT
ATOM      1  C   UNL     1      40.269   2.530  19.244  0.00  0.00    +0.000 C 
ATOM      2  C   UNL     1      40.047   1.829  18.296  0.00  0.00    +0.000 C 
ENDROOT
BRANCH   1   3
ATOM      3  C   UNL     1      40.552   3.425  20.454  0.00  0.00    +0.000 C 
ATOM      4  C   UNL     1      40.837   4.320  21.665  0.00  0.00    +0.000 C 
BRANCH   4   5
ATOM      5  C   UNL     1      41.121   5.216  22.874  0.00  0.00    +0.000 C 
ATOM      6  C   UNL     1      41.406   6.112  24.082  0.00  0.00    +0.000 C 
BRANCH   6   7
ATOM      7  C   UNL     1      41.692   7.009  25.291  0.00  0.00    +0.000 C 
ATOM      8  C   UNL     1      41.976   7.905  26.500  0.00  0.00    +0.000 C 
BRANCH   8   9
ATOM      9  C   UNL     1      42.260   8.801  27.709  0.00  0.00    +0.000 C 
BRANCH   9  10
ATOM     10  C   UNL     1      42.545   9.698  28.917  0.00  0.00    +0.000 C 
ATOM     11  C   UNL     1      42.828  10.595  30.126  0.00  0.00    +0.000 C 
BRANCH  11  12
ATOM     12  C   UNL     1      43.112  11.493  31.335  0.00  0.00    +0.000 C 
ATOM     13  C   UNL     1      43.396  12.390  32.542  0.00  0.00    +0.000 C 
ATOM     14  C   UNL     1      43.679  13.288  33.751  0.00  0.00    +0.000 C 
ENDBRANCH  11  12
ENDBRANCH   9  10
ENDBRANCH   8   9
ENDBRANCH   6   7
ENDBRANCH   4   5
ENDBRANCH   1   3
BRANCH   2  15
ATOM     15  C   UNL     1      39.764   0.933  17.085  0.00  0.00    +0.000 C 
BRANCH  15  16
ATOM     16  C   UNL     1      39.501   0.101  15.960  0.00  0.00    +0.000 A 
ATOM     17  C   UNL     1      39.055  -1.205  16.152  0.00  0.00    +0.000 A 
ATOM     18  C   UNL     1      39.690   0.597  14.671  0.00  0.00    +0.000 A 
ATOM     19  C   UNL     1      39.430  -0.224  13.577  0.00  0.00    +0.000 A 
ATOM     20  C   UNL     1      38.800  -2.010  15.044  0.00  0.00    +0.000 A 
ATOM     21  C   UNL     1      38.984  -1.531  13.752  0.00  0.00    +0.000 A 
BRANCH  20  22
ATOM     22  O   UNL     1      38.362  -3.293  15.206  0.00  0.00    +0.000 OA
ATOM     23  H   UNL     1      39.138  -3.878  15.265  0.00  0.00    +0.000 HD
ENDBRANCH  20  22
BRANCH  19  24
ATOM     24  O   UNL     1      39.608   0.237  12.304  0.00  0.00    +0.000 OA
ATOM     25  H   UNL     1      38.955  -0.197  11.728  0.00  0.00    +0.000 HD
ENDBRANCH  19  24
ENDBRANCH  15  16
ENDBRANCH   2  15
TORSDOF 10
ENDMDL
MODEL 2
REMARK VINA RESULT:      -4.4      4.423      5.400
REMARK  Name = 76617_Cardol.pdbqt.pdb
REMARK  10 active torsions:
REMARK  status: ('A' for Active; 'I' for Inactive)
REMARK    1  A    between atoms: C_1  and  C_2
REMARK    2  A    between atoms: C_3  and  C_4
REMARK    3  A    between atoms: C_5  and  C_6
REMARK    4  A    between atoms: C_7  and  C_8
REMARK    5  A    between atoms: C_8  and  C_9
REMARK    6  A    between atoms: C_10  and  C_11
REMARK    7  A    between atoms: C_14  and  C_15
REMARK    8  A    between atoms: C_15  and  C_16
REMARK    9  A    between atoms: C_19  and  O_24
REMARK   10  A    between atoms: C_20  and  O_22
REMARK                            x       y       z     vdW  Elec       q    Type
REMARK                         _______ _______ _______ _____ _____    ______ ____
ROOT
ATOM      1  C   UNL     1      43.202  -1.374  17.757  0.00  0.00    +0.000 C 
ATOM      2  C   UNL     1      43.318  -2.274  16.971  0.00  0.00    +0.000 C 
ENDROOT
BRANCH   1   3
ATOM      3  C   UNL     1      43.054  -0.227  18.760  0.00  0.00    +0.000 C 
ATOM      4  C   UNL     1      42.906   0.922  19.763  0.00  0.00    +0.000 C 
BRANCH   4   5
ATOM      5  C   UNL     1      42.757   2.070  20.765  0.00  0.00    +0.000 C 
ATOM      6  C   UNL     1      42.607   3.219  21.767  0.00  0.00    +0.000 C 
BRANCH   6   7
ATOM      7  C   UNL     1      42.458   4.368  22.769  0.00  0.00    +0.000 C 
ATOM      8  C   UNL     1      42.308   5.516  23.771  0.00  0.00    +0.000 C 
BRANCH   8   9
ATOM      9  C   UNL     1      42.157   6.664  24.773  0.00  0.00    +0.000 C 
BRANCH   9  10
ATOM     10  C   UNL     1      42.005   7.813  25.775  0.00  0.00    +0.000 C 
ATOM     11  C   UNL     1      41.853   8.961  26.777  0.00  0.00    +0.000 C 
BRANCH  11  12
ATOM     12  C   UNL     1      41.700  10.110  27.779  0.00  0.00    +0.000 C 
ATOM     13  C   UNL     1      41.548  11.258  28.781  0.00  0.00    +0.000 C 
ATOM     14  C   UNL     1      41.395  12.407  29.783  0.00  0.00    +0.000 C 
ENDBRANCH  11  12
ENDBRANCH   9  10
ENDBRANCH   8   9
ENDBRANCH   6   7
ENDBRANCH   4   5
ENDBRANCH   1   3
BRANCH   2  15
ATOM     15  C   UNL     1      43.466  -3.421  15.967  0.00  0.00    +0.000 C 
BRANCH  15  16
ATOM     16  C   UNL     1      43.602  -4.488  15.033  0.00  0.00    +0.000 A 
ATOM     17  C   UNL     1      44.515  -5.512  15.276  0.00  0.00    +0.000 A 
ATOM     18  C   UNL     1      42.820  -4.503  13.879  0.00  0.00    +0.000 A 
ATOM     19  C   UNL     1      42.960  -5.550  12.972  0.00  0.00    +0.000 A 
ATOM     20  C   UNL     1      44.639  -6.551  14.357  0.00  0.00    +0.000 A 
ATOM     21  C   UNL     1      43.867  -6.580  13.201  0.00  0.00    +0.000 A 
BRANCH  20  22
ATOM     22  O   UNL     1      45.526  -7.565  14.573  0.00  0.00    +0.000 OA
ATOM     23  H   UNL     1      46.340  -7.373  14.076  0.00  0.00    +0.000 HD
ENDBRANCH  20  22
BRANCH  19  24
ATOM     24  O   UNL     1      42.207  -5.588  11.833  0.00  0.00    +0.000 OA
ATOM     25  H   UNL     1      42.786  -5.835  11.091  0.00  0.00    +0.000 HD
ENDBRANCH  19  24
ENDBRANCH  15  16
ENDBRANCH   2  15
TORSDOF 10
ENDMDL
MODEL 3
REMARK VINA RESULT:      -4.4     23.044     24.317
REMARK  Name = 76617_Cardol.pdbqt.pdb
REMARK  10 active torsions:
REMARK  status: ('A' for Active; 'I' for Inactive)
REMARK    1  A    between atoms: C_1  and  C_2
REMARK    2  A    between atoms: C_3  and  C_4
REMARK    3  A    between atoms: C_5  and  C_6
REMARK    4  A    between atoms: C_7  and  C_8
REMARK    5  A    between atoms: C_8  and  C_9
REMARK    6  A    between atoms: C_10  and  C_11
REMARK    7  A    between atoms: C_14  and  C_15
REMARK    8  A    between atoms: C_15  and  C_16
REMARK    9  A    between atoms: C_19  and  O_24
REMARK   10  A    between atoms: C_20  and  O_22
REMARK                            x       y       z     vdW  Elec       q    Type
REMARK                         _______ _______ _______ _____ _____    ______ ____
ROOT
ATOM      1  C   UNL     1      30.494  12.635   3.345  0.00  0.00    +0.000 C 
ATOM      2  C   UNL     1      29.724  11.718   3.416  0.00  0.00    +0.000 C 
ENDROOT
BRANCH   1   3
ATOM      3  C   UNL     1      31.478  13.805   3.253  0.00  0.00    +0.000 C 
ATOM      4  C   UNL     1      32.462  14.976   3.162  0.00  0.00    +0.000 C 
BRANCH   4   5
ATOM      5  C   UNL     1      33.446  16.146   3.073  0.00  0.00    +0.000 C 
ATOM      6  C   UNL     1      34.429  17.316   2.984  0.00  0.00    +0.000 C 
BRANCH   6   7
ATOM      7  C   UNL     1      35.413  18.488   2.894  0.00  0.00    +0.000 C 
ATOM      8  C   UNL     1      36.397  19.658   2.806  0.00  0.00    +0.000 C 
BRANCH   8   9
ATOM      9  C   UNL     1      37.380  20.828   2.718  0.00  0.00    +0.000 C 
BRANCH   9  10
ATOM     10  C   UNL     1      38.366  21.998   2.629  0.00  0.00    +0.000 C 
ATOM     11  C   UNL     1      39.349  23.168   2.540  0.00  0.00    +0.000 C 
BRANCH  11  12
ATOM     12  C   UNL     1      40.334  24.338   2.450  0.00  0.00    +0.000 C 
ATOM     13  C   UNL     1      41.318  25.507   2.361  0.00  0.00    +0.000 C 
ATOM     14  C   UNL     1      42.303  26.678   2.271  0.00  0.00    +0.000 C 
ENDBRANCH  11  12
ENDBRANCH   9  10
ENDBRANCH   8   9
ENDBRANCH   6   7
ENDBRANCH   4   5
ENDBRANCH   1   3
BRANCH   2  15
ATOM     15  C   UNL     1      28.739  10.547   3.508  0.00  0.00    +0.000 C 
BRANCH  15  16
ATOM     16  C   UNL     1      27.822   9.460   3.593  0.00  0.00    +0.000 A 
ATOM     17  C   UNL     1      27.914   8.556   4.650  0.00  0.00    +0.000 A 
ATOM     18  C   UNL     1      26.837   9.307   2.619  0.00  0.00    +0.000 A 
ATOM     19  C   UNL     1      25.946   8.241   2.711  0.00  0.00    +0.000 A 
ATOM     20  C   UNL     1      27.012   7.497   4.723  0.00  0.00    +0.000 A 
ATOM     21  C   UNL     1      26.024   7.329   3.759  0.00  0.00    +0.000 A 
BRANCH  20  22
ATOM     22  O   UNL     1      27.081   6.598   5.748  0.00  0.00    +0.000 OA
ATOM     23  H   UNL     1      27.326   7.076   6.560  0.00  0.00    +0.000 HD
ENDBRANCH  20  22
BRANCH  19  24
ATOM     24  O   UNL     1      24.972   8.067   1.770  0.00  0.00    +0.000 OA
ATOM     25  H   UNL     1      24.671   7.142   1.808  0.00  0.00    +0.000 HD
ENDBRANCH  19  24
ENDBRANCH  15  16
ENDBRANCH   2  15
TORSDOF 10
ENDMDL
MODEL 4
REMARK VINA RESULT:      -3.7     20.504     24.912
REMARK  Name = 76617_Cardol.pdbqt.pdb
REMARK  10 active torsions:
REMARK  status: ('A' for Active; 'I' for Inactive)
REMARK    1  A    between atoms: C_1  and  C_2
REMARK    2  A    between atoms: C_3  and  C_4
REMARK    3  A    between atoms: C_5  and  C_6
REMARK    4  A    between atoms: C_7  and  C_8
REMARK    5  A    between atoms: C_8  and  C_9
REMARK    6  A    between atoms: C_10  and  C_11
REMARK    7  A    between atoms: C_14  and  C_15
REMARK    8  A    between atoms: C_15  and  C_16
REMARK    9  A    between atoms: C_19  and  O_24
REMARK   10  A    between atoms: C_20  and  O_22
REMARK                            x       y       z     vdW  Elec       q    Type
REMARK                         _______ _______ _______ _____ _____    ______ ____
ROOT
ATOM      1  C   UNL     1      51.643  17.196  15.035  0.00  0.00    +0.000 C 
ATOM      2  C   UNL     1      51.059  17.540  16.024  0.00  0.00    +0.000 C 
ENDROOT
BRANCH   1   3
ATOM      3  C   UNL     1      52.388  16.755  13.771  0.00  0.00    +0.000 C 
ATOM      4  C   UNL     1      53.134  16.314  12.508  0.00  0.00    +0.000 C 
BRANCH   4   5
ATOM      5  C   UNL     1      53.880  15.872  11.245  0.00  0.00    +0.000 C 
ATOM      6  C   UNL     1      54.626  15.429   9.983  0.00  0.00    +0.000 C 
BRANCH   6   7
ATOM      7  C   UNL     1      55.372  14.986   8.721  0.00  0.00    +0.000 C 
ATOM      8  C   UNL     1      56.119  14.543   7.459  0.00  0.00    +0.000 C 
BRANCH   8   9
ATOM      9  C   UNL     1      56.865  14.100   6.198  0.00  0.00    +0.000 C 
BRANCH   9  10
ATOM     10  C   UNL     1      57.613  13.655   4.937  0.00  0.00    +0.000 C 
ATOM     11  C   UNL     1      58.362  13.211   3.677  0.00  0.00    +0.000 C 
BRANCH  11  12
ATOM     12  C   UNL     1      59.111  12.767   2.417  0.00  0.00    +0.000 C 
ATOM     13  C   UNL     1      59.860  12.322   1.157  0.00  0.00    +0.000 C 
ATOM     14  C   UNL     1      60.608  11.878  -0.104  0.00  0.00    +0.000 C 
ENDBRANCH  11  12
ENDBRANCH   9  10
ENDBRANCH   8   9
ENDBRANCH   6   7
ENDBRANCH   4   5
ENDBRANCH   1   3
BRANCH   2  15
ATOM     15  C   UNL     1      50.314  17.982  17.289  0.00  0.00    +0.000 C 
BRANCH  15  16
ATOM     16  C   UNL     1      49.623  18.394  18.464  0.00  0.00    +0.000 A 
ATOM     17  C   UNL     1      49.092  17.437  19.328  0.00  0.00    +0.000 A 
ATOM     18  C   UNL     1      49.480  19.751  18.744  0.00  0.00    +0.000 A 
ATOM     19  C   UNL     1      48.802  20.144  19.896  0.00  0.00    +0.000 A 
ATOM     20  C   UNL     1      48.418  17.851  20.474  0.00  0.00    +0.000 A 
ATOM     21  C   UNL     1      48.267  19.201  20.768  0.00  0.00    +0.000 A 
BRANCH  20  22
ATOM     22  O   UNL     1      47.890  16.933  21.336  0.00  0.00    +0.000 OA
ATOM     23  H   UNL     1      47.338  17.404  21.985  0.00  0.00    +0.000 HD
ENDBRANCH  20  22
BRANCH  19  24
ATOM     24  O   UNL     1      48.648  21.467  20.194  0.00  0.00    +0.000 OA
ATOM     25  H   UNL     1      47.927  21.553  20.842  0.00  0.00    +0.000 HD
ENDBRANCH  19  24
ENDBRANCH  15  16
ENDBRANCH   2  15
TORSDOF 10
ENDMDL
MODEL 5
REMARK VINA RESULT:      -3.6     24.860     27.515
REMARK  Name = 76617_Cardol.pdbqt.pdb
REMARK  10 active torsions:
REMARK  status: ('A' for Active; 'I' for Inactive)
REMARK    1  A    between atoms: C_1  and  C_2
REMARK    2  A    between atoms: C_3  and  C_4
REMARK    3  A    between atoms: C_5  and  C_6
REMARK    4  A    between atoms: C_7  and  C_8
REMARK    5  A    between atoms: C_8  and  C_9
REMARK    6  A    between atoms: C_10  and  C_11
REMARK    7  A    between atoms: C_14  and  C_15
REMARK    8  A    between atoms: C_15  and  C_16
REMARK    9  A    between atoms: C_19  and  O_24
REMARK   10  A    between atoms: C_20  and  O_22
REMARK                            x       y       z     vdW  Elec       q    Type
REMARK                         _______ _______ _______ _____ _____    ______ ____
ROOT
ATOM      1  C   UNL     1      31.427  14.145   2.097  0.00  0.00    +0.000 C 
ATOM      2  C   UNL     1      32.209  15.040   1.933  0.00  0.00    +0.000 C 
ENDROOT
BRANCH   1   3
ATOM      3  C   UNL     1      30.428  13.003   2.307  0.00  0.00    +0.000 C 
ATOM      4  C   UNL     1      29.430  11.860   2.516  0.00  0.00    +0.000 C 
BRANCH   4   5
ATOM      5  C   UNL     1      28.432  10.717   2.724  0.00  0.00    +0.000 C 
ATOM      6  C   UNL     1      27.434   9.574   2.933  0.00  0.00    +0.000 C 
BRANCH   6   7
ATOM      7  C   UNL     1      26.436   8.431   3.141  0.00  0.00    +0.000 C 
ATOM      8  C   UNL     1      25.438   7.289   3.350  0.00  0.00    +0.000 C 
BRANCH   8   9
ATOM      9  C   UNL     1      24.440   6.147   3.559  0.00  0.00    +0.000 C 
BRANCH   9  10
ATOM     10  C   UNL     1      23.441   5.004   3.770  0.00  0.00    +0.000 C 
ATOM     11  C   UNL     1      22.443   3.862   3.982  0.00  0.00    +0.000 C 
BRANCH  11  12
ATOM     12  C   UNL     1      21.445   2.719   4.194  0.00  0.00    +0.000 C 
ATOM     13  C   UNL     1      20.447   1.577   4.405  0.00  0.00    +0.000 C 
ATOM     14  C   UNL     1      19.448   0.434   4.616  0.00  0.00    +0.000 C 
ENDBRANCH  11  12
ENDBRANCH   9  10
ENDBRANCH   8   9
ENDBRANCH   6   7
ENDBRANCH   4   5
ENDBRANCH   1   3
BRANCH   2  15
ATOM     15  C   UNL     1      33.208  16.183   1.723  0.00  0.00    +0.000 C 
BRANCH  15  16
ATOM     16  C   UNL     1      34.137  17.245   1.528  0.00  0.00    +0.000 A 
ATOM     17  C   UNL     1      34.908  17.289   0.368  0.00  0.00    +0.000 A 
ATOM     18  C   UNL     1      34.270  18.236   2.499  0.00  0.00    +0.000 A 
ATOM     19  C   UNL     1      35.180  19.271   2.299  0.00  0.00    +0.000 A 
ATOM     20  C   UNL     1      35.813  18.333   0.188  0.00  0.00    +0.000 A 
ATOM     21  C   UNL     1      35.957  19.329   1.147  0.00  0.00    +0.000 A 
BRANCH  20  22
ATOM     22  O   UNL     1      36.579  18.398  -0.940  0.00  0.00    +0.000 OA
ATOM     23  H   UNL     1      36.069  18.854  -1.632  0.00  0.00    +0.000 HD
ENDBRANCH  20  22
BRANCH  19  24
ATOM     24  O   UNL     1      35.330  20.254   3.235  0.00  0.00    +0.000 OA
ATOM     25  H   UNL     1      34.519  20.293   3.771  0.00  0.00    +0.000 HD
ENDBRANCH  19  24
ENDBRANCH  15  16
ENDBRANCH   2  15
TORSDOF 10
ENDMDL
MODEL 6
REMARK VINA RESULT:      -3.5     24.248     30.892
REMARK  Name = 76617_Cardol.pdbqt.pdb
REMARK  10 active torsions:
REMARK  status: ('A' for Active; 'I' for Inactive)
REMARK    1  A    between atoms: C_1  and  C_2
REMARK    2  A    between atoms: C_3  and  C_4
REMARK    3  A    between atoms: C_5  and  C_6
REMARK    4  A    between atoms: C_7  and  C_8
REMARK    5  A    between atoms: C_8  and  C_9
REMARK    6  A    between atoms: C_10  and  C_11
REMARK    7  A    between atoms: C_14  and  C_15
REMARK    8  A    between atoms: C_15  and  C_16
REMARK    9  A    between atoms: C_19  and  O_24
REMARK   10  A    between atoms: C_20  and  O_22
REMARK                            x       y       z     vdW  Elec       q    Type
REMARK                         _______ _______ _______ _____ _____    ______ ____
ROOT
ATOM      1  C   UNL     1      28.884   7.714  -0.030  0.00  0.00    +0.000 C 
ATOM      2  C   UNL     1      28.750   8.664   0.690  0.00  0.00    +0.000 C 
ENDROOT
BRANCH   1   3
ATOM      3  C   UNL     1      29.055   6.501  -0.949  0.00  0.00    +0.000 C 
ATOM      4  C   UNL     1      29.227   5.289  -1.871  0.00  0.00    +0.000 C 
BRANCH   4   5
ATOM      5  C   UNL     1      29.399   4.077  -2.791  0.00  0.00    +0.000 C 
ATOM      6  C   UNL     1      29.571   2.866  -3.712  0.00  0.00    +0.000 C 
BRANCH   6   7
ATOM      7  C   UNL     1      29.744   1.654  -4.634  0.00  0.00    +0.000 C 
ATOM      8  C   UNL     1      29.916   0.444  -5.556  0.00  0.00    +0.000 C 
BRANCH   8   9
ATOM      9  C   UNL     1      30.088  -0.766  -6.478  0.00  0.00    +0.000 C 
BRANCH   9  10
ATOM     10  C   UNL     1      30.260  -1.978  -7.399  0.00  0.00    +0.000 C 
ATOM     11  C   UNL     1      30.431  -3.189  -8.321  0.00  0.00    +0.000 C 
BRANCH  11  12
ATOM     12  C   UNL     1      30.602  -4.401  -9.242  0.00  0.00    +0.000 C 
ATOM     13  C   UNL     1      30.773  -5.612 -10.163  0.00  0.00    +0.000 C 
ATOM     14  C   UNL     1      30.944  -6.824 -11.085  0.00  0.00    +0.000 C 
ENDBRANCH  11  12
ENDBRANCH   9  10
ENDBRANCH   8   9
ENDBRANCH   6   7
ENDBRANCH   4   5
ENDBRANCH   1   3
BRANCH   2  15
ATOM     15  C   UNL     1      28.578   9.877   1.610  0.00  0.00    +0.000 C 
BRANCH  15  16
ATOM     16  C   UNL     1      28.418  11.004   2.467  0.00  0.00    +0.000 A 
ATOM     17  C   UNL     1      27.141  11.416   2.841  0.00  0.00    +0.000 A 
ATOM     18  C   UNL     1      29.541  11.689   2.927  0.00  0.00    +0.000 A 
ATOM     19  C   UNL     1      29.375  12.790   3.764  0.00  0.00    +0.000 A 
ATOM     20  C   UNL     1      26.996  12.519   3.679  0.00  0.00    +0.000 A 
ATOM     21  C   UNL     1      28.106  13.214   4.147  0.00  0.00    +0.000 A 
BRANCH  20  22
ATOM     22  O   UNL     1      25.755  12.942   4.060  0.00  0.00    +0.000 OA
ATOM     23  H   UNL     1      25.254  13.182   3.262  0.00  0.00    +0.000 HD
ENDBRANCH  20  22
BRANCH  19  24
ATOM     24  O   UNL     1      30.458  13.479   4.229  0.00  0.00    +0.000 OA
ATOM     25  H   UNL     1      30.184  13.988   5.012  0.00  0.00    +0.000 HD
ENDBRANCH  19  24
ENDBRANCH  15  16
ENDBRANCH   2  15
TORSDOF 10
ENDMDL
MODEL 7
REMARK VINA RESULT:      -3.5      3.019      4.542
REMARK  Name = 76617_Cardol.pdbqt.pdb
REMARK  10 active torsions:
REMARK  status: ('A' for Active; 'I' for Inactive)
REMARK    1  A    between atoms: C_1  and  C_2
REMARK    2  A    between atoms: C_3  and  C_4
REMARK    3  A    between atoms: C_5  and  C_6
REMARK    4  A    between atoms: C_7  and  C_8
REMARK    5  A    between atoms: C_8  and  C_9
REMARK    6  A    between atoms: C_10  and  C_11
REMARK    7  A    between atoms: C_14  and  C_15
REMARK    8  A    between atoms: C_15  and  C_16
REMARK    9  A    between atoms: C_19  and  O_24
REMARK   10  A    between atoms: C_20  and  O_22
REMARK                            x       y       z     vdW  Elec       q    Type
REMARK                         _______ _______ _______ _____ _____    ______ ____
ROOT
ATOM      1  C   UNL     1      41.461   4.160  22.388  0.00  0.00    +0.000 C 
ATOM      2  C   UNL     1      41.489   3.244  21.614  0.00  0.00    +0.000 C 
ENDROOT
BRANCH   1   3
ATOM      3  C   UNL     1      41.425   5.328  23.377  0.00  0.00    +0.000 C 
ATOM      4  C   UNL     1      41.387   6.498  24.367  0.00  0.00    +0.000 C 
BRANCH   4   5
ATOM      5  C   UNL     1      41.349   7.665  25.357  0.00  0.00    +0.000 C 
ATOM      6  C   UNL     1      41.310   8.832  26.348  0.00  0.00    +0.000 C 
BRANCH   6   7
ATOM      7  C   UNL     1      41.271  10.000  27.339  0.00  0.00    +0.000 C 
ATOM      8  C   UNL     1      41.233  11.168  28.329  0.00  0.00    +0.000 C 
BRANCH   8   9
ATOM      9  C   UNL     1      41.195  12.335  29.318  0.00  0.00    +0.000 C 
BRANCH   9  10
ATOM     10  C   UNL     1      41.157  13.505  30.308  0.00  0.00    +0.000 C 
ATOM     11  C   UNL     1      41.119  14.672  31.298  0.00  0.00    +0.000 C 
BRANCH  11  12
ATOM     12  C   UNL     1      41.080  15.841  32.287  0.00  0.00    +0.000 C 
ATOM     13  C   UNL     1      41.041  17.010  33.276  0.00  0.00    +0.000 C 
ATOM     14  C   UNL     1      41.002  18.179  34.265  0.00  0.00    +0.000 C 
ENDBRANCH  11  12
ENDBRANCH   9  10
ENDBRANCH   8   9
ENDBRANCH   6   7
ENDBRANCH   4   5
ENDBRANCH   1   3
BRANCH   2  15
ATOM     15  C   UNL     1      41.526   2.075  20.623  0.00  0.00    +0.000 C 
BRANCH  15  16
ATOM     16  C   UNL     1      41.562   0.989  19.703  0.00  0.00    +0.000 A 
ATOM     17  C   UNL     1      40.417   0.651  18.983  0.00  0.00    +0.000 A 
ATOM     18  C   UNL     1      42.742   0.269  19.525  0.00  0.00    +0.000 A 
ATOM     19  C   UNL     1      42.767  -0.791  18.622  0.00  0.00    +0.000 A 
ATOM     20  C   UNL     1      40.463  -0.412  18.085  0.00  0.00    +0.000 A 
ATOM     21  C   UNL     1      41.632  -1.141  17.897  0.00  0.00    +0.000 A 
BRANCH  20  22
ATOM     22  O   UNL     1      39.355  -0.763  17.368  0.00  0.00    +0.000 OA
ATOM     23  H   UNL     1      38.680  -0.073  17.490  0.00  0.00    +0.000 HD
ENDBRANCH  20  22
BRANCH  19  24
ATOM     24  O   UNL     1      43.910  -1.513  18.430  0.00  0.00    +0.000 OA
ATOM     25  H   UNL     1      44.622  -1.102  18.950  0.00  0.00    +0.000 HD
ENDBRANCH  19  24
ENDBRANCH  15  16
ENDBRANCH   2  15
TORSDOF 10
ENDMDL
MODEL 8
REMARK VINA RESULT:      -3.4      3.737      6.483
REMARK  Name = 76617_Cardol.pdbqt.pdb
REMARK  10 active torsions:
REMARK  status: ('A' for Active; 'I' for Inactive)
REMARK    1  A    between atoms: C_1  and  C_2
REMARK    2  A    between atoms: C_3  and  C_4
REMARK    3  A    between atoms: C_5  and  C_6
REMARK    4  A    between atoms: C_7  and  C_8
REMARK    5  A    between atoms: C_8  and  C_9
REMARK    6  A    between atoms: C_10  and  C_11
REMARK    7  A    between atoms: C_14  and  C_15
REMARK    8  A    between atoms: C_15  and  C_16
REMARK    9  A    between atoms: C_19  and  O_24
REMARK   10  A    between atoms: C_20  and  O_22
REMARK                            x       y       z     vdW  Elec       q    Type
REMARK                         _______ _______ _______ _____ _____    ______ ____
ROOT
ATOM      1  C   UNL     1      41.578   5.845  23.893  0.00  0.00    +0.000 C 
ATOM      2  C   UNL     1      41.628   4.923  23.126  0.00  0.00    +0.000 C 
ENDROOT
BRANCH   1   3
ATOM      3  C   UNL     1      41.514   7.020  24.872  0.00  0.00    +0.000 C 
ATOM      4  C   UNL     1      41.449   8.196  25.852  0.00  0.00    +0.000 C 
BRANCH   4   5
ATOM      5  C   UNL     1      41.385   9.370  26.833  0.00  0.00    +0.000 C 
ATOM      6  C   UNL     1      41.321  10.544  27.814  0.00  0.00    +0.000 C 
BRANCH   6   7
ATOM      7  C   UNL     1      41.257  11.719  28.796  0.00  0.00    +0.000 C 
ATOM      8  C   UNL     1      41.194  12.893  29.777  0.00  0.00    +0.000 C 
BRANCH   8   9
ATOM      9  C   UNL     1      41.131  14.067  30.758  0.00  0.00    +0.000 C 
BRANCH   9  10
ATOM     10  C   UNL     1      41.068  15.243  31.738  0.00  0.00    +0.000 C 
ATOM     11  C   UNL     1      41.005  16.417  32.719  0.00  0.00    +0.000 C 
BRANCH  11  12
ATOM     12  C   UNL     1      40.941  17.592  33.700  0.00  0.00    +0.000 C 
ATOM     13  C   UNL     1      40.877  18.767  34.680  0.00  0.00    +0.000 C 
ATOM     14  C   UNL     1      40.813  19.943  35.660  0.00  0.00    +0.000 C 
ENDBRANCH  11  12
ENDBRANCH   9  10
ENDBRANCH   8   9
ENDBRANCH   6   7
ENDBRANCH   4   5
ENDBRANCH   1   3
BRANCH   2  15
ATOM     15  C   UNL     1      41.692   3.747  22.146  0.00  0.00    +0.000 C 
BRANCH  15  16
ATOM     16  C   UNL     1      41.752   2.653  21.235  0.00  0.00    +0.000 A 
ATOM     17  C   UNL     1      42.953   1.974  21.044  0.00  0.00    +0.000 A 
ATOM     18  C   UNL     1      40.607   2.267  20.540  0.00  0.00    +0.000 A 
ATOM     19  C   UNL     1      40.675   1.197  19.652  0.00  0.00    +0.000 A 
ATOM     20  C   UNL     1      43.000   0.906  20.151  0.00  0.00    +0.000 A 
ATOM     21  C   UNL     1      41.867   0.508  19.450  0.00  0.00    +0.000 A 
BRANCH  20  22
ATOM     22  O   UNL     1      44.165   0.224  19.947  0.00  0.00    +0.000 OA
ATOM     23  H   UNL     1      44.774   0.429  20.677  0.00  0.00    +0.000 HD
ENDBRANCH  20  22
BRANCH  19  24
ATOM     24  O   UNL     1      39.569   0.799  18.958  0.00  0.00    +0.000 OA
ATOM     25  H   UNL     1      39.404  -0.140  19.156  0.00  0.00    +0.000 HD
ENDBRANCH  19  24
ENDBRANCH  15  16
ENDBRANCH   2  15
TORSDOF 10
ENDMDL
MODEL 9
REMARK VINA RESULT:      -3.4     27.127     28.725
REMARK  Name = 76617_Cardol.pdbqt.pdb
REMARK  10 active torsions:
REMARK  status: ('A' for Active; 'I' for Inactive)
REMARK    1  A    between atoms: C_1  and  C_2
REMARK    2  A    between atoms: C_3  and  C_4
REMARK    3  A    between atoms: C_5  and  C_6
REMARK    4  A    between atoms: C_7  and  C_8
REMARK    5  A    between atoms: C_8  and  C_9
REMARK    6  A    between atoms: C_10  and  C_11
REMARK    7  A    between atoms: C_14  and  C_15
REMARK    8  A    between atoms: C_15  and  C_16
REMARK    9  A    between atoms: C_19  and  O_24
REMARK   10  A    between atoms: C_20  and  O_22
REMARK                            x       y       z     vdW  Elec       q    Type
REMARK                         _______ _______ _______ _____ _____    ______ ____
ROOT
ATOM      1  C   UNL     1      26.761  -2.314   0.768  0.00  0.00    +0.000 C 
ATOM      2  C   UNL     1      27.749  -2.013   0.156  0.00  0.00    +0.000 C 
ENDROOT
BRANCH   1   3
ATOM      3  C   UNL     1      25.502  -2.698   1.549  0.00  0.00    +0.000 C 
ATOM      4  C   UNL     1      24.242  -3.083   2.332  0.00  0.00    +0.000 C 
BRANCH   4   5
ATOM      5  C   UNL     1      22.983  -3.468   3.115  0.00  0.00    +0.000 C 
ATOM      6  C   UNL     1      21.725  -3.853   3.898  0.00  0.00    +0.000 C 
BRANCH   6   7
ATOM      7  C   UNL     1      20.466  -4.239   4.681  0.00  0.00    +0.000 C 
ATOM      8  C   UNL     1      19.208  -4.626   5.464  0.00  0.00    +0.000 C 
BRANCH   8   9
ATOM      9  C   UNL     1      17.950  -5.013   6.247  0.00  0.00    +0.000 C 
BRANCH   9  10
ATOM     10  C   UNL     1      16.692  -5.398   7.031  0.00  0.00    +0.000 C 
ATOM     11  C   UNL     1      15.434  -5.783   7.816  0.00  0.00    +0.000 C 
BRANCH  11  12
ATOM     12  C   UNL     1      14.177  -6.169   8.601  0.00  0.00    +0.000 C 
ATOM     13  C   UNL     1      12.920  -6.555   9.386  0.00  0.00    +0.000 C 
ATOM     14  C   UNL     1      11.662  -6.941  10.171  0.00  0.00    +0.000 C 
ENDBRANCH  11  12
ENDBRANCH   9  10
ENDBRANCH   8   9
ENDBRANCH   6   7
ENDBRANCH   4   5
ENDBRANCH   1   3
BRANCH   2  15
ATOM     15  C   UNL     1      29.009  -1.629  -0.627  0.00  0.00    +0.000 C 
BRANCH  15  16
ATOM     16  C   UNL     1      30.180  -1.272  -1.355  0.00  0.00    +0.000 A 
ATOM     17  C   UNL     1      31.166  -2.227  -1.594  0.00  0.00    +0.000 A 
ATOM     18  C   UNL     1      30.334   0.030  -1.825  0.00  0.00    +0.000 A 
ATOM     19  C   UNL     1      31.483   0.369  -2.536  0.00  0.00    +0.000 A 
ATOM     20  C   UNL     1      32.307  -1.868  -2.307  0.00  0.00    +0.000 A 
ATOM     21  C   UNL     1      32.477  -0.573  -2.783  0.00  0.00    +0.000 A 
BRANCH  20  22
ATOM     22  O   UNL     1      33.288  -2.786  -2.554  0.00  0.00    +0.000 OA
ATOM     23  H   UNL     1      33.919  -2.768  -1.814  0.00  0.00    +0.000 HD
ENDBRANCH  20  22
BRANCH  19  24
ATOM     24  O   UNL     1      31.659   1.639  -3.008  0.00  0.00    +0.000 OA
ATOM     25  H   UNL     1      31.722   2.242  -2.246  0.00  0.00    +0.000 HD
ENDBRANCH  19  24
ENDBRANCH  15  16
ENDBRANCH   2  15
TORSDOF 10
ENDMDL
