MODEL 1
REMARK VINA RESULT:      -6.7      0.000      0.000
REMARK  Name = 85668777_Hyaluronidase.pdbqt.pdb
REMARK  5 active torsions:
REMARK  status: ('A' for Active; 'I' for Inactive)
REMARK    1  A    between atoms: N_1  and  C_13
REMARK    2  A    between atoms: C_14  and  C_15
REMARK    3  A    between atoms: C_15  and  C_16
REMARK    4  A    between atoms: C_17  and  C_19
REMARK    5  A    between atoms: C_19  and  O_20
REMARK                            x       y       z     vdW  Elec       q    Type
REMARK                         _______ _______ _______ _____ _____    ______ ____
ROOT
ATOM      1  N   UNL     1      35.860  16.723  20.700  0.00  0.00    +0.000 N 
ATOM      2  C   UNL     1      35.290  19.050  20.354  0.00  0.00    +0.000 C 
ATOM      3  C   UNL     1      36.713  18.723  19.903  0.00  0.00    +0.000 A 
ATOM      4  C   UNL     1      34.816  17.635  20.868  0.00  0.00    +0.000 C 
ATOM      5  C   UNL     1      36.978  17.357  20.133  0.00  0.00    +0.000 A 
ATOM      6  C   UNL     1      35.346  20.110  21.499  0.00  0.00    +0.000 C 
ATOM      7  C   UNL     1      34.463  19.540  19.122  0.00  0.00    +0.000 C 
ATOM      8  C   UNL     1      37.675  19.554  19.347  0.00  0.00    +0.000 A 
ATOM      9  C   UNL     1      38.206  16.807  19.809  0.00  0.00    +0.000 A 
ATOM     10  C   UNL     1      33.634  17.258  21.397  0.00  0.00    +0.000 C 
ATOM     11  C   UNL     1      38.912  18.998  19.021  0.00  0.00    +0.000 A 
ATOM     12  C   UNL     1      39.174  17.640  19.249  0.00  0.00    +0.000 A 
ENDROOT
BRANCH   1  13
ATOM     13  C   UNL     1      35.827  15.323  21.047  0.00  0.00    +0.000 C 
ATOM     14  C   UNL     1      35.791  13.838  21.420  0.00  0.00    +0.000 C 
BRANCH  14  15
ATOM     15  C   UNL     1      35.756  12.353  21.794  0.00  0.00    +0.000 C 
BRANCH  15  16
ATOM     16  C   UNL     1      35.721  10.869  22.169  0.00  0.00    +0.000 C 
ATOM     17  C   UNL     1      35.686   9.384  22.545  0.00  0.00    +0.000 C 
BRANCH  17  19
ATOM     18  O   UNL     1      35.064   7.567  23.876  0.00  0.00    +0.000 OA
ATOM     19  C   UNL     1      35.652   7.997  22.898  0.00  0.00    +0.000 C 
BRANCH  19  20
ATOM     20  O   UNL     1      36.330   7.200  22.053  0.00  0.00    +0.000 OA
ATOM     21  H   UNL     1      35.730   7.114  21.285  0.00  0.00    +0.000 HD
ENDBRANCH  19  20
ENDBRANCH  17  19
ENDBRANCH  15  16
ENDBRANCH  14  15
ENDBRANCH   1  13
TORSDOF 5
ENDMDL
MODEL 2
REMARK VINA RESULT:      -5.7     21.441     23.174
REMARK  Name = 85668777_Hyaluronidase.pdbqt.pdb
REMARK  5 active torsions:
REMARK  status: ('A' for Active; 'I' for Inactive)
REMARK    1  A    between atoms: N_1  and  C_13
REMARK    2  A    between atoms: C_14  and  C_15
REMARK    3  A    between atoms: C_15  and  C_16
REMARK    4  A    between atoms: C_17  and  C_19
REMARK    5  A    between atoms: C_19  and  O_20
REMARK                            x       y       z     vdW  Elec       q    Type
REMARK                         _______ _______ _______ _____ _____    ______ ____
ROOT
ATOM      1  N   UNL     1      51.110   4.340   9.691  0.00  0.00    +0.000 N 
ATOM      2  C   UNL     1      51.399   5.357  11.868  0.00  0.00    +0.000 C 
ATOM      3  C   UNL     1      51.286   6.392  10.749  0.00  0.00    +0.000 A 
ATOM      4  C   UNL     1      51.266   4.020  11.041  0.00  0.00    +0.000 C 
ATOM      5  C   UNL     1      51.120   5.733   9.513  0.00  0.00    +0.000 A 
ATOM      6  C   UNL     1      52.795   5.496  12.554  0.00  0.00    +0.000 C 
ATOM      7  C   UNL     1      50.216   5.556  12.869  0.00  0.00    +0.000 C 
ATOM      8  C   UNL     1      51.328   7.777  10.820  0.00  0.00    +0.000 A 
ATOM      9  C   UNL     1      50.993   6.450   8.336  0.00  0.00    +0.000 A 
ATOM     10  C   UNL     1      51.287   2.738  11.460  0.00  0.00    +0.000 C 
ATOM     11  C   UNL     1      51.200   8.499   9.634  0.00  0.00    +0.000 A 
ATOM     12  C   UNL     1      51.034   7.843   8.406  0.00  0.00    +0.000 A 
ENDROOT
BRANCH   1  13
ATOM     13  C   UNL     1      50.954   3.398   8.609  0.00  0.00    +0.000 C 
ATOM     14  C   UNL     1      50.793   2.394   7.463  0.00  0.00    +0.000 C 
BRANCH  14  15
ATOM     15  C   UNL     1      50.632   1.391   6.317  0.00  0.00    +0.000 C 
BRANCH  15  16
ATOM     16  C   UNL     1      50.472   0.388   5.171  0.00  0.00    +0.000 C 
ATOM     17  C   UNL     1      50.310  -0.614   4.024  0.00  0.00    +0.000 C 
BRANCH  17  19
ATOM     18  O   UNL     1      50.776  -2.599   2.883  0.00  0.00    +0.000 OA
ATOM     19  C   UNL     1      50.158  -1.550   2.951  0.00  0.00    +0.000 C 
BRANCH  19  20
ATOM     20  O   UNL     1      49.270  -1.172   2.015  0.00  0.00    +0.000 OA
ATOM     21  H   UNL     1      49.147  -1.977   1.474  0.00  0.00    +0.000 HD
ENDBRANCH  19  20
ENDBRANCH  17  19
ENDBRANCH  15  16
ENDBRANCH  14  15
ENDBRANCH   1  13
TORSDOF 5
ENDMDL
MODEL 3
REMARK VINA RESULT:      -5.2      1.540      3.204
REMARK  Name = 85668777_Hyaluronidase.pdbqt.pdb
REMARK  5 active torsions:
REMARK  status: ('A' for Active; 'I' for Inactive)
REMARK    1  A    between atoms: N_1  and  C_13
REMARK    2  A    between atoms: C_14  and  C_15
REMARK    3  A    between atoms: C_15  and  C_16
REMARK    4  A    between atoms: C_17  and  C_19
REMARK    5  A    between atoms: C_19  and  O_20
REMARK                            x       y       z     vdW  Elec       q    Type
REMARK                         _______ _______ _______ _____ _____    ______ ____
ROOT
ATOM      1  N   UNL     1      35.315  15.868  20.498  0.00  0.00    +0.000 N 
ATOM      2  C   UNL     1      35.806  18.195  20.049  0.00  0.00    +0.000 C 
ATOM      3  C   UNL     1      34.429  17.778  19.533  0.00  0.00    +0.000 A 
ATOM      4  C   UNL     1      36.305  16.835  20.677  0.00  0.00    +0.000 C 
ATOM      5  C   UNL     1      34.209  16.416  19.826  0.00  0.00    +0.000 A 
ATOM      6  C   UNL     1      36.687  18.653  18.845  0.00  0.00    +0.000 C 
ATOM      7  C   UNL     1      35.631  19.315  21.124  0.00  0.00    +0.000 C 
ATOM      8  C   UNL     1      33.470  18.530  18.870  0.00  0.00    +0.000 A 
ATOM      9  C   UNL     1      33.029  15.792  19.461  0.00  0.00    +0.000 A 
ATOM     10  C   UNL     1      37.466  16.544  21.299  0.00  0.00    +0.000 C 
ATOM     11  C   UNL     1      32.282  17.900  18.502  0.00  0.00    +0.000 A 
ATOM     12  C   UNL     1      32.064  16.547  18.795  0.00  0.00    +0.000 A 
ENDROOT
BRANCH   1  13
ATOM     13  C   UNL     1      35.385  14.493  20.931  0.00  0.00    +0.000 C 
ATOM     14  C   UNL     1      35.462  13.035  21.395  0.00  0.00    +0.000 C 
BRANCH  14  15
ATOM     15  C   UNL     1      35.541  11.578  21.859  0.00  0.00    +0.000 C 
BRANCH  15  16
ATOM     16  C   UNL     1      35.620  10.121  22.322  0.00  0.00    +0.000 C 
ATOM     17  C   UNL     1      35.699   8.662  22.785  0.00  0.00    +0.000 C 
BRANCH  17  19
ATOM     18  O   UNL     1      34.878   6.491  23.045  0.00  0.00    +0.000 OA
ATOM     19  C   UNL     1      35.774   7.299  23.216  0.00  0.00    +0.000 C 
BRANCH  19  20
ATOM     20  O   UNL     1      36.925   6.982  23.834  0.00  0.00    +0.000 OA
ATOM     21  H   UNL     1      37.339   6.332  23.231  0.00  0.00    +0.000 HD
ENDBRANCH  19  20
ENDBRANCH  17  19
ENDBRANCH  15  16
ENDBRANCH  14  15
ENDBRANCH   1  13
TORSDOF 5
ENDMDL
MODEL 4
REMARK VINA RESULT:      -5.0     14.471     17.599
REMARK  Name = 85668777_Hyaluronidase.pdbqt.pdb
REMARK  5 active torsions:
REMARK  status: ('A' for Active; 'I' for Inactive)
REMARK    1  A    between atoms: N_1  and  C_13
REMARK    2  A    between atoms: C_14  and  C_15
REMARK    3  A    between atoms: C_15  and  C_16
REMARK    4  A    between atoms: C_17  and  C_19
REMARK    5  A    between atoms: C_19  and  O_20
REMARK                            x       y       z     vdW  Elec       q    Type
REMARK                         _______ _______ _______ _____ _____    ______ ____
ROOT
ATOM      1  N   UNL     1      51.758  17.731  12.645  0.00  0.00    +0.000 N 
ATOM      2  C   UNL     1      53.245  17.831  10.739  0.00  0.00    +0.000 C 
ATOM      3  C   UNL     1      51.818  17.451  10.347  0.00  0.00    +0.000 A 
ATOM      4  C   UNL     1      53.084  17.994  12.300  0.00  0.00    +0.000 C 
ATOM      5  C   UNL     1      51.007  17.411  11.501  0.00  0.00    +0.000 A 
ATOM      6  C   UNL     1      54.209  16.662  10.359  0.00  0.00    +0.000 C 
ATOM      7  C   UNL     1      53.628  19.174  10.038  0.00  0.00    +0.000 C 
ATOM      8  C   UNL     1      51.292  17.169   9.094  0.00  0.00    +0.000 A 
ATOM      9  C   UNL     1      49.664  17.089  11.415  0.00  0.00    +0.000 A 
ATOM     10  C   UNL     1      53.999  18.325  13.234  0.00  0.00    +0.000 C 
ATOM     11  C   UNL     1      49.938  16.845   9.010  0.00  0.00    +0.000 A 
ATOM     12  C   UNL     1      49.134  16.807  10.157  0.00  0.00    +0.000 A 
ENDROOT
BRANCH   1  13
ATOM     13  C   UNL     1      51.203  17.774  13.977  0.00  0.00    +0.000 C 
ATOM     14  C   UNL     1      50.610  17.821  15.388  0.00  0.00    +0.000 C 
BRANCH  14  15
ATOM     15  C   UNL     1      50.016  17.869  16.799  0.00  0.00    +0.000 C 
BRANCH  15  16
ATOM     16  C   UNL     1      49.421  17.917  18.209  0.00  0.00    +0.000 C 
ATOM     17  C   UNL     1      48.826  17.966  19.620  0.00  0.00    +0.000 C 
BRANCH  17  19
ATOM     18  O   UNL     1      48.187  19.034  21.597  0.00  0.00    +0.000 OA
ATOM     19  C   UNL     1      48.268  18.012  20.937  0.00  0.00    +0.000 C 
BRANCH  19  20
ATOM     20  O   UNL     1      47.836  16.822  21.391  0.00  0.00    +0.000 OA
ATOM     21  H   UNL     1      48.606  16.232  21.262  0.00  0.00    +0.000 HD
ENDBRANCH  19  20
ENDBRANCH  17  19
ENDBRANCH  15  16
ENDBRANCH  14  15
ENDBRANCH   1  13
TORSDOF 5
ENDMDL
MODEL 5
REMARK VINA RESULT:      -4.7     21.512     23.983
REMARK  Name = 85668777_Hyaluronidase.pdbqt.pdb
REMARK  5 active torsions:
REMARK  status: ('A' for Active; 'I' for Inactive)
REMARK    1  A    between atoms: N_1  and  C_13
REMARK    2  A    between atoms: C_14  and  C_15
REMARK    3  A    between atoms: C_15  and  C_16
REMARK    4  A    between atoms: C_17  and  C_19
REMARK    5  A    between atoms: C_19  and  O_20
REMARK                            x       y       z     vdW  Elec       q    Type
REMARK                         _______ _______ _______ _____ _____    ______ ____
ROOT
ATOM      1  N   UNL     1      51.705   5.586   9.486  0.00  0.00    +0.000 N 
ATOM      2  C   UNL     1      51.338   5.093  11.827  0.00  0.00    +0.000 C 
ATOM      3  C   UNL     1      51.048   3.894  10.924  0.00  0.00    +0.000 A 
ATOM      4  C   UNL     1      51.771   6.166  10.754  0.00  0.00    +0.000 C 
ATOM      5  C   UNL     1      51.281   4.250   9.579  0.00  0.00    +0.000 A 
ATOM      6  C   UNL     1      50.030   5.497  12.578  0.00  0.00    +0.000 C 
ATOM      7  C   UNL     1      52.502   4.728  12.803  0.00  0.00    +0.000 C 
ATOM      8  C   UNL     1      50.620   2.618  11.262  0.00  0.00    +0.000 A 
ATOM      9  C   UNL     1      51.090   3.335   8.559  0.00  0.00    +0.000 A 
ATOM     10  C   UNL     1      52.155   7.449  10.919  0.00  0.00    +0.000 C 
ATOM     11  C   UNL     1      50.427   1.698  10.233  0.00  0.00    +0.000 A 
ATOM     12  C   UNL     1      50.660   2.052   8.897  0.00  0.00    +0.000 A 
ENDROOT
BRANCH   1  13
ATOM     13  C   UNL     1      52.023   6.237   8.238  0.00  0.00    +0.000 C 
ATOM     14  C   UNL     1      52.356   6.929   6.912  0.00  0.00    +0.000 C 
BRANCH  14  15
ATOM     15  C   UNL     1      52.687   7.621   5.586  0.00  0.00    +0.000 C 
BRANCH  15  16
ATOM     16  C   UNL     1      53.018   8.313   4.262  0.00  0.00    +0.000 C 
ATOM     17  C   UNL     1      53.350   9.005   2.936  0.00  0.00    +0.000 C 
BRANCH  17  19
ATOM     18  O   UNL     1      54.249  10.715   1.621  0.00  0.00    +0.000 OA
ATOM     19  C   UNL     1      53.659   9.650   1.696  0.00  0.00    +0.000 C 
BRANCH  19  20
ATOM     20  O   UNL     1      53.239   8.979   0.609  0.00  0.00    +0.000 OA
ATOM     21  H   UNL     1      53.207   8.048   0.910  0.00  0.00    +0.000 HD
ENDBRANCH  19  20
ENDBRANCH  17  19
ENDBRANCH  15  16
ENDBRANCH  14  15
ENDBRANCH   1  13
TORSDOF 5
ENDMDL
MODEL 6
REMARK VINA RESULT:      -4.6     27.514     28.275
REMARK  Name = 85668777_Hyaluronidase.pdbqt.pdb
REMARK  5 active torsions:
REMARK  status: ('A' for Active; 'I' for Inactive)
REMARK    1  A    between atoms: N_1  and  C_13
REMARK    2  A    between atoms: C_14  and  C_15
REMARK    3  A    between atoms: C_15  and  C_16
REMARK    4  A    between atoms: C_17  and  C_19
REMARK    5  A    between atoms: C_19  and  O_20
REMARK                            x       y       z     vdW  Elec       q    Type
REMARK                         _______ _______ _______ _____ _____    ______ ____
ROOT
ATOM      1  N   UNL     1      28.709   4.553  -3.400  0.00  0.00    +0.000 N 
ATOM      2  C   UNL     1      27.877   6.823  -3.280  0.00  0.00    +0.000 C 
ATOM      3  C   UNL     1      27.214   6.014  -4.395  0.00  0.00    +0.000 A 
ATOM      4  C   UNL     1      28.858   5.741  -2.682  0.00  0.00    +0.000 C 
ATOM      5  C   UNL     1      27.744   4.707  -4.409  0.00  0.00    +0.000 A 
ATOM      6  C   UNL     1      28.637   8.034  -3.908  0.00  0.00    +0.000 C 
ATOM      7  C   UNL     1      26.786   7.267  -2.254  0.00  0.00    +0.000 C 
ATOM      8  C   UNL     1      26.241   6.400  -5.307  0.00  0.00    +0.000 A 
ATOM      9  C   UNL     1      27.307   3.773  -5.331  0.00  0.00    +0.000 A 
ATOM     10  C   UNL     1      29.731   5.838  -1.658  0.00  0.00    +0.000 C 
ATOM     11  C   UNL     1      25.802   5.457  -6.235  0.00  0.00    +0.000 A 
ATOM     12  C   UNL     1      26.329   4.159  -6.247  0.00  0.00    +0.000 A 
ENDROOT
BRANCH   1  13
ATOM     13  C   UNL     1      29.427   3.324  -3.163  0.00  0.00    +0.000 C 
ATOM     14  C   UNL     1      30.187   2.017  -2.915  0.00  0.00    +0.000 C 
BRANCH  14  15
ATOM     15  C   UNL     1      30.945   0.709  -2.668  0.00  0.00    +0.000 C 
BRANCH  15  16
ATOM     16  C   UNL     1      31.702  -0.598  -2.422  0.00  0.00    +0.000 C 
ATOM     17  C   UNL     1      32.461  -1.906  -2.176  0.00  0.00    +0.000 C 
BRANCH  17  19
ATOM     18  O   UNL     1      32.691  -4.231  -2.142  0.00  0.00    +0.000 OA
ATOM     19  C   UNL     1      33.171  -3.128  -1.945  0.00  0.00    +0.000 C 
BRANCH  19  20
ATOM     20  O   UNL     1      34.424  -2.955  -1.489  0.00  0.00    +0.000 OA
ATOM     21  H   UNL     1      34.318  -2.317  -0.756  0.00  0.00    +0.000 HD
ENDBRANCH  19  20
ENDBRANCH  17  19
ENDBRANCH  15  16
ENDBRANCH  14  15
ENDBRANCH   1  13
TORSDOF 5
ENDMDL
MODEL 7
REMARK VINA RESULT:      -4.4      3.763      3.970
REMARK  Name = 85668777_Hyaluronidase.pdbqt.pdb
REMARK  5 active torsions:
REMARK  status: ('A' for Active; 'I' for Inactive)
REMARK    1  A    between atoms: N_1  and  C_13
REMARK    2  A    between atoms: C_14  and  C_15
REMARK    3  A    between atoms: C_15  and  C_16
REMARK    4  A    between atoms: C_17  and  C_19
REMARK    5  A    between atoms: C_19  and  O_20
REMARK                            x       y       z     vdW  Elec       q    Type
REMARK                         _______ _______ _______ _____ _____    ______ ____
ROOT
ATOM      1  N   UNL     1      35.350  17.726  21.800  0.00  0.00    +0.000 N 
ATOM      2  C   UNL     1      35.719  19.655  20.386  0.00  0.00    +0.000 C 
ATOM      3  C   UNL     1      36.685  18.511  20.078  0.00  0.00    +0.000 A 
ATOM      4  C   UNL     1      34.873  19.014  21.553  0.00  0.00    +0.000 C 
ATOM      5  C   UNL     1      36.416  17.424  20.935  0.00  0.00    +0.000 A 
ATOM      6  C   UNL     1      36.533  20.901  20.856  0.00  0.00    +0.000 C 
ATOM      7  C   UNL     1      34.854  19.948  19.118  0.00  0.00    +0.000 C 
ATOM      8  C   UNL     1      37.700  18.443  19.135  0.00  0.00    +0.000 A 
ATOM      9  C   UNL     1      37.157  16.258  20.858  0.00  0.00    +0.000 A 
ATOM     10  C   UNL     1      33.847  19.529  22.262  0.00  0.00    +0.000 C 
ATOM     11  C   UNL     1      38.446  17.268  19.059  0.00  0.00    +0.000 A 
ATOM     12  C   UNL     1      38.177  16.187  19.910  0.00  0.00    +0.000 A 
ENDROOT
BRANCH   1  13
ATOM     13  C   UNL     1      34.842  16.808  22.791  0.00  0.00    +0.000 C 
ATOM     14  C   UNL     1      34.300  15.833  23.840  0.00  0.00    +0.000 C 
BRANCH  14  15
ATOM     15  C   UNL     1      33.757  14.858  24.889  0.00  0.00    +0.000 C 
BRANCH  15  16
ATOM     16  C   UNL     1      33.214  13.882  25.937  0.00  0.00    +0.000 C 
ATOM     17  C   UNL     1      32.670  12.906  26.985  0.00  0.00    +0.000 C 
BRANCH  17  19
ATOM     18  O   UNL     1      32.743  11.728  29.001  0.00  0.00    +0.000 OA
ATOM     19  C   UNL     1      32.161  11.993  27.963  0.00  0.00    +0.000 C 
BRANCH  19  20
ATOM     20  O   UNL     1      30.977  11.446  27.638  0.00  0.00    +0.000 OA
ATOM     21  H   UNL     1      31.004  10.565  28.064  0.00  0.00    +0.000 HD
ENDBRANCH  19  20
ENDBRANCH  17  19
ENDBRANCH  15  16
ENDBRANCH  14  15
ENDBRANCH   1  13
TORSDOF 5
ENDMDL
MODEL 8
REMARK VINA RESULT:      -4.4      6.073      8.283
REMARK  Name = 85668777_Hyaluronidase.pdbqt.pdb
REMARK  5 active torsions:
REMARK  status: ('A' for Active; 'I' for Inactive)
REMARK    1  A    between atoms: N_1  and  C_13
REMARK    2  A    between atoms: C_14  and  C_15
REMARK    3  A    between atoms: C_15  and  C_16
REMARK    4  A    between atoms: C_17  and  C_19
REMARK    5  A    between atoms: C_19  and  O_20
REMARK                            x       y       z     vdW  Elec       q    Type
REMARK                         _______ _______ _______ _____ _____    ______ ____
ROOT
ATOM      1  N   UNL     1      33.515  15.034  20.656  0.00  0.00    +0.000 N 
ATOM      2  C   UNL     1      35.415  13.673  21.286  0.00  0.00    +0.000 C 
ATOM      3  C   UNL     1      35.830  15.030  20.718  0.00  0.00    +0.000 A 
ATOM      4  C   UNL     1      33.844  13.789  21.197  0.00  0.00    +0.000 C 
ATOM      5  C   UNL     1      34.679  15.768  20.372  0.00  0.00    +0.000 A 
ATOM      6  C   UNL     1      35.981  12.541  20.372  0.00  0.00    +0.000 C 
ATOM      7  C   UNL     1      35.919  13.561  22.761  0.00  0.00    +0.000 C 
ATOM      8  C   UNL     1      37.100  15.556  20.525  0.00  0.00    +0.000 A 
ATOM      9  C   UNL     1      34.784  17.038  19.832  0.00  0.00    +0.000 A 
ATOM     10  C   UNL     1      32.890  12.904  21.550  0.00  0.00    +0.000 C 
ATOM     11  C   UNL     1      37.204  16.835  19.981  0.00  0.00    +0.000 A 
ATOM     12  C   UNL     1      36.059  17.568  19.640  0.00  0.00    +0.000 A 
ENDROOT
BRANCH   1  13
ATOM     13  C   UNL     1      32.181  15.526  20.412  0.00  0.00    +0.000 C 
ATOM     14  C   UNL     1      30.764  16.049  20.159  0.00  0.00    +0.000 C 
BRANCH  14  15
ATOM     15  C   UNL     1      29.346  16.571  19.906  0.00  0.00    +0.000 C 
BRANCH  15  16
ATOM     16  C   UNL     1      27.929  17.094  19.655  0.00  0.00    +0.000 C 
ATOM     17  C   UNL     1      26.512  17.618  19.402  0.00  0.00    +0.000 C 
BRANCH  17  19
ATOM     18  O   UNL     1      24.323  18.147  20.023  0.00  0.00    +0.000 OA
ATOM     19  C   UNL     1      25.188  18.107  19.165  0.00  0.00    +0.000 C 
BRANCH  19  20
ATOM     20  O   UNL     1      24.975  18.521  17.903  0.00  0.00    +0.000 OA
ATOM     21  H   UNL     1      25.803  18.284  17.439  0.00  0.00    +0.000 HD
ENDBRANCH  19  20
ENDBRANCH  17  19
ENDBRANCH  15  16
ENDBRANCH  14  15
ENDBRANCH   1  13
TORSDOF 5
ENDMDL
MODEL 9
REMARK VINA RESULT:      -4.0      6.054      7.895
REMARK  Name = 85668777_Hyaluronidase.pdbqt.pdb
REMARK  5 active torsions:
REMARK  status: ('A' for Active; 'I' for Inactive)
REMARK    1  A    between atoms: N_1  and  C_13
REMARK    2  A    between atoms: C_14  and  C_15
REMARK    3  A    between atoms: C_15  and  C_16
REMARK    4  A    between atoms: C_17  and  C_19
REMARK    5  A    between atoms: C_19  and  O_20
REMARK                            x       y       z     vdW  Elec       q    Type
REMARK                         _______ _______ _______ _____ _____    ______ ____
ROOT
ATOM      1  N   UNL     1      33.062  13.744  21.109  0.00  0.00    +0.000 N 
ATOM      2  C   UNL     1      35.366  13.082  21.441  0.00  0.00    +0.000 C 
ATOM      3  C   UNL     1      35.235  14.538  20.995  0.00  0.00    +0.000 A 
ATOM      4  C   UNL     1      33.848  12.653  21.484  0.00  0.00    +0.000 C 
ATOM      5  C   UNL     1      33.872  14.856  20.820  0.00  0.00    +0.000 A 
ATOM      6  C   UNL     1      36.178  12.289  20.369  0.00  0.00    +0.000 C 
ATOM      7  C   UNL     1      36.035  13.039  22.853  0.00  0.00    +0.000 C 
ATOM      8  C   UNL     1      36.224  15.484  20.766  0.00  0.00    +0.000 A 
ATOM      9  C   UNL     1      33.483  16.121  20.416  0.00  0.00    +0.000 A 
ATOM     10  C   UNL     1      33.293  11.468  21.810  0.00  0.00    +0.000 C 
ATOM     11  C   UNL     1      35.831  16.758  20.359  0.00  0.00    +0.000 A 
ATOM     12  C   UNL     1      34.476  17.073  20.187  0.00  0.00    +0.000 A 
ENDROOT
BRANCH   1  13
ATOM     13  C   UNL     1      31.622  13.762  21.022  0.00  0.00    +0.000 C 
ATOM     14  C   UNL     1      30.093  13.779  20.935  0.00  0.00    +0.000 C 
BRANCH  14  15
ATOM     15  C   UNL     1      28.563  13.796  20.849  0.00  0.00    +0.000 C 
BRANCH  15  16
ATOM     16  C   UNL     1      27.035  13.813  20.764  0.00  0.00    +0.000 C 
ATOM     17  C   UNL     1      25.506  13.831  20.678  0.00  0.00    +0.000 C 
BRANCH  17  19
ATOM     18  O   UNL     1      23.347  13.670  21.556  0.00  0.00    +0.000 OA
ATOM     19  C   UNL     1      24.076  13.848  20.596  0.00  0.00    +0.000 C 
BRANCH  19  20
ATOM     20  O   UNL     1      23.601  14.077  19.359  0.00  0.00    +0.000 OA
ATOM     21  H   UNL     1      24.405  14.087  18.801  0.00  0.00    +0.000 HD
ENDBRANCH  19  20
ENDBRANCH  17  19
ENDBRANCH  15  16
ENDBRANCH  14  15
ENDBRANCH   1  13
TORSDOF 5
ENDMDL
