MODEL 1
REMARK VINA RESULT:      -4.7      0.000      0.000
REMARK  Name = 86311066_OplopantriolA.pdbqt.pdb
REMARK  12 active torsions:
REMARK  status: ('A' for Active; 'I' for Inactive)
REMARK    1  A    between atoms: C_1  and  C_3
REMARK    2  A    between atoms: C_2  and  C_13
REMARK    3  A    between atoms: C_4  and  C_5
REMARK    4  A    between atoms: C_6  and  C_7
REMARK    5  A    between atoms: C_8  and  C_9
REMARK    6  A    between atoms: C_10  and  O_11
REMARK    7  A    between atoms: C_13  and  O_14
REMARK    8  A    between atoms: C_13  and  C_16
REMARK    9  A    between atoms: C_17  and  C_18
REMARK   10  A    between atoms: C_19  and  C_20
REMARK   11  A    between atoms: C_20  and  C_21
REMARK   12  A    between atoms: C_20  and  O_23
REMARK                            x       y       z     vdW  Elec       q    Type
REMARK                         _______ _______ _______ _____ _____    ______ ____
ROOT
ATOM      1  C   UNL     1      36.722  18.016  20.152  0.00  0.00    +0.000 C 
ATOM      2  C   UNL     1      36.886  19.164  19.838  0.00  0.00    +0.000 C 
ENDROOT
BRANCH   1   3
ATOM      3  C   UNL     1      36.513  16.553  20.552  0.00  0.00    +0.000 C 
ATOM      4  C   UNL     1      36.305  15.089  20.951  0.00  0.00    +0.000 C 
BRANCH   4   5
ATOM      5  C   UNL     1      36.096  13.625  21.350  0.00  0.00    +0.000 C 
ATOM      6  C   UNL     1      35.889  12.161  21.750  0.00  0.00    +0.000 C 
BRANCH   6   7
ATOM      7  C   UNL     1      35.681  10.697  22.149  0.00  0.00    +0.000 C 
ATOM      8  C   UNL     1      35.473   9.233  22.548  0.00  0.00    +0.000 C 
BRANCH   8   9
ATOM      9  C   UNL     1      35.265   7.769  22.949  0.00  0.00    +0.000 C 
ATOM     10  C   UNL     1      35.056   6.306  23.349  0.00  0.00    +0.000 C 
BRANCH  10  11
ATOM     11  O   UNL     1      34.875   5.037  23.696  0.00  0.00    +0.000 OA
ATOM     12  H   UNL     1      35.531   4.469  23.256  0.00  0.00    +0.000 HD
ENDBRANCH  10  11
ENDBRANCH   8   9
ENDBRANCH   6   7
ENDBRANCH   4   5
ENDBRANCH   1   3
BRANCH   2  13
ATOM     13  C   UNL     1      37.079  20.517  19.467  0.00  0.00    +0.000 C 
BRANCH  13  14
ATOM     14  O   UNL     1      36.507  20.941  18.289  0.00  0.00    +0.000 OA
ATOM     15  H   UNL     1      37.039  21.632  17.861  0.00  0.00    +0.000 HD
ENDBRANCH  13  14
BRANCH  13  16
ATOM     16  C   UNL     1      37.824  21.446  20.238  0.00  0.00    +0.000 C 
ATOM     17  C   UNL     1      38.455  22.232  20.890  0.00  0.00    +0.000 C 
BRANCH  17  18
ATOM     18  C   UNL     1      39.259  23.237  21.719  0.00  0.00    +0.000 C 
ATOM     19  C   UNL     1      39.889  24.025  22.370  0.00  0.00    +0.000 C 
BRANCH  19  20
ATOM     20  C   UNL     1      40.635  24.958  23.139  0.00  0.00    +0.000 C 
BRANCH  20  21
ATOM     21  C   UNL     1      41.697  24.582  24.007  0.00  0.00    +0.000 C 
ATOM     22  C   UNL     1      42.703  24.242  24.817  0.00  0.00    +0.000 C 
ENDBRANCH  20  21
BRANCH  20  23
ATOM     23  O   UNL     1      40.311  26.296  23.039  0.00  0.00    +0.000 OA
ATOM     24  H   UNL     1      40.217  26.577  22.112  0.00  0.00    +0.000 HD
ENDBRANCH  20  23
ENDBRANCH  19  20
ENDBRANCH  17  18
ENDBRANCH  13  16
ENDBRANCH   2  13
TORSDOF 12
ENDMDL
MODEL 2
REMARK VINA RESULT:      -4.6     23.777     25.077
REMARK  Name = 86311066_OplopantriolA.pdbqt.pdb
REMARK  12 active torsions:
REMARK  status: ('A' for Active; 'I' for Inactive)
REMARK    1  A    between atoms: C_1  and  C_3
REMARK    2  A    between atoms: C_2  and  C_13
REMARK    3  A    between atoms: C_4  and  C_5
REMARK    4  A    between atoms: C_6  and  C_7
REMARK    5  A    between atoms: C_8  and  C_9
REMARK    6  A    between atoms: C_10  and  O_11
REMARK    7  A    between atoms: C_13  and  O_14
REMARK    8  A    between atoms: C_13  and  C_16
REMARK    9  A    between atoms: C_17  and  C_18
REMARK   10  A    between atoms: C_19  and  C_20
REMARK   11  A    between atoms: C_20  and  C_21
REMARK   12  A    between atoms: C_20  and  O_23
REMARK                            x       y       z     vdW  Elec       q    Type
REMARK                         _______ _______ _______ _____ _____    ______ ____
ROOT
ATOM      1  C   UNL     1      51.482   5.996   6.689  0.00  0.00    +0.000 C 
ATOM      2  C   UNL     1      51.373   6.918   7.451  0.00  0.00    +0.000 C 
ENDROOT
BRANCH   1   3
ATOM      3  C   UNL     1      51.623   4.821   5.718  0.00  0.00    +0.000 C 
ATOM      4  C   UNL     1      51.763   3.645   4.747  0.00  0.00    +0.000 C 
BRANCH   4   5
ATOM      5  C   UNL     1      51.904   2.469   3.775  0.00  0.00    +0.000 C 
ATOM      6  C   UNL     1      52.048   1.294   2.803  0.00  0.00    +0.000 C 
BRANCH   6   7
ATOM      7  C   UNL     1      52.190   0.119   1.831  0.00  0.00    +0.000 C 
ATOM      8  C   UNL     1      52.332  -1.056   0.859  0.00  0.00    +0.000 C 
BRANCH   8   9
ATOM      9  C   UNL     1      52.476  -2.231  -0.113  0.00  0.00    +0.000 C 
ATOM     10  C   UNL     1      52.618  -3.406  -1.085  0.00  0.00    +0.000 C 
BRANCH  10  11
ATOM     11  O   UNL     1      52.743  -4.424  -1.928  0.00  0.00    +0.000 OA
ATOM     12  H   UNL     1      52.314  -5.217  -1.566  0.00  0.00    +0.000 HD
ENDBRANCH  10  11
ENDBRANCH   8   9
ENDBRANCH   6   7
ENDBRANCH   4   5
ENDBRANCH   1   3
BRANCH   2  13
ATOM     13  C   UNL     1      51.243   8.006   8.349  0.00  0.00    +0.000 C 
BRANCH  13  14
ATOM     14  O   UNL     1      51.046   9.257   7.809  0.00  0.00    +0.000 OA
ATOM     15  H   UNL     1      50.102   9.438   7.660  0.00  0.00    +0.000 HD
ENDBRANCH  13  14
BRANCH  13  16
ATOM     16  C   UNL     1      51.304   7.874   9.760  0.00  0.00    +0.000 C 
ATOM     17  C   UNL     1      51.357   7.761  10.954  0.00  0.00    +0.000 C 
BRANCH  17  18
ATOM     18  C   UNL     1      51.426   7.616  12.476  0.00  0.00    +0.000 C 
ATOM     19  C   UNL     1      51.481   7.502  13.671  0.00  0.00    +0.000 C 
BRANCH  19  20
ATOM     20  C   UNL     1      51.545   7.366  15.083  0.00  0.00    +0.000 C 
BRANCH  20  21
ATOM     21  C   UNL     1      52.667   6.817  15.764  0.00  0.00    +0.000 C 
ATOM     22  C   UNL     1      53.724   6.294  16.390  0.00  0.00    +0.000 C 
ENDBRANCH  20  21
BRANCH  20  23
ATOM     23  O   UNL     1      50.465   7.787  15.831  0.00  0.00    +0.000 OA
ATOM     24  H   UNL     1      50.588   8.692  16.167  0.00  0.00    +0.000 HD
ENDBRANCH  20  23
ENDBRANCH  19  20
ENDBRANCH  17  18
ENDBRANCH  13  16
ENDBRANCH   2  13
TORSDOF 12
ENDMDL
MODEL 3
REMARK VINA RESULT:      -4.4      5.605     14.223
REMARK  Name = 86311066_OplopantriolA.pdbqt.pdb
REMARK  12 active torsions:
REMARK  status: ('A' for Active; 'I' for Inactive)
REMARK    1  A    between atoms: C_1  and  C_3
REMARK    2  A    between atoms: C_2  and  C_13
REMARK    3  A    between atoms: C_4  and  C_5
REMARK    4  A    between atoms: C_6  and  C_7
REMARK    5  A    between atoms: C_8  and  C_9
REMARK    6  A    between atoms: C_10  and  O_11
REMARK    7  A    between atoms: C_13  and  O_14
REMARK    8  A    between atoms: C_13  and  C_16
REMARK    9  A    between atoms: C_17  and  C_18
REMARK   10  A    between atoms: C_19  and  C_20
REMARK   11  A    between atoms: C_20  and  C_21
REMARK   12  A    between atoms: C_20  and  O_23
REMARK                            x       y       z     vdW  Elec       q    Type
REMARK                         _______ _______ _______ _____ _____    ______ ____
ROOT
ATOM      1  C   UNL     1      36.965  19.897  19.254  0.00  0.00    +0.000 C 
ATOM      2  C   UNL     1      37.555  18.868  19.443  0.00  0.00    +0.000 C 
ENDROOT
BRANCH   1   3
ATOM      3  C   UNL     1      36.214  21.209  19.013  0.00  0.00    +0.000 C 
ATOM      4  C   UNL     1      35.463  22.522  18.772  0.00  0.00    +0.000 C 
BRANCH   4   5
ATOM      5  C   UNL     1      34.712  23.835  18.531  0.00  0.00    +0.000 C 
ATOM      6  C   UNL     1      33.960  25.148  18.290  0.00  0.00    +0.000 C 
BRANCH   6   7
ATOM      7  C   UNL     1      33.209  26.460  18.048  0.00  0.00    +0.000 C 
ATOM      8  C   UNL     1      32.457  27.773  17.807  0.00  0.00    +0.000 C 
BRANCH   8   9
ATOM      9  C   UNL     1      31.706  29.085  17.564  0.00  0.00    +0.000 C 
ATOM     10  C   UNL     1      30.955  30.398  17.321  0.00  0.00    +0.000 C 
BRANCH  10  11
ATOM     11  O   UNL     1      30.303  31.535  17.110  0.00  0.00    +0.000 OA
ATOM     12  H   UNL     1      29.386  31.355  16.844  0.00  0.00    +0.000 HD
ENDBRANCH  10  11
ENDBRANCH   8   9
ENDBRANCH   6   7
ENDBRANCH   4   5
ENDBRANCH   1   3
BRANCH   2  13
ATOM     13  C   UNL     1      38.251  17.655  19.666  0.00  0.00    +0.000 C 
BRANCH  13  14
ATOM     14  O   UNL     1      39.620  17.672  19.527  0.00  0.00    +0.000 OA
ATOM     15  H   UNL     1      39.885  17.915  18.624  0.00  0.00    +0.000 HD
ENDBRANCH  13  14
BRANCH  13  16
ATOM     16  C   UNL     1      37.616  16.437  20.022  0.00  0.00    +0.000 C 
ATOM     17  C   UNL     1      37.079  15.407  20.324  0.00  0.00    +0.000 C 
BRANCH  17  18
ATOM     18  C   UNL     1      36.395  14.093  20.711  0.00  0.00    +0.000 C 
ATOM     19  C   UNL     1      35.858  13.063  21.015  0.00  0.00    +0.000 C 
BRANCH  19  20
ATOM     20  C   UNL     1      35.224  11.845  21.376  0.00  0.00    +0.000 C 
BRANCH  20  21
ATOM     21  C   UNL     1      33.815  11.653  21.327  0.00  0.00    +0.000 C 
ATOM     22  C   UNL     1      32.491  11.488  21.275  0.00  0.00    +0.000 C 
ENDBRANCH  20  21
BRANCH  20  23
ATOM     23  O   UNL     1      36.014  10.794  21.796  0.00  0.00    +0.000 OA
ATOM     24  H   UNL     1      36.399  10.308  21.046  0.00  0.00    +0.000 HD
ENDBRANCH  20  23
ENDBRANCH  19  20
ENDBRANCH  17  18
ENDBRANCH  13  16
ENDBRANCH   2  13
TORSDOF 12
ENDMDL
MODEL 4
REMARK VINA RESULT:      -4.3      2.169      3.048
REMARK  Name = 86311066_OplopantriolA.pdbqt.pdb
REMARK  12 active torsions:
REMARK  status: ('A' for Active; 'I' for Inactive)
REMARK    1  A    between atoms: C_1  and  C_3
REMARK    2  A    between atoms: C_2  and  C_13
REMARK    3  A    between atoms: C_4  and  C_5
REMARK    4  A    between atoms: C_6  and  C_7
REMARK    5  A    between atoms: C_8  and  C_9
REMARK    6  A    between atoms: C_10  and  O_11
REMARK    7  A    between atoms: C_13  and  O_14
REMARK    8  A    between atoms: C_13  and  C_16
REMARK    9  A    between atoms: C_17  and  C_18
REMARK   10  A    between atoms: C_19  and  C_20
REMARK   11  A    between atoms: C_20  and  C_21
REMARK   12  A    between atoms: C_20  and  O_23
REMARK                            x       y       z     vdW  Elec       q    Type
REMARK                         _______ _______ _______ _____ _____    ______ ____
ROOT
ATOM      1  C   UNL     1      35.516  15.862  20.308  0.00  0.00    +0.000 C 
ATOM      2  C   UNL     1      35.466  16.949  19.801  0.00  0.00    +0.000 C 
ENDROOT
BRANCH   1   3
ATOM      3  C   UNL     1      35.580  14.476  20.955  0.00  0.00    +0.000 C 
ATOM      4  C   UNL     1      35.645  13.090  21.604  0.00  0.00    +0.000 C 
BRANCH   4   5
ATOM      5  C   UNL     1      35.711  11.703  22.252  0.00  0.00    +0.000 C 
ATOM      6  C   UNL     1      35.775  10.317  22.900  0.00  0.00    +0.000 C 
BRANCH   6   7
ATOM      7  C   UNL     1      35.839   8.931  23.548  0.00  0.00    +0.000 C 
ATOM      8  C   UNL     1      35.903   7.544  24.196  0.00  0.00    +0.000 C 
BRANCH   8   9
ATOM      9  C   UNL     1      35.966   6.158  24.844  0.00  0.00    +0.000 C 
ATOM     10  C   UNL     1      36.029   4.771  25.491  0.00  0.00    +0.000 C 
BRANCH  10  11
ATOM     11  O   UNL     1      36.083   3.569  26.053  0.00  0.00    +0.000 OA
ATOM     12  H   UNL     1      36.975   3.193  25.960  0.00  0.00    +0.000 HD
ENDBRANCH  10  11
ENDBRANCH   8   9
ENDBRANCH   6   7
ENDBRANCH   4   5
ENDBRANCH   1   3
BRANCH   2  13
ATOM     13  C   UNL     1      35.408  18.231  19.202  0.00  0.00    +0.000 C 
BRANCH  13  14
ATOM     14  O   UNL     1      34.445  18.441  18.241  0.00  0.00    +0.000 OA
ATOM     15  H   UNL     1      34.752  19.057  17.555  0.00  0.00    +0.000 HD
ENDBRANCH  13  14
BRANCH  13  16
ATOM     16  C   UNL     1      36.282  19.298  19.538  0.00  0.00    +0.000 C 
ATOM     17  C   UNL     1      37.022  20.199  19.821  0.00  0.00    +0.000 C 
BRANCH  17  18
ATOM     18  C   UNL     1      37.967  21.348  20.182  0.00  0.00    +0.000 C 
ATOM     19  C   UNL     1      38.708  22.250  20.465  0.00  0.00    +0.000 C 
BRANCH  19  20
ATOM     20  C   UNL     1      39.586  23.315  20.799  0.00  0.00    +0.000 C 
BRANCH  20  21
ATOM     21  C   UNL     1      40.054  24.268  19.851  0.00  0.00    +0.000 C 
ATOM     22  C   UNL     1      40.482  25.157  18.953  0.00  0.00    +0.000 C 
ENDBRANCH  20  21
BRANCH  20  23
ATOM     23  O   UNL     1      40.006  23.431  22.108  0.00  0.00    +0.000 OA
ATOM     24  H   UNL     1      39.349  23.889  22.660  0.00  0.00    +0.000 HD
ENDBRANCH  20  23
ENDBRANCH  19  20
ENDBRANCH  17  18
ENDBRANCH  13  16
ENDBRANCH   2  13
TORSDOF 12
ENDMDL
MODEL 5
REMARK VINA RESULT:      -4.3     24.668     27.552
REMARK  Name = 86311066_OplopantriolA.pdbqt.pdb
REMARK  12 active torsions:
REMARK  status: ('A' for Active; 'I' for Inactive)
REMARK    1  A    between atoms: C_1  and  C_3
REMARK    2  A    between atoms: C_2  and  C_13
REMARK    3  A    between atoms: C_4  and  C_5
REMARK    4  A    between atoms: C_6  and  C_7
REMARK    5  A    between atoms: C_8  and  C_9
REMARK    6  A    between atoms: C_10  and  O_11
REMARK    7  A    between atoms: C_13  and  O_14
REMARK    8  A    between atoms: C_13  and  C_16
REMARK    9  A    between atoms: C_17  and  C_18
REMARK   10  A    between atoms: C_19  and  C_20
REMARK   11  A    between atoms: C_20  and  C_21
REMARK   12  A    between atoms: C_20  and  O_23
REMARK                            x       y       z     vdW  Elec       q    Type
REMARK                         _______ _______ _______ _____ _____    ______ ____
ROOT
ATOM      1  C   UNL     1      51.917   8.435   5.936  0.00  0.00    +0.000 C 
ATOM      2  C   UNL     1      51.464   8.289   7.039  0.00  0.00    +0.000 C 
ENDROOT
BRANCH   1   3
ATOM      3  C   UNL     1      52.493   8.621   4.530  0.00  0.00    +0.000 C 
ATOM      4  C   UNL     1      53.069   8.808   3.123  0.00  0.00    +0.000 C 
BRANCH   4   5
ATOM      5  C   UNL     1      53.644   8.995   1.716  0.00  0.00    +0.000 C 
ATOM      6  C   UNL     1      54.218   9.182   0.308  0.00  0.00    +0.000 C 
BRANCH   6   7
ATOM      7  C   UNL     1      54.792   9.368  -1.100  0.00  0.00    +0.000 C 
ATOM      8  C   UNL     1      55.366   9.554  -2.508  0.00  0.00    +0.000 C 
BRANCH   8   9
ATOM      9  C   UNL     1      55.941   9.740  -3.915  0.00  0.00    +0.000 C 
ATOM     10  C   UNL     1      56.516   9.926  -5.323  0.00  0.00    +0.000 C 
BRANCH  10  11
ATOM     11  O   UNL     1      57.015  10.086  -6.543  0.00  0.00    +0.000 OA
ATOM     12  H   UNL     1      56.300  10.244  -7.182  0.00  0.00    +0.000 HD
ENDBRANCH  10  11
ENDBRANCH   8   9
ENDBRANCH   6   7
ENDBRANCH   4   5
ENDBRANCH   1   3
BRANCH   2  13
ATOM     13  C   UNL     1      50.930   8.115   8.339  0.00  0.00    +0.000 C 
BRANCH  13  14
ATOM     14  O   UNL     1      50.602   9.248   9.048  0.00  0.00    +0.000 OA
ATOM     15  H   UNL     1      49.667   9.485   8.933  0.00  0.00    +0.000 HD
ENDBRANCH  13  14
BRANCH  13  16
ATOM     16  C   UNL     1      50.718   6.848   8.940  0.00  0.00    +0.000 C 
ATOM     17  C   UNL     1      50.538   5.775   9.448  0.00  0.00    +0.000 C 
BRANCH  17  18
ATOM     18  C   UNL     1      50.306   4.408  10.097  0.00  0.00    +0.000 C 
ATOM     19  C   UNL     1      50.124   3.336  10.606  0.00  0.00    +0.000 C 
BRANCH  19  20
ATOM     20  C   UNL     1      49.908   2.068  11.208  0.00  0.00    +0.000 C 
BRANCH  20  21
ATOM     21  C   UNL     1      50.949   1.291  11.789  0.00  0.00    +0.000 C 
ATOM     22  C   UNL     1      51.936   0.569  12.324  0.00  0.00    +0.000 C 
ENDBRANCH  20  21
BRANCH  20  23
ATOM     23  O   UNL     1      48.623   1.564  11.229  0.00  0.00    +0.000 OA
ATOM     24  H   UNL     1      47.956   2.272  11.238  0.00  0.00    +0.000 HD
ENDBRANCH  20  23
ENDBRANCH  19  20
ENDBRANCH  17  18
ENDBRANCH  13  16
ENDBRANCH   2  13
TORSDOF 12
ENDMDL
MODEL 6
REMARK VINA RESULT:      -4.2     24.682     26.740
REMARK  Name = 86311066_OplopantriolA.pdbqt.pdb
REMARK  12 active torsions:
REMARK  status: ('A' for Active; 'I' for Inactive)
REMARK    1  A    between atoms: C_1  and  C_3
REMARK    2  A    between atoms: C_2  and  C_13
REMARK    3  A    between atoms: C_4  and  C_5
REMARK    4  A    between atoms: C_6  and  C_7
REMARK    5  A    between atoms: C_8  and  C_9
REMARK    6  A    between atoms: C_10  and  O_11
REMARK    7  A    between atoms: C_13  and  O_14
REMARK    8  A    between atoms: C_13  and  C_16
REMARK    9  A    between atoms: C_17  and  C_18
REMARK   10  A    between atoms: C_19  and  C_20
REMARK   11  A    between atoms: C_20  and  C_21
REMARK   12  A    between atoms: C_20  and  O_23
REMARK                            x       y       z     vdW  Elec       q    Type
REMARK                         _______ _______ _______ _____ _____    ______ ____
ROOT
ATOM      1  C   UNL     1      51.833   8.539   5.196  0.00  0.00    +0.000 C 
ATOM      2  C   UNL     1      51.202   8.166   6.148  0.00  0.00    +0.000 C 
ENDROOT
BRANCH   1   3
ATOM      3  C   UNL     1      52.635   9.014   3.982  0.00  0.00    +0.000 C 
ATOM      4  C   UNL     1      53.438   9.491   2.768  0.00  0.00    +0.000 C 
BRANCH   4   5
ATOM      5  C   UNL     1      54.240   9.967   1.553  0.00  0.00    +0.000 C 
ATOM      6  C   UNL     1      55.040  10.443   0.336  0.00  0.00    +0.000 C 
BRANCH   6   7
ATOM      7  C   UNL     1      55.841  10.918  -0.880  0.00  0.00    +0.000 C 
ATOM      8  C   UNL     1      56.642  11.393  -2.096  0.00  0.00    +0.000 C 
BRANCH   8   9
ATOM      9  C   UNL     1      57.444  11.867  -3.312  0.00  0.00    +0.000 C 
ATOM     10  C   UNL     1      58.244  12.341  -4.528  0.00  0.00    +0.000 C 
BRANCH  10  11
ATOM     11  O   UNL     1      58.939  12.752  -5.582  0.00  0.00    +0.000 OA
ATOM     12  H   UNL     1      58.857  13.716  -5.686  0.00  0.00    +0.000 HD
ENDBRANCH  10  11
ENDBRANCH   8   9
ENDBRANCH   6   7
ENDBRANCH   4   5
ENDBRANCH   1   3
BRANCH   2  13
ATOM     13  C   UNL     1      50.458   7.725   7.270  0.00  0.00    +0.000 C 
BRANCH  13  14
ATOM     14  O   UNL     1      49.163   7.312   7.052  0.00  0.00    +0.000 OA
ATOM     15  H   UNL     1      49.111   6.661   6.333  0.00  0.00    +0.000 HD
ENDBRANCH  13  14
BRANCH  13  16
ATOM     16  C   UNL     1      50.975   7.687   8.591  0.00  0.00    +0.000 C 
ATOM     17  C   UNL     1      51.412   7.654   9.708  0.00  0.00    +0.000 C 
BRANCH  17  18
ATOM     18  C   UNL     1      51.968   7.609  11.134  0.00  0.00    +0.000 C 
ATOM     19  C   UNL     1      52.404   7.575  12.252  0.00  0.00    +0.000 C 
BRANCH  19  20
ATOM     20  C   UNL     1      52.921   7.532  13.574  0.00  0.00    +0.000 C 
BRANCH  20  21
ATOM     21  C   UNL     1      52.107   7.657  14.735  0.00  0.00    +0.000 C 
ATOM     22  C   UNL     1      51.356   7.767  15.833  0.00  0.00    +0.000 C 
ENDBRANCH  20  21
BRANCH  20  23
ATOM     23  O   UNL     1      54.280   7.363  13.741  0.00  0.00    +0.000 OA
ATOM     24  H   UNL     1      54.792   7.941  13.149  0.00  0.00    +0.000 HD
ENDBRANCH  20  23
ENDBRANCH  19  20
ENDBRANCH  17  18
ENDBRANCH  13  16
ENDBRANCH   2  13
TORSDOF 12
ENDMDL
MODEL 7
REMARK VINA RESULT:      -3.9     32.822     35.590
REMARK  Name = 86311066_OplopantriolA.pdbqt.pdb
REMARK  12 active torsions:
REMARK  status: ('A' for Active; 'I' for Inactive)
REMARK    1  A    between atoms: C_1  and  C_3
REMARK    2  A    between atoms: C_2  and  C_13
REMARK    3  A    between atoms: C_4  and  C_5
REMARK    4  A    between atoms: C_6  and  C_7
REMARK    5  A    between atoms: C_8  and  C_9
REMARK    6  A    between atoms: C_10  and  O_11
REMARK    7  A    between atoms: C_13  and  O_14
REMARK    8  A    between atoms: C_13  and  C_16
REMARK    9  A    between atoms: C_17  and  C_18
REMARK   10  A    between atoms: C_19  and  C_20
REMARK   11  A    between atoms: C_20  and  C_21
REMARK   12  A    between atoms: C_20  and  O_23
REMARK                            x       y       z     vdW  Elec       q    Type
REMARK                         _______ _______ _______ _____ _____    ______ ____
ROOT
ATOM      1  C   UNL     1      41.739   1.673  -9.276  0.00  0.00    +0.000 C 
ATOM      2  C   UNL     1      42.530   0.815  -9.559  0.00  0.00    +0.000 C 
ENDROOT
BRANCH   1   3
ATOM      3  C   UNL     1      40.731   2.767  -8.916  0.00  0.00    +0.000 C 
ATOM      4  C   UNL     1      39.722   3.862  -8.555  0.00  0.00    +0.000 C 
BRANCH   4   5
ATOM      5  C   UNL     1      38.712   4.956  -8.195  0.00  0.00    +0.000 C 
ATOM      6  C   UNL     1      37.702   6.050  -7.833  0.00  0.00    +0.000 C 
BRANCH   6   7
ATOM      7  C   UNL     1      36.692   7.143  -7.472  0.00  0.00    +0.000 C 
ATOM      8  C   UNL     1      35.682   8.236  -7.112  0.00  0.00    +0.000 C 
BRANCH   8   9
ATOM      9  C   UNL     1      34.672   9.329  -6.752  0.00  0.00    +0.000 C 
ATOM     10  C   UNL     1      33.661  10.423  -6.392  0.00  0.00    +0.000 C 
BRANCH  10  11
ATOM     11  O   UNL     1      32.785  11.371  -6.081  0.00  0.00    +0.000 OA
ATOM     12  H   UNL     1      31.912  10.980  -5.908  0.00  0.00    +0.000 HD
ENDBRANCH  10  11
ENDBRANCH   8   9
ENDBRANCH   6   7
ENDBRANCH   4   5
ENDBRANCH   1   3
BRANCH   2  13
ATOM     13  C   UNL     1      43.463  -0.199  -9.891  0.00  0.00    +0.000 C 
BRANCH  13  14
ATOM     14  O   UNL     1      43.002  -1.273 -10.616  0.00  0.00    +0.000 OA
ATOM     15  H   UNL     1      43.523  -1.409 -11.425  0.00  0.00    +0.000 HD
ENDBRANCH  13  14
BRANCH  13  16
ATOM     16  C   UNL     1      44.831  -0.162  -9.518  0.00  0.00    +0.000 C 
ATOM     17  C   UNL     1      45.989  -0.130  -9.201  0.00  0.00    +0.000 C 
BRANCH  17  18
ATOM     18  C   UNL     1      47.464  -0.089  -8.796  0.00  0.00    +0.000 C 
ATOM     19  C   UNL     1      48.622  -0.057  -8.478  0.00  0.00    +0.000 C 
BRANCH  19  20
ATOM     20  C   UNL     1      49.991  -0.019  -8.103  0.00  0.00    +0.000 C 
BRANCH  20  21
ATOM     21  C   UNL     1      50.923  -1.037  -8.446  0.00  0.00    +0.000 C 
ATOM     22  C   UNL     1      51.793  -1.993  -8.782  0.00  0.00    +0.000 C 
ENDBRANCH  20  21
BRANCH  20  23
ATOM     23  O   UNL     1      50.439   1.060  -7.368  0.00  0.00    +0.000 OA
ATOM     24  H   UNL     1      51.052   0.788  -6.663  0.00  0.00    +0.000 HD
ENDBRANCH  20  23
ENDBRANCH  19  20
ENDBRANCH  17  18
ENDBRANCH  13  16
ENDBRANCH   2  13
TORSDOF 12
ENDMDL
MODEL 8
REMARK VINA RESULT:      -3.9     22.957     26.716
REMARK  Name = 86311066_OplopantriolA.pdbqt.pdb
REMARK  12 active torsions:
REMARK  status: ('A' for Active; 'I' for Inactive)
REMARK    1  A    between atoms: C_1  and  C_3
REMARK    2  A    between atoms: C_2  and  C_13
REMARK    3  A    between atoms: C_4  and  C_5
REMARK    4  A    between atoms: C_6  and  C_7
REMARK    5  A    between atoms: C_8  and  C_9
REMARK    6  A    between atoms: C_10  and  O_11
REMARK    7  A    between atoms: C_13  and  O_14
REMARK    8  A    between atoms: C_13  and  C_16
REMARK    9  A    between atoms: C_17  and  C_18
REMARK   10  A    between atoms: C_19  and  C_20
REMARK   11  A    between atoms: C_20  and  C_21
REMARK   12  A    between atoms: C_20  and  O_23
REMARK                            x       y       z     vdW  Elec       q    Type
REMARK                         _______ _______ _______ _____ _____    ______ ____
ROOT
ATOM      1  C   UNL     1      50.870   5.527   9.099  0.00  0.00    +0.000 C 
ATOM      2  C   UNL     1      50.446   4.950  10.062  0.00  0.00    +0.000 C 
ENDROOT
BRANCH   1   3
ATOM      3  C   UNL     1      51.410   6.264   7.870  0.00  0.00    +0.000 C 
ATOM      4  C   UNL     1      51.950   7.000   6.640  0.00  0.00    +0.000 C 
BRANCH   4   5
ATOM      5  C   UNL     1      52.491   7.737   5.411  0.00  0.00    +0.000 C 
ATOM      6  C   UNL     1      53.031   8.474   4.181  0.00  0.00    +0.000 C 
BRANCH   6   7
ATOM      7  C   UNL     1      53.571   9.211   2.952  0.00  0.00    +0.000 C 
ATOM      8  C   UNL     1      54.111   9.947   1.722  0.00  0.00    +0.000 C 
BRANCH   8   9
ATOM      9  C   UNL     1      54.651  10.682   0.492  0.00  0.00    +0.000 C 
ATOM     10  C   UNL     1      55.190  11.418  -0.738  0.00  0.00    +0.000 C 
BRANCH  10  11
ATOM     11  O   UNL     1      55.659  12.056  -1.804  0.00  0.00    +0.000 OA
ATOM     12  H   UNL     1      56.617  12.194  -1.722  0.00  0.00    +0.000 HD
ENDBRANCH  10  11
ENDBRANCH   8   9
ENDBRANCH   6   7
ENDBRANCH   4   5
ENDBRANCH   1   3
BRANCH   2  13
ATOM     13  C   UNL     1      49.946   4.267  11.198  0.00  0.00    +0.000 C 
BRANCH  13  14
ATOM     14  O   UNL     1      48.667   4.566  11.608  0.00  0.00    +0.000 OA
ATOM     15  H   UNL     1      48.019   4.412  10.900  0.00  0.00    +0.000 HD
ENDBRANCH  13  14
BRANCH  13  16
ATOM     16  C   UNL     1      50.688   3.302  11.926  0.00  0.00    +0.000 C 
ATOM     17  C   UNL     1      51.318   2.486  12.542  0.00  0.00    +0.000 C 
BRANCH  17  18
ATOM     18  C   UNL     1      52.122   1.446  13.327  0.00  0.00    +0.000 C 
ATOM     19  C   UNL     1      52.752   0.630  13.942  0.00  0.00    +0.000 C 
BRANCH  19  20
ATOM     20  C   UNL     1      53.497  -0.335  14.670  0.00  0.00    +0.000 C 
BRANCH  20  21
ATOM     21  C   UNL     1      54.547  -1.106  14.098  0.00  0.00    +0.000 C 
ATOM     22  C   UNL     1      55.542  -1.816  13.562  0.00  0.00    +0.000 C 
ENDBRANCH  20  21
BRANCH  20  23
ATOM     23  O   UNL     1      53.186  -0.536  16.000  0.00  0.00    +0.000 OA
ATOM     24  H   UNL     1      52.797   0.258  16.405  0.00  0.00    +0.000 HD
ENDBRANCH  20  23
ENDBRANCH  19  20
ENDBRANCH  17  18
ENDBRANCH  13  16
ENDBRANCH   2  13
TORSDOF 12
ENDMDL
MODEL 9
REMARK VINA RESULT:      -3.9     21.954     24.119
REMARK  Name = 86311066_OplopantriolA.pdbqt.pdb
REMARK  12 active torsions:
REMARK  status: ('A' for Active; 'I' for Inactive)
REMARK    1  A    between atoms: C_1  and  C_3
REMARK    2  A    between atoms: C_2  and  C_13
REMARK    3  A    between atoms: C_4  and  C_5
REMARK    4  A    between atoms: C_6  and  C_7
REMARK    5  A    between atoms: C_8  and  C_9
REMARK    6  A    between atoms: C_10  and  O_11
REMARK    7  A    between atoms: C_13  and  O_14
REMARK    8  A    between atoms: C_13  and  C_16
REMARK    9  A    between atoms: C_17  and  C_18
REMARK   10  A    between atoms: C_19  and  C_20
REMARK   11  A    between atoms: C_20  and  C_21
REMARK   12  A    between atoms: C_20  and  O_23
REMARK                            x       y       z     vdW  Elec       q    Type
REMARK                         _______ _______ _______ _____ _____    ______ ____
ROOT
ATOM      1  C   UNL     1      52.120   7.394  13.012  0.00  0.00    +0.000 C 
ATOM      2  C   UNL     1      51.889   7.380  14.191  0.00  0.00    +0.000 C 
ENDROOT
BRANCH   1   3
ATOM      3  C   UNL     1      52.414   7.411  11.510  0.00  0.00    +0.000 C 
ATOM      4  C   UNL     1      52.707   7.429  10.006  0.00  0.00    +0.000 C 
BRANCH   4   5
ATOM      5  C   UNL     1      53.001   7.445   8.503  0.00  0.00    +0.000 C 
ATOM      6  C   UNL     1      53.292   7.463   7.000  0.00  0.00    +0.000 C 
BRANCH   6   7
ATOM      7  C   UNL     1      53.584   7.479   5.496  0.00  0.00    +0.000 C 
ATOM      8  C   UNL     1      53.876   7.496   3.993  0.00  0.00    +0.000 C 
BRANCH   8   9
ATOM      9  C   UNL     1      54.167   7.512   2.489  0.00  0.00    +0.000 C 
ATOM     10  C   UNL     1      54.458   7.527   0.985  0.00  0.00    +0.000 C 
BRANCH  10  11
ATOM     11  O   UNL     1      54.710   7.540  -0.318  0.00  0.00    +0.000 OA
ATOM     12  H   UNL     1      54.488   8.408  -0.697  0.00  0.00    +0.000 HD
ENDBRANCH  10  11
ENDBRANCH   8   9
ENDBRANCH   6   7
ENDBRANCH   4   5
ENDBRANCH   1   3
BRANCH   2  13
ATOM     13  C   UNL     1      51.616   7.363  15.581  0.00  0.00    +0.000 C 
BRANCH  13  14
ATOM     14  O   UNL     1      50.507   8.050  16.019  0.00  0.00    +0.000 OA
ATOM     15  H   UNL     1      50.302   8.804  15.442  0.00  0.00    +0.000 HD
ENDBRANCH  13  14
BRANCH  13  16
ATOM     16  C   UNL     1      52.418   6.681  16.532  0.00  0.00    +0.000 C 
ATOM     17  C   UNL     1      53.096   6.105  17.337  0.00  0.00    +0.000 C 
BRANCH  17  18
ATOM     18  C   UNL     1      53.959   5.370  18.366  0.00  0.00    +0.000 C 
ATOM     19  C   UNL     1      54.637   4.793  19.173  0.00  0.00    +0.000 C 
BRANCH  19  20
ATOM     20  C   UNL     1      55.438   4.111  20.126  0.00  0.00    +0.000 C 
BRANCH  20  21
ATOM     21  C   UNL     1      56.819   3.830  19.928  0.00  0.00    +0.000 C 
ATOM     22  C   UNL     1      58.112   3.552  19.748  0.00  0.00    +0.000 C 
ENDBRANCH  20  21
BRANCH  20  23
ATOM     23  O   UNL     1      54.847   3.699  21.303  0.00  0.00    +0.000 OA
ATOM     24  H   UNL     1      53.929   3.411  21.166  0.00  0.00    +0.000 HD
ENDBRANCH  20  23
ENDBRANCH  19  20
ENDBRANCH  17  18
ENDBRANCH  13  16
ENDBRANCH   2  13
TORSDOF 12
ENDMDL
