MODEL 1
REMARK VINA RESULT:      -7.7      0.000      0.000
REMARK  Name = 91746246_sitosterol.pdbqt.pdb
REMARK  10 active torsions:
REMARK  status: ('A' for Active; 'I' for Inactive)
REMARK    1  A    between atoms: C_5  and  C_20
REMARK    2  A    between atoms: C_19  and  O_30
REMARK    3  A    between atoms: C_20  and  C_22
REMARK    4  A    between atoms: C_23  and  C_24
REMARK    5  A    between atoms: C_24  and  C_28
REMARK    6  A    between atoms: O_30  and  C_32
REMARK    7  A    between atoms: C_32  and  C_33
REMARK    8  A    between atoms: C_34  and  C_35
REMARK    9  A    between atoms: C_38  and  O_41
REMARK   10  A    between atoms: C_40  and  O_43
REMARK                            x       y       z     vdW  Elec       q    Type
REMARK                         _______ _______ _______ _____ _____    ______ ____
ROOT
ATOM      1  C   UNL     1      50.660  -0.836   7.261  0.00  0.00    +0.000 C 
ATOM      2  C   UNL     1      49.747   0.415   7.739  0.00  0.00    +0.000 C 
ATOM      3  C   UNL     1      49.962   1.102   9.029  0.00  0.00    +0.000 C 
ATOM      4  C   UNL     1      51.160   0.936   9.931  0.00  0.00    +0.000 C 
ATOM      5  C   UNL     1      50.925  -0.527   5.793  0.00  0.00    +0.000 C 
ATOM      6  C   UNL     1      51.838  -0.783   8.126  0.00  0.00    +0.000 C 
ATOM      7  C   UNL     1      51.307   1.644  11.303  0.00  0.00    +0.000 C 
ATOM      8  C   UNL     1      49.412   1.168   6.570  0.00  0.00    +0.000 C 
ATOM      9  C   UNL     1      52.087   0.009   9.386  0.00  0.00    +0.000 C 
ATOM     10  C   UNL     1      50.156   0.605   5.390  0.00  0.00    +0.000 C 
ATOM     11  C   UNL     1      49.090   2.131   9.463  0.00  0.00    +0.000 C 
ATOM     12  C   UNL     1      49.796  -2.115   7.420  0.00  0.00    +0.000 C 
ATOM     13  C   UNL     1      50.295   2.931  11.507  0.00  0.00    +0.000 C 
ATOM     14  C   UNL     1      52.669   2.242  11.437  0.00  0.00    +0.000 C 
ATOM     15  C   UNL     1      49.302   2.990  10.674  0.00  0.00    +0.000 C 
ATOM     16  C   UNL     1      50.998   0.629  12.442  0.00  0.00    +0.000 C 
ATOM     17  C   UNL     1      50.939   4.174  11.871  0.00  0.00    +0.000 C 
ATOM     18  C   UNL     1      53.187   3.647  11.787  0.00  0.00    +0.000 C 
ATOM     19  C   UNL     1      52.261   4.715  12.040  0.00  0.00    +0.000 C 
ENDROOT
BRANCH   5  20
ATOM     20  C   UNL     1      51.626  -1.396   4.903  0.00  0.00    +0.000 C 
ATOM     21  C   UNL     1      52.267  -0.901   3.634  0.00  0.00    +0.000 C 
BRANCH  20  22
ATOM     22  C   UNL     1      51.540  -2.809   5.041  0.00  0.00    +0.000 C 
ATOM     23  C   UNL     1      51.450  -4.336   5.191  0.00  0.00    +0.000 C 
BRANCH  23  24
ATOM     24  C   UNL     1      51.383  -5.755   5.330  0.00  0.00    +0.000 C 
ATOM     25  C   UNL     1      51.257  -6.376   6.631  0.00  0.00    +0.000 C 
ATOM     26  C   UNL     1      51.224  -7.874   6.838  0.00  0.00    +0.000 C 
ATOM     27  C   UNL     1      51.142  -5.575   7.912  0.00  0.00    +0.000 C 
BRANCH  24  28
ATOM     28  C   UNL     1      51.443  -6.574   4.171  0.00  0.00    +0.000 C 
ATOM     29  C   UNL     1      51.498  -7.513   2.961  0.00  0.00    +0.000 C 
ENDBRANCH  24  28
ENDBRANCH  23  24
ENDBRANCH  20  22
ENDBRANCH   5  20
BRANCH  19  30
ATOM     30  O   UNL     1      52.480   5.614  13.079  0.00  0.00    +0.000 OA
BRANCH  30  32
ATOM     31  O   UNL     1      51.302   7.527  13.682  0.00  0.00    +0.000 OA
ATOM     32  C   UNL     1      51.842   6.801  12.860  0.00  0.00    +0.000 C 
BRANCH  32  33
ATOM     33  C   UNL     1      51.888   7.177  11.469  0.00  0.00    +0.000 C 
ATOM     34  C   UNL     1      51.921   7.473  10.305  0.00  0.00    +0.000 C 
BRANCH  34  35
ATOM     35  C   UNL     1      51.955   7.806   8.919  0.00  0.00    +0.000 A 
ATOM     36  C   UNL     1      53.028   7.390   8.133  0.00  0.00    +0.000 A 
ATOM     37  C   UNL     1      50.922   8.550   8.354  0.00  0.00    +0.000 A 
ATOM     38  C   UNL     1      53.083   7.711   6.774  0.00  0.00    +0.000 A 
ATOM     39  C   UNL     1      50.963   8.877   7.001  0.00  0.00    +0.000 A 
ATOM     40  C   UNL     1      52.040   8.459   6.221  0.00  0.00    +0.000 A 
BRANCH  38  41
ATOM     41  O   UNL     1      54.103   7.342   5.932  0.00  0.00    +0.000 OA
ATOM     42  C   UNL     1      54.185   5.970   5.645  0.00  0.00    +0.000 C 
ENDBRANCH  38  41
BRANCH  40  43
ATOM     43  O   UNL     1      52.076   8.785   4.892  0.00  0.00    +0.000 OA
ATOM     44  H   UNL     1      52.217   9.747   4.811  0.00  0.00    +0.000 HD
ENDBRANCH  40  43
ENDBRANCH  34  35
ENDBRANCH  32  33
ENDBRANCH  30  32
ENDBRANCH  19  30
TORSDOF 10
ENDMDL
MODEL 2
REMARK VINA RESULT:      -7.5      1.751      3.712
REMARK  Name = 91746246_sitosterol.pdbqt.pdb
REMARK  10 active torsions:
REMARK  status: ('A' for Active; 'I' for Inactive)
REMARK    1  A    between atoms: C_5  and  C_20
REMARK    2  A    between atoms: C_19  and  O_30
REMARK    3  A    between atoms: C_20  and  C_22
REMARK    4  A    between atoms: C_23  and  C_24
REMARK    5  A    between atoms: C_24  and  C_28
REMARK    6  A    between atoms: O_30  and  C_32
REMARK    7  A    between atoms: C_32  and  C_33
REMARK    8  A    between atoms: C_34  and  C_35
REMARK    9  A    between atoms: C_38  and  O_41
REMARK   10  A    between atoms: C_40  and  O_43
REMARK                            x       y       z     vdW  Elec       q    Type
REMARK                         _______ _______ _______ _____ _____    ______ ____
ROOT
ATOM      1  C   UNL     1      50.920  -0.874   7.216  0.00  0.00    +0.000 C 
ATOM      2  C   UNL     1      49.912   0.335   7.604  0.00  0.00    +0.000 C 
ATOM      3  C   UNL     1      49.993   1.045   8.897  0.00  0.00    +0.000 C 
ATOM      4  C   UNL     1      51.123   0.949   9.891  0.00  0.00    +0.000 C 
ATOM      5  C   UNL     1      51.281  -0.568   5.768  0.00  0.00    +0.000 C 
ATOM      6  C   UNL     1      52.023  -0.753   8.168  0.00  0.00    +0.000 C 
ATOM      7  C   UNL     1      51.130   1.677  11.260  0.00  0.00    +0.000 C 
ATOM      8  C   UNL     1      49.632   1.057   6.402  0.00  0.00    +0.000 C 
ATOM      9  C   UNL     1      52.135   0.063   9.432  0.00  0.00    +0.000 C 
ATOM     10  C   UNL     1      50.492   0.520   5.291  0.00  0.00    +0.000 C 
ATOM     11  C   UNL     1      49.041   2.033   9.248  0.00  0.00    +0.000 C 
ATOM     12  C   UNL     1      50.109  -2.193   7.326  0.00  0.00    +0.000 C 
ATOM     13  C   UNL     1      50.043   2.914  11.367  0.00  0.00    +0.000 C 
ATOM     14  C   UNL     1      52.446   2.343  11.489  0.00  0.00    +0.000 C 
ATOM     15  C   UNL     1      49.115   2.915  10.459  0.00  0.00    +0.000 C 
ATOM     16  C   UNL     1      50.783   0.660  12.386  0.00  0.00    +0.000 C 
ATOM     17  C   UNL     1      50.595   4.191  11.761  0.00  0.00    +0.000 C 
ATOM     18  C   UNL     1      52.866   3.776  11.857  0.00  0.00    +0.000 C 
ATOM     19  C   UNL     1      51.872   4.800  12.023  0.00  0.00    +0.000 C 
ENDROOT
BRANCH   5  20
ATOM     20  C   UNL     1      52.091  -1.410   4.947  0.00  0.00    +0.000 C 
ATOM     21  C   UNL     1      52.588  -2.752   5.414  0.00  0.00    +0.000 C 
BRANCH  20  22
ATOM     22  C   UNL     1      52.676  -0.919   3.747  0.00  0.00    +0.000 C 
ATOM     23  C   UNL     1      53.310  -0.391   2.451  0.00  0.00    +0.000 C 
BRANCH  23  24
ATOM     24  C   UNL     1      53.915   0.101   1.255  0.00  0.00    +0.000 C 
ATOM     25  C   UNL     1      54.184   1.512   1.077  0.00  0.00    +0.000 C 
ATOM     26  C   UNL     1      54.784   2.092  -0.186  0.00  0.00    +0.000 C 
ATOM     27  C   UNL     1      53.889   2.542   2.147  0.00  0.00    +0.000 C 
BRANCH  24  28
ATOM     28  C   UNL     1      54.258  -0.809   0.219  0.00  0.00    +0.000 C 
ATOM     29  C   UNL     1      54.574  -1.767  -0.935  0.00  0.00    +0.000 C 
ENDBRANCH  24  28
ENDBRANCH  23  24
ENDBRANCH  20  22
ENDBRANCH   5  20
BRANCH  19  30
ATOM     30  O   UNL     1      51.966   5.719  13.064  0.00  0.00    +0.000 OA
BRANCH  30  32
ATOM     31  O   UNL     1      50.678   7.601  13.520  0.00  0.00    +0.000 OA
ATOM     32  C   UNL     1      51.317   6.883  12.766  0.00  0.00    +0.000 C 
BRANCH  32  33
ATOM     33  C   UNL     1      51.488   7.243  11.380  0.00  0.00    +0.000 C 
ATOM     34  C   UNL     1      51.622   7.527  10.220  0.00  0.00    +0.000 C 
BRANCH  34  35
ATOM     35  C   UNL     1      51.775   7.847   8.839  0.00  0.00    +0.000 A 
ATOM     36  C   UNL     1      52.970   7.545   8.187  0.00  0.00    +0.000 A 
ATOM     37  C   UNL     1      50.737   8.463   8.146  0.00  0.00    +0.000 A 
ATOM     38  C   UNL     1      53.142   7.855   6.835  0.00  0.00    +0.000 A 
ATOM     39  C   UNL     1      50.894   8.778   6.798  0.00  0.00    +0.000 A 
ATOM     40  C   UNL     1      52.092   8.475   6.152  0.00  0.00    +0.000 A 
BRANCH  38  41
ATOM     41  O   UNL     1      54.285   7.594   6.120  0.00  0.00    +0.000 OA
ATOM     42  C   UNL     1      55.391   8.402   6.432  0.00  0.00    +0.000 C 
ENDBRANCH  38  41
BRANCH  40  43
ATOM     43  O   UNL     1      52.241   8.788   4.829  0.00  0.00    +0.000 OA
ATOM     44  H   UNL     1      51.695   9.572   4.630  0.00  0.00    +0.000 HD
ENDBRANCH  40  43
ENDBRANCH  34  35
ENDBRANCH  32  33
ENDBRANCH  30  32
ENDBRANCH  19  30
TORSDOF 10
ENDMDL
MODEL 3
REMARK VINA RESULT:      -7.4     12.563     17.797
REMARK  Name = 91746246_sitosterol.pdbqt.pdb
REMARK  10 active torsions:
REMARK  status: ('A' for Active; 'I' for Inactive)
REMARK    1  A    between atoms: C_5  and  C_20
REMARK    2  A    between atoms: C_19  and  O_30
REMARK    3  A    between atoms: C_20  and  C_22
REMARK    4  A    between atoms: C_23  and  C_24
REMARK    5  A    between atoms: C_24  and  C_28
REMARK    6  A    between atoms: O_30  and  C_32
REMARK    7  A    between atoms: C_32  and  C_33
REMARK    8  A    between atoms: C_34  and  C_35
REMARK    9  A    between atoms: C_38  and  O_41
REMARK   10  A    between atoms: C_40  and  O_43
REMARK                            x       y       z     vdW  Elec       q    Type
REMARK                         _______ _______ _______ _____ _____    ______ ____
ROOT
ATOM      1  C   UNL     1      42.106  -4.243  15.814  0.00  0.00    +0.000 C 
ATOM      2  C   UNL     1      43.335  -4.325  14.761  0.00  0.00    +0.000 C 
ATOM      3  C   UNL     1      44.081  -5.576  14.514  0.00  0.00    +0.000 C 
ATOM      4  C   UNL     1      43.673  -6.955  14.972  0.00  0.00    +0.000 C 
ATOM      5  C   UNL     1      41.068  -3.416  15.067  0.00  0.00    +0.000 C 
ATOM      6  C   UNL     1      41.732  -5.636  16.052  0.00  0.00    +0.000 C 
ATOM      7  C   UNL     1      44.525  -8.228  14.730  0.00  0.00    +0.000 C 
ATOM      8  C   UNL     1      43.025  -3.447  13.676  0.00  0.00    +0.000 C 
ATOM      9  C   UNL     1      42.453  -6.914  15.697  0.00  0.00    +0.000 C 
ATOM     10  C   UNL     1      41.628  -2.917  13.854  0.00  0.00    +0.000 C 
ATOM     11  C   UNL     1      45.210  -5.597  13.659  0.00  0.00    +0.000 C 
ATOM     12  C   UNL     1      42.631  -3.490  17.065  0.00  0.00    +0.000 C 
ATOM     13  C   UNL     1      45.671  -8.056  13.555  0.00  0.00    +0.000 C 
ATOM     14  C   UNL     1      43.666  -9.340  14.225  0.00  0.00    +0.000 C 
ATOM     15  C   UNL     1      45.942  -6.831  13.223  0.00  0.00    +0.000 C 
ATOM     16  C   UNL     1      45.266  -8.609  16.045  0.00  0.00    +0.000 C 
ATOM     17  C   UNL     1      45.627  -9.042  12.498  0.00  0.00    +0.000 C 
ATOM     18  C   UNL     1      43.741 -10.277  13.008  0.00  0.00    +0.000 C 
ATOM     19  C   UNL     1      44.809 -10.141  12.057  0.00  0.00    +0.000 C 
ENDROOT
BRANCH   5  20
ATOM     20  C   UNL     1      39.824  -2.993  15.625  0.00  0.00    +0.000 C 
ATOM     21  C   UNL     1      38.551  -3.774  15.437  0.00  0.00    +0.000 C 
BRANCH  20  22
ATOM     22  C   UNL     1      39.673  -1.690  16.175  0.00  0.00    +0.000 C 
ATOM     23  C   UNL     1      39.506  -0.282  16.767  0.00  0.00    +0.000 C 
BRANCH  23  24
ATOM     24  C   UNL     1      39.341   1.030  17.305  0.00  0.00    +0.000 C 
ATOM     25  C   UNL     1      39.367   2.199  16.451  0.00  0.00    +0.000 C 
ATOM     26  C   UNL     1      39.238   3.613  16.972  0.00  0.00    +0.000 C 
ATOM     27  C   UNL     1      39.522   2.110  14.947  0.00  0.00    +0.000 C 
BRANCH  24  28
ATOM     28  C   UNL     1      39.149   1.194  18.703  0.00  0.00    +0.000 C 
ATOM     29  C   UNL     1      38.874   1.377  20.200  0.00  0.00    +0.000 C 
ENDBRANCH  24  28
ENDBRANCH  23  24
ENDBRANCH  20  22
ENDBRANCH   5  20
BRANCH  19  30
ATOM     30  O   UNL     1      45.440 -11.265  11.531  0.00  0.00    +0.000 OA
BRANCH  30  32
ATOM     31  O   UNL     1      46.626 -10.680   9.618  0.00  0.00    +0.000 OA
ATOM     32  C   UNL     1      45.648 -11.141  10.187  0.00  0.00    +0.000 C 
BRANCH  32  33
ATOM     33  C   UNL     1      44.542 -11.673   9.430  0.00  0.00    +0.000 C 
ATOM     34  C   UNL     1      43.617 -12.128   8.812  0.00  0.00    +0.000 C 
BRANCH  34  35
ATOM     35  C   UNL     1      42.516 -12.681   8.094  0.00  0.00    +0.000 A 
ATOM     36  C   UNL     1      41.993 -11.998   6.997  0.00  0.00    +0.000 A 
ATOM     37  C   UNL     1      41.962 -13.894   8.492  0.00  0.00    +0.000 A 
ATOM     38  C   UNL     1      40.911 -12.520   6.283  0.00  0.00    +0.000 A 
ATOM     39  C   UNL     1      40.883 -14.426   7.790  0.00  0.00    +0.000 A 
ATOM     40  C   UNL     1      40.364 -13.738   6.694  0.00  0.00    +0.000 A 
BRANCH  38  41
ATOM     41  O   UNL     1      40.336 -11.912   5.195  0.00  0.00    +0.000 OA
ATOM     42  C   UNL     1      39.621 -10.734   5.467  0.00  0.00    +0.000 C 
ENDBRANCH  38  41
BRANCH  40  43
ATOM     43  O   UNL     1      39.303 -14.265   6.010  0.00  0.00    +0.000 OA
ATOM     44  H   UNL     1      38.515 -13.717   6.184  0.00  0.00    +0.000 HD
ENDBRANCH  40  43
ENDBRANCH  34  35
ENDBRANCH  32  33
ENDBRANCH  30  32
ENDBRANCH  19  30
TORSDOF 10
ENDMDL
MODEL 4
REMARK VINA RESULT:      -7.3      2.108      2.420
REMARK  Name = 91746246_sitosterol.pdbqt.pdb
REMARK  10 active torsions:
REMARK  status: ('A' for Active; 'I' for Inactive)
REMARK    1  A    between atoms: C_5  and  C_20
REMARK    2  A    between atoms: C_19  and  O_30
REMARK    3  A    between atoms: C_20  and  C_22
REMARK    4  A    between atoms: C_23  and  C_24
REMARK    5  A    between atoms: C_24  and  C_28
REMARK    6  A    between atoms: O_30  and  C_32
REMARK    7  A    between atoms: C_32  and  C_33
REMARK    8  A    between atoms: C_34  and  C_35
REMARK    9  A    between atoms: C_38  and  O_41
REMARK   10  A    between atoms: C_40  and  O_43
REMARK                            x       y       z     vdW  Elec       q    Type
REMARK                         _______ _______ _______ _____ _____    ______ ____
ROOT
ATOM      1  C   UNL     1      50.894  -0.869   7.226  0.00  0.00    +0.000 C 
ATOM      2  C   UNL     1      49.891   0.343   7.616  0.00  0.00    +0.000 C 
ATOM      3  C   UNL     1      49.978   1.054   8.908  0.00  0.00    +0.000 C 
ATOM      4  C   UNL     1      51.111   0.955   9.899  0.00  0.00    +0.000 C 
ATOM      5  C   UNL     1      51.252  -0.565   5.777  0.00  0.00    +0.000 C 
ATOM      6  C   UNL     1      52.000  -0.751   8.174  0.00  0.00    +0.000 C 
ATOM      7  C   UNL     1      51.124   1.684  11.268  0.00  0.00    +0.000 C 
ATOM      8  C   UNL     1      49.610   1.066   6.415  0.00  0.00    +0.000 C 
ATOM      9  C   UNL     1      52.118   0.066   9.438  0.00  0.00    +0.000 C 
ATOM     10  C   UNL     1      50.465   0.525   5.301  0.00  0.00    +0.000 C 
ATOM     11  C   UNL     1      49.030   2.046   9.262  0.00  0.00    +0.000 C 
ATOM     12  C   UNL     1      50.079  -2.185   7.340  0.00  0.00    +0.000 C 
ATOM     13  C   UNL     1      50.041   2.925  11.377  0.00  0.00    +0.000 C 
ATOM     14  C   UNL     1      52.443   2.346  11.493  0.00  0.00    +0.000 C 
ATOM     15  C   UNL     1      49.111   2.927  10.472  0.00  0.00    +0.000 C 
ATOM     16  C   UNL     1      50.777   0.668  12.395  0.00  0.00    +0.000 C 
ATOM     17  C   UNL     1      50.599   4.200  11.768  0.00  0.00    +0.000 C 
ATOM     18  C   UNL     1      52.869   3.777  11.859  0.00  0.00    +0.000 C 
ATOM     19  C   UNL     1      51.879   4.805  12.027  0.00  0.00    +0.000 C 
ENDROOT
BRANCH   5  20
ATOM     20  C   UNL     1      52.056  -1.410   4.954  0.00  0.00    +0.000 C 
ATOM     21  C   UNL     1      51.573  -1.942   3.632  0.00  0.00    +0.000 C 
BRANCH  20  22
ATOM     22  C   UNL     1      53.254  -1.995   5.454  0.00  0.00    +0.000 C 
ATOM     23  C   UNL     1      54.546  -2.628   5.991  0.00  0.00    +0.000 C 
BRANCH  23  24
ATOM     24  C   UNL     1      55.741  -3.232   6.487  0.00  0.00    +0.000 C 
ATOM     25  C   UNL     1      55.845  -3.668   7.863  0.00  0.00    +0.000 C 
ATOM     26  C   UNL     1      57.100  -4.276   8.451  0.00  0.00    +0.000 C 
ATOM     27  C   UNL     1      54.697  -3.558   8.845  0.00  0.00    +0.000 C 
BRANCH  24  28
ATOM     28  C   UNL     1      56.849  -3.407   5.615  0.00  0.00    +0.000 C 
ATOM     29  C   UNL     1      58.005  -3.638   4.635  0.00  0.00    +0.000 C 
ENDBRANCH  24  28
ENDBRANCH  23  24
ENDBRANCH  20  22
ENDBRANCH   5  20
BRANCH  19  30
ATOM     30  O   UNL     1      51.978   5.725  13.066  0.00  0.00    +0.000 OA
BRANCH  30  32
ATOM     31  O   UNL     1      50.672   7.589  13.541  0.00  0.00    +0.000 OA
ATOM     32  C   UNL     1      51.314   6.882  12.779  0.00  0.00    +0.000 C 
BRANCH  32  33
ATOM     33  C   UNL     1      51.470   7.251  11.393  0.00  0.00    +0.000 C 
ATOM     34  C   UNL     1      51.595   7.540  10.234  0.00  0.00    +0.000 C 
BRANCH  34  35
ATOM     35  C   UNL     1      51.738   7.866   8.853  0.00  0.00    +0.000 A 
ATOM     36  C   UNL     1      52.883   7.468   8.164  0.00  0.00    +0.000 A 
ATOM     37  C   UNL     1      50.742   8.585   8.198  0.00  0.00    +0.000 A 
ATOM     38  C   UNL     1      53.045   7.782   6.811  0.00  0.00    +0.000 A 
ATOM     39  C   UNL     1      50.890   8.905   6.850  0.00  0.00    +0.000 A 
ATOM     40  C   UNL     1      52.037   8.505   6.167  0.00  0.00    +0.000 A 
BRANCH  38  41
ATOM     41  O   UNL     1      54.140   7.430   6.061  0.00  0.00    +0.000 OA
ATOM     42  C   UNL     1      55.365   7.419   6.746  0.00  0.00    +0.000 C 
ENDBRANCH  38  41
BRANCH  40  43
ATOM     43  O   UNL     1      52.178   8.824   4.844  0.00  0.00    +0.000 OA
ATOM     44  H   UNL     1      53.129   8.901   4.640  0.00  0.00    +0.000 HD
ENDBRANCH  40  43
ENDBRANCH  34  35
ENDBRANCH  32  33
ENDBRANCH  30  32
ENDBRANCH  19  30
TORSDOF 10
ENDMDL
MODEL 5
REMARK VINA RESULT:      -7.2      3.458      6.549
REMARK  Name = 91746246_sitosterol.pdbqt.pdb
REMARK  10 active torsions:
REMARK  status: ('A' for Active; 'I' for Inactive)
REMARK    1  A    between atoms: C_5  and  C_20
REMARK    2  A    between atoms: C_19  and  O_30
REMARK    3  A    between atoms: C_20  and  C_22
REMARK    4  A    between atoms: C_23  and  C_24
REMARK    5  A    between atoms: C_24  and  C_28
REMARK    6  A    between atoms: O_30  and  C_32
REMARK    7  A    between atoms: C_32  and  C_33
REMARK    8  A    between atoms: C_34  and  C_35
REMARK    9  A    between atoms: C_38  and  O_41
REMARK   10  A    between atoms: C_40  and  O_43
REMARK                            x       y       z     vdW  Elec       q    Type
REMARK                         _______ _______ _______ _____ _____    ______ ____
ROOT
ATOM      1  C   UNL     1      52.538  -1.253   3.631  0.00  0.00    +0.000 C 
ATOM      2  C   UNL     1      51.290  -1.667   4.578  0.00  0.00    +0.000 C 
ATOM      3  C   UNL     1      51.182  -1.220   5.981  0.00  0.00    +0.000 C 
ATOM      4  C   UNL     1      52.022  -0.153   6.638  0.00  0.00    +0.000 C 
ATOM      5  C   UNL     1      51.865  -0.903   2.309  0.00  0.00    +0.000 C 
ATOM      6  C   UNL     1      53.167  -0.128   4.321  0.00  0.00    +0.000 C 
ATOM      7  C   UNL     1      51.901   0.239   8.133  0.00  0.00    +0.000 C 
ATOM      8  C   UNL     1      50.126  -1.722   3.748  0.00  0.00    +0.000 C 
ATOM      9  C   UNL     1      52.967   0.388   5.725  0.00  0.00    +0.000 C 
ATOM     10  C   UNL     1      50.478  -1.227   2.371  0.00  0.00    +0.000 C 
ATOM     11  C   UNL     1      50.129  -1.673   6.814  0.00  0.00    +0.000 C 
ATOM     12  C   UNL     1      53.436  -2.511   3.488  0.00  0.00    +0.000 C 
ATOM     13  C   UNL     1      50.497  -0.257   8.845  0.00  0.00    +0.000 C 
ATOM     14  C   UNL     1      51.866   1.724   8.281  0.00  0.00    +0.000 C 
ATOM     15  C   UNL     1      49.841  -1.170   8.196  0.00  0.00    +0.000 C 
ATOM     16  C   UNL     1      53.074  -0.403   8.931  0.00  0.00    +0.000 C 
ATOM     17  C   UNL     1      49.731   0.783   9.495  0.00  0.00    +0.000 C 
ATOM     18  C   UNL     1      50.911   2.703   8.984  0.00  0.00    +0.000 C 
ATOM     19  C   UNL     1      49.746   2.213   9.664  0.00  0.00    +0.000 C 
ENDROOT
BRANCH   5  20
ATOM     20  C   UNL     1      52.569  -0.555   1.117  0.00  0.00    +0.000 C 
ATOM     21  C   UNL     1      52.732  -1.515  -0.031  0.00  0.00    +0.000 C 
BRANCH  20  22
ATOM     22  C   UNL     1      53.364   0.624   1.053  0.00  0.00    +0.000 C 
ATOM     23  C   UNL     1      54.221   1.897   0.986  0.00  0.00    +0.000 C 
BRANCH  23  24
ATOM     24  C   UNL     1      55.003   3.090   0.924  0.00  0.00    +0.000 C 
ATOM     25  C   UNL     1      54.677   4.243   1.736  0.00  0.00    +0.000 C 
ATOM     26  C   UNL     1      55.446   5.545   1.679  0.00  0.00    +0.000 C 
ATOM     27  C   UNL     1      53.530   4.249   2.726  0.00  0.00    +0.000 C 
BRANCH  24  28
ATOM     28  C   UNL     1      56.121   3.148   0.050  0.00  0.00    +0.000 C 
ATOM     29  C   UNL     1      57.368   3.189  -0.841  0.00  0.00    +0.000 C 
ENDBRANCH  24  28
ENDBRANCH  23  24
ENDBRANCH  20  22
ENDBRANCH   5  20
BRANCH  19  30
ATOM     30  O   UNL     1      49.368   2.737  10.897  0.00  0.00    +0.000 OA
BRANCH  30  32
ATOM     31  O   UNL     1      47.920   4.432  10.234  0.00  0.00    +0.000 OA
ATOM     32  C   UNL     1      48.934   4.026  10.783  0.00  0.00    +0.000 C 
BRANCH  32  33
ATOM     33  C   UNL     1      49.826   4.945  11.446  0.00  0.00    +0.000 C 
ATOM     34  C   UNL     1      50.579   5.696  12.005  0.00  0.00    +0.000 C 
BRANCH  34  35
ATOM     35  C   UNL     1      51.482   6.572  12.676  0.00  0.00    +0.000 A 
ATOM     36  C   UNL     1      52.780   6.730  12.192  0.00  0.00    +0.000 A 
ATOM     37  C   UNL     1      51.071   7.260  13.814  0.00  0.00    +0.000 A 
ATOM     38  C   UNL     1      53.682   7.580  12.839  0.00  0.00    +0.000 A 
ATOM     39  C   UNL     1      51.960   8.110  14.469  0.00  0.00    +0.000 A 
ATOM     40  C   UNL     1      53.256   8.264  13.980  0.00  0.00    +0.000 A 
BRANCH  38  41
ATOM     41  O   UNL     1      54.976   7.791  12.430  0.00  0.00    +0.000 OA
ATOM     42  C   UNL     1      55.275   7.369  11.124  0.00  0.00    +0.000 C 
ENDBRANCH  38  41
BRANCH  40  43
ATOM     43  O   UNL     1      54.125   9.099  14.629  0.00  0.00    +0.000 OA
ATOM     44  H   UNL     1      54.822   8.560  15.047  0.00  0.00    +0.000 HD
ENDBRANCH  40  43
ENDBRANCH  34  35
ENDBRANCH  32  33
ENDBRANCH  30  32
ENDBRANCH  19  30
TORSDOF 10
ENDMDL
MODEL 6
REMARK VINA RESULT:      -7.2     21.328     24.005
REMARK  Name = 91746246_sitosterol.pdbqt.pdb
REMARK  10 active torsions:
REMARK  status: ('A' for Active; 'I' for Inactive)
REMARK    1  A    between atoms: C_5  and  C_20
REMARK    2  A    between atoms: C_19  and  O_30
REMARK    3  A    between atoms: C_20  and  C_22
REMARK    4  A    between atoms: C_23  and  C_24
REMARK    5  A    between atoms: C_24  and  C_28
REMARK    6  A    between atoms: O_30  and  C_32
REMARK    7  A    between atoms: C_32  and  C_33
REMARK    8  A    between atoms: C_34  and  C_35
REMARK    9  A    between atoms: C_38  and  O_41
REMARK   10  A    between atoms: C_40  and  O_43
REMARK                            x       y       z     vdW  Elec       q    Type
REMARK                         _______ _______ _______ _____ _____    ______ ____
ROOT
ATOM      1  C   UNL     1      41.375   8.782  27.575  0.00  0.00    +0.000 C 
ATOM      2  C   UNL     1      40.446   7.891  26.590  0.00  0.00    +0.000 C 
ATOM      3  C   UNL     1      39.027   8.212  26.340  0.00  0.00    +0.000 C 
ATOM      4  C   UNL     1      38.327   9.493  26.723  0.00  0.00    +0.000 C 
ATOM      5  C   UNL     1      42.682   8.900  26.801  0.00  0.00    +0.000 C 
ATOM      6  C   UNL     1      40.640  10.035  27.740  0.00  0.00    +0.000 C 
ATOM      7  C   UNL     1      36.818   9.754  26.482  0.00  0.00    +0.000 C 
ATOM      8  C   UNL     1      41.279   7.430  25.522  0.00  0.00    +0.000 C 
ATOM      9  C   UNL     1      39.217  10.385  27.379  0.00  0.00    +0.000 C 
ATOM     10  C   UNL     1      42.635   8.072  25.641  0.00  0.00    +0.000 C 
ATOM     11  C   UNL     1      38.214   7.363  25.549  0.00  0.00    +0.000 C 
ATOM     12  C   UNL     1      41.565   7.965  28.881  0.00  0.00    +0.000 C 
ATOM     13  C   UNL     1      36.127   8.738  25.381  0.00  0.00    +0.000 C 
ATOM     14  C   UNL     1      36.612  11.109  25.890  0.00  0.00    +0.000 C 
ATOM     15  C   UNL     1      36.813   7.669  25.111  0.00  0.00    +0.000 C 
ATOM     16  C   UNL     1      36.045   9.576  27.822  0.00  0.00    +0.000 C 
ATOM     17  C   UNL     1      35.438   9.385  24.287  0.00  0.00    +0.000 C 
ATOM     18  C   UNL     1      35.873  11.627  24.645  0.00  0.00    +0.000 C 
ATOM     19  C   UNL     1      35.213  10.706  23.761  0.00  0.00    +0.000 C 
ENDROOT
BRANCH   5  20
ATOM     20  C   UNL     1      43.859   9.532  27.304  0.00  0.00    +0.000 C 
ATOM     21  C   UNL     1      44.412  10.796  26.704  0.00  0.00    +0.000 C 
BRANCH  20  22
ATOM     22  C   UNL     1      44.707   8.868  28.234  0.00  0.00    +0.000 C 
ATOM     23  C   UNL     1      45.621   8.150  29.239  0.00  0.00    +0.000 C 
BRANCH  23  24
ATOM     24  C   UNL     1      46.464   7.493  30.186  0.00  0.00    +0.000 C 
ATOM     25  C   UNL     1      47.834   7.156  29.863  0.00  0.00    +0.000 C 
ATOM     26  C   UNL     1      48.757   6.425  30.812  0.00  0.00    +0.000 C 
ATOM     27  C   UNL     1      48.473   7.511  28.536  0.00  0.00    +0.000 C 
BRANCH  24  28
ATOM     28  C   UNL     1      45.950   7.163  31.468  0.00  0.00    +0.000 C 
ATOM     29  C   UNL     1      45.353   6.863  32.848  0.00  0.00    +0.000 C 
ENDBRANCH  24  28
ENDBRANCH  23  24
ENDBRANCH  20  22
ENDBRANCH   5  20
BRANCH  19  30
ATOM     30  O   UNL     1      33.962  11.002  23.230  0.00  0.00    +0.000 OA
BRANCH  30  32
ATOM     31  O   UNL     1      33.794  10.637  20.940  0.00  0.00    +0.000 OA
ATOM     32  C   UNL     1      34.042  11.337  21.909  0.00  0.00    +0.000 C 
BRANCH  32  33
ATOM     33  C   UNL     1      34.448  12.710  21.736  0.00  0.00    +0.000 C 
ATOM     34  C   UNL     1      34.769  13.860  21.596  0.00  0.00    +0.000 C 
BRANCH  34  35
ATOM     35  C   UNL     1      35.132  15.229  21.434  0.00  0.00    +0.000 A 
ATOM     36  C   UNL     1      36.034  15.592  20.436  0.00  0.00    +0.000 A 
ATOM     37  C   UNL     1      34.591  16.199  22.275  0.00  0.00    +0.000 A 
ATOM     38  C   UNL     1      36.407  16.928  20.264  0.00  0.00    +0.000 A 
ATOM     39  C   UNL     1      34.954  17.534  22.115  0.00  0.00    +0.000 A 
ATOM     40  C   UNL     1      35.857  17.891  21.116  0.00  0.00    +0.000 A 
BRANCH  38  41
ATOM     41  O   UNL     1      37.289  17.370  19.309  0.00  0.00    +0.000 OA
ATOM     42  C   UNL     1      38.548  16.748  19.315  0.00  0.00    +0.000 C 
ENDBRANCH  38  41
BRANCH  40  43
ATOM     43  O   UNL     1      36.211  19.204  20.965  0.00  0.00    +0.000 OA
ATOM     44  H   UNL     1      37.063  19.352  21.417  0.00  0.00    +0.000 HD
ENDBRANCH  40  43
ENDBRANCH  34  35
ENDBRANCH  32  33
ENDBRANCH  30  32
ENDBRANCH  19  30
TORSDOF 10
ENDMDL
MODEL 7
REMARK VINA RESULT:      -7.1      6.450     10.371
REMARK  Name = 91746246_sitosterol.pdbqt.pdb
REMARK  10 active torsions:
REMARK  status: ('A' for Active; 'I' for Inactive)
REMARK    1  A    between atoms: C_5  and  C_20
REMARK    2  A    between atoms: C_19  and  O_30
REMARK    3  A    between atoms: C_20  and  C_22
REMARK    4  A    between atoms: C_23  and  C_24
REMARK    5  A    between atoms: C_24  and  C_28
REMARK    6  A    between atoms: O_30  and  C_32
REMARK    7  A    between atoms: C_32  and  C_33
REMARK    8  A    between atoms: C_34  and  C_35
REMARK    9  A    between atoms: C_38  and  O_41
REMARK   10  A    between atoms: C_40  and  O_43
REMARK                            x       y       z     vdW  Elec       q    Type
REMARK                         _______ _______ _______ _____ _____    ______ ____
ROOT
ATOM      1  C   UNL     1      56.192  -3.752  14.387  0.00  0.00    +0.000 C 
ATOM      2  C   UNL     1      56.000  -2.667  13.198  0.00  0.00    +0.000 C 
ATOM      3  C   UNL     1      55.744  -3.067  11.800  0.00  0.00    +0.000 C 
ATOM      4  C   UNL     1      55.374  -4.451  11.328  0.00  0.00    +0.000 C 
ATOM      5  C   UNL     1      55.377  -3.157  15.529  0.00  0.00    +0.000 C 
ATOM      6  C   UNL     1      55.665  -5.000  13.836  0.00  0.00    +0.000 C 
ATOM      7  C   UNL     1      55.168  -4.826   9.837  0.00  0.00    +0.000 C 
ATOM      8  C   UNL     1      55.328  -1.536  13.758  0.00  0.00    +0.000 C 
ATOM      9  C   UNL     1      55.303  -5.361  12.416  0.00  0.00    +0.000 C 
ATOM     10  C   UNL     1      54.925  -1.853  15.173  0.00  0.00    +0.000 C 
ATOM     11  C   UNL     1      55.674  -2.102  10.765  0.00  0.00    +0.000 C 
ATOM     12  C   UNL     1      57.705  -3.783  14.733  0.00  0.00    +0.000 C 
ATOM     13  C   UNL     1      54.933  -3.528   8.845  0.00  0.00    +0.000 C 
ATOM     14  C   UNL     1      53.921  -5.629   9.669  0.00  0.00    +0.000 C 
ATOM     15  C   UNL     1      55.272  -2.381   9.347  0.00  0.00    +0.000 C 
ATOM     16  C   UNL     1      56.426  -5.582   9.318  0.00  0.00    +0.000 C 
ATOM     17  C   UNL     1      53.736  -3.578   8.034  0.00  0.00    +0.000 C 
ATOM     18  C   UNL     1      52.682  -5.499   8.767  0.00  0.00    +0.000 C 
ATOM     19  C   UNL     1      52.564  -4.394   7.857  0.00  0.00    +0.000 C 
ENDROOT
BRANCH   5  20
ATOM     20  C   UNL     1      55.306  -3.716  16.841  0.00  0.00    +0.000 C 
ATOM     21  C   UNL     1      56.336  -3.419  17.898  0.00  0.00    +0.000 C 
BRANCH  20  22
ATOM     22  C   UNL     1      54.403  -4.774  17.139  0.00  0.00    +0.000 C 
ATOM     23  C   UNL     1      53.428  -5.917  17.459  0.00  0.00    +0.000 C 
BRANCH  23  24
ATOM     24  C   UNL     1      52.517  -6.980  17.740  0.00  0.00    +0.000 C 
ATOM     25  C   UNL     1      51.451  -6.818  18.705  0.00  0.00    +0.000 C 
ATOM     26  C   UNL     1      50.484  -7.923  19.070  0.00  0.00    +0.000 C 
ATOM     27  C   UNL     1      51.203  -5.516  19.439  0.00  0.00    +0.000 C 
BRANCH  24  28
ATOM     28  C   UNL     1      52.659  -8.220  17.061  0.00  0.00    +0.000 C 
ATOM     29  C   UNL     1      52.768  -9.586  16.374  0.00  0.00    +0.000 C 
ENDBRANCH  24  28
ENDBRANCH  23  24
ENDBRANCH  20  22
ENDBRANCH   5  20
BRANCH  19  30
ATOM     30  O   UNL     1      52.079  -4.584   6.567  0.00  0.00    +0.000 OA
BRANCH  30  32
ATOM     31  O   UNL     1      49.877  -5.183   6.122  0.00  0.00    +0.000 OA
ATOM     32  C   UNL     1      50.729  -4.395   6.504  0.00  0.00    +0.000 C 
BRANCH  32  33
ATOM     33  C   UNL     1      50.354  -3.092   6.996  0.00  0.00    +0.000 C 
ATOM     34  C   UNL     1      50.028  -2.014   7.415  0.00  0.00    +0.000 C 
BRANCH  34  35
ATOM     35  C   UNL     1      49.625  -0.744   7.921  0.00  0.00    +0.000 A 
ATOM     36  C   UNL     1      49.291  -0.610   9.268  0.00  0.00    +0.000 A 
ATOM     37  C   UNL     1      49.559   0.357   7.072  0.00  0.00    +0.000 A 
ATOM     38  C   UNL     1      48.888   0.625   9.783  0.00  0.00    +0.000 A 
ATOM     39  C   UNL     1      49.159   1.595   7.571  0.00  0.00    +0.000 A 
ATOM     40  C   UNL     1      48.826   1.722   8.919  0.00  0.00    +0.000 A 
BRANCH  38  41
ATOM     41  O   UNL     1      48.541   0.842  11.094  0.00  0.00    +0.000 OA
ATOM     42  C   UNL     1      49.423   0.311  12.049  0.00  0.00    +0.000 C 
ENDBRANCH  38  41
BRANCH  40  43
ATOM     43  O   UNL     1      48.432   2.939   9.403  0.00  0.00    +0.000 OA
ATOM     44  H   UNL     1      48.142   3.494   8.654  0.00  0.00    +0.000 HD
ENDBRANCH  40  43
ENDBRANCH  34  35
ENDBRANCH  32  33
ENDBRANCH  30  32
ENDBRANCH  19  30
TORSDOF 10
ENDMDL
MODEL 8
REMARK VINA RESULT:      -7.0      4.386     11.289
REMARK  Name = 91746246_sitosterol.pdbqt.pdb
REMARK  10 active torsions:
REMARK  status: ('A' for Active; 'I' for Inactive)
REMARK    1  A    between atoms: C_5  and  C_20
REMARK    2  A    between atoms: C_19  and  O_30
REMARK    3  A    between atoms: C_20  and  C_22
REMARK    4  A    between atoms: C_23  and  C_24
REMARK    5  A    between atoms: C_24  and  C_28
REMARK    6  A    between atoms: O_30  and  C_32
REMARK    7  A    between atoms: C_32  and  C_33
REMARK    8  A    between atoms: C_34  and  C_35
REMARK    9  A    between atoms: C_38  and  O_41
REMARK   10  A    between atoms: C_40  and  O_43
REMARK                            x       y       z     vdW  Elec       q    Type
REMARK                         _______ _______ _______ _____ _____    ______ ____
ROOT
ATOM      1  C   UNL     1      51.398   4.613  10.264  0.00  0.00    +0.000 C 
ATOM      2  C   UNL     1      50.698   3.274  10.851  0.00  0.00    +0.000 C 
ATOM      3  C   UNL     1      50.177   2.207   9.974  0.00  0.00    +0.000 C 
ATOM      4  C   UNL     1      50.436   2.072   8.494  0.00  0.00    +0.000 C 
ATOM      5  C   UNL     1      52.606   4.796  11.175  0.00  0.00    +0.000 C 
ATOM      6  C   UNL     1      51.716   4.283   8.876  0.00  0.00    +0.000 C 
ATOM      7  C   UNL     1      49.817   0.958   7.610  0.00  0.00    +0.000 C 
ATOM      8  C   UNL     1      51.371   2.940  12.068  0.00  0.00    +0.000 C 
ATOM      9  C   UNL     1      51.262   3.126   8.020  0.00  0.00    +0.000 C 
ATOM     10  C   UNL     1      52.552   3.856  12.246  0.00  0.00    +0.000 C 
ATOM     11  C   UNL     1      49.486   1.092  10.510  0.00  0.00    +0.000 C 
ATOM     12  C   UNL     1      50.381   5.771  10.440  0.00  0.00    +0.000 C 
ATOM     13  C   UNL     1      49.228  -0.327   8.463  0.00  0.00    +0.000 C 
ATOM     14  C   UNL     1      50.860   0.350   6.732  0.00  0.00    +0.000 C 
ATOM     15  C   UNL     1      49.050  -0.112   9.731  0.00  0.00    +0.000 C 
ATOM     16  C   UNL     1      48.633   1.549   6.791  0.00  0.00    +0.000 C 
ATOM     17  C   UNL     1      49.740  -1.620   8.067  0.00  0.00    +0.000 C 
ATOM     18  C   UNL     1      51.325  -1.092   6.470  0.00  0.00    +0.000 C 
ATOM     19  C   UNL     1      50.720  -2.186   7.178  0.00  0.00    +0.000 C 
ENDROOT
BRANCH   5  20
ATOM     20  C   UNL     1      53.500   5.907  11.109  0.00  0.00    +0.000 C 
ATOM     21  C   UNL     1      54.005   6.609  12.341  0.00  0.00    +0.000 C 
BRANCH  20  22
ATOM     22  C   UNL     1      53.763   6.564   9.874  0.00  0.00    +0.000 C 
ATOM     23  C   UNL     1      54.044   7.274   8.541  0.00  0.00    +0.000 C 
BRANCH  23  24
ATOM     24  C   UNL     1      54.291   7.924   7.295  0.00  0.00    +0.000 C 
ATOM     25  C   UNL     1      55.573   8.531   7.008  0.00  0.00    +0.000 C 
ATOM     26  C   UNL     1      55.875   9.268   5.721  0.00  0.00    +0.000 C 
ATOM     27  C   UNL     1      56.738   8.480   7.975  0.00  0.00    +0.000 C 
BRANCH  24  28
ATOM     28  C   UNL     1      53.261   7.979   6.318  0.00  0.00    +0.000 C 
ATOM     29  C   UNL     1      52.119   7.982   5.295  0.00  0.00    +0.000 C 
ENDBRANCH  24  28
ENDBRANCH  23  24
ENDBRANCH  20  22
ENDBRANCH   5  20
BRANCH  19  30
ATOM     30  O   UNL     1      50.409  -3.373   6.521  0.00  0.00    +0.000 OA
BRANCH  30  32
ATOM     31  O   UNL     1      52.107  -4.302   5.232  0.00  0.00    +0.000 OA
ATOM     32  C   UNL     1      51.523  -4.127   6.291  0.00  0.00    +0.000 C 
BRANCH  32  33
ATOM     33  C   UNL     1      52.016  -4.726   7.507  0.00  0.00    +0.000 C 
ATOM     34  C   UNL     1      52.445  -5.224   8.513  0.00  0.00    +0.000 C 
BRANCH  34  35
ATOM     35  C   UNL     1      52.971  -5.815   9.699  0.00  0.00    +0.000 A 
ATOM     36  C   UNL     1      54.207  -5.397  10.190  0.00  0.00    +0.000 A 
ATOM     37  C   UNL     1      52.256  -6.810  10.361  0.00  0.00    +0.000 A 
ATOM     38  C   UNL     1      54.743  -5.967  11.348  0.00  0.00    +0.000 A 
ATOM     39  C   UNL     1      52.778  -7.387  11.516  0.00  0.00    +0.000 A 
ATOM     40  C   UNL     1      54.015  -6.965  12.001  0.00  0.00    +0.000 A 
BRANCH  38  41
ATOM     41  O   UNL     1      55.952  -5.615  11.897  0.00  0.00    +0.000 OA
ATOM     42  C   UNL     1      56.028  -4.308  12.405  0.00  0.00    +0.000 C 
ENDBRANCH  38  41
BRANCH  40  43
ATOM     43  O   UNL     1      54.523  -7.537  13.135  0.00  0.00    +0.000 OA
ATOM     44  H   UNL     1      55.424  -7.193  13.282  0.00  0.00    +0.000 HD
ENDBRANCH  40  43
ENDBRANCH  34  35
ENDBRANCH  32  33
ENDBRANCH  30  32
ENDBRANCH  19  30
TORSDOF 10
ENDMDL
MODEL 9
REMARK VINA RESULT:      -7.0      1.297      2.176
REMARK  Name = 91746246_sitosterol.pdbqt.pdb
REMARK  10 active torsions:
REMARK  status: ('A' for Active; 'I' for Inactive)
REMARK    1  A    between atoms: C_5  and  C_20
REMARK    2  A    between atoms: C_19  and  O_30
REMARK    3  A    between atoms: C_20  and  C_22
REMARK    4  A    between atoms: C_23  and  C_24
REMARK    5  A    between atoms: C_24  and  C_28
REMARK    6  A    between atoms: O_30  and  C_32
REMARK    7  A    between atoms: C_32  and  C_33
REMARK    8  A    between atoms: C_34  and  C_35
REMARK    9  A    between atoms: C_38  and  O_41
REMARK   10  A    between atoms: C_40  and  O_43
REMARK                            x       y       z     vdW  Elec       q    Type
REMARK                         _______ _______ _______ _____ _____    ______ ____
ROOT
ATOM      1  C   UNL     1      50.492  -0.605   7.733  0.00  0.00    +0.000 C 
ATOM      2  C   UNL     1      49.804   0.525   8.670  0.00  0.00    +0.000 C 
ATOM      3  C   UNL     1      50.454   1.039   9.892  0.00  0.00    +0.000 C 
ATOM      4  C   UNL     1      51.889   0.808  10.297  0.00  0.00    +0.000 C 
ATOM      5  C   UNL     1      50.234  -0.087   6.324  0.00  0.00    +0.000 C 
ATOM      6  C   UNL     1      51.896  -0.616   8.141  0.00  0.00    +0.000 C 
ATOM      7  C   UNL     1      52.503   1.328  11.623  0.00  0.00    +0.000 C 
ATOM      8  C   UNL     1      49.089   1.414   7.807  0.00  0.00    +0.000 C 
ATOM      9  C   UNL     1      52.568   0.008   9.340  0.00  0.00    +0.000 C 
ATOM     10  C   UNL     1      49.378   1.052   6.376  0.00  0.00    +0.000 C 
ATOM     11  C   UNL     1      49.789   1.957  10.742  0.00  0.00    +0.000 C 
ATOM     12  C   UNL     1      49.731  -1.932   7.992  0.00  0.00    +0.000 C 
ATOM     13  C   UNL     1      51.628   2.527  12.344  0.00  0.00    +0.000 C 
ATOM     14  C   UNL     1      53.829   1.964  11.367  0.00  0.00    +0.000 C 
ATOM     15  C   UNL     1      50.408   2.652  11.918  0.00  0.00    +0.000 C 
ATOM     16  C   UNL     1      52.602   0.153  12.640  0.00  0.00    +0.000 C 
ATOM     17  C   UNL     1      52.362   3.737  12.640  0.00  0.00    +0.000 C 
ATOM     18  C   UNL     1      54.441   3.331  11.717  0.00  0.00    +0.000 C 
ATOM     19  C   UNL     1      53.664   4.311  12.422  0.00  0.00    +0.000 C 
ENDROOT
BRANCH   5  20
ATOM     20  C   UNL     1      50.582  -0.793   5.133  0.00  0.00    +0.000 C 
ATOM     21  C   UNL     1      50.561  -0.141   3.776  0.00  0.00    +0.000 C 
BRANCH  20  22
ATOM     22  C   UNL     1      50.723  -2.208   5.135  0.00  0.00    +0.000 C 
ATOM     23  C   UNL     1      50.874  -3.737   5.135  0.00  0.00    +0.000 C 
BRANCH  23  24
ATOM     24  C   UNL     1      50.997  -5.160   5.134  0.00  0.00    +0.000 C 
ATOM     25  C   UNL     1      51.516  -5.867   3.983  0.00  0.00    +0.000 C 
ATOM     26  C   UNL     1      51.629  -7.374   3.914  0.00  0.00    +0.000 C 
ATOM     27  C   UNL     1      52.001  -5.156   2.736  0.00  0.00    +0.000 C 
BRANCH  24  28
ATOM     28  C   UNL     1      50.602  -5.896   6.283  0.00  0.00    +0.000 C 
ATOM     29  C   UNL     1      50.128  -6.723   7.484  0.00  0.00    +0.000 C 
ENDBRANCH  24  28
ENDBRANCH  23  24
ENDBRANCH  20  22
ENDBRANCH   5  20
BRANCH  19  30
ATOM     30  O   UNL     1      54.231   5.069  13.442  0.00  0.00    +0.000 OA
BRANCH  30  32
ATOM     31  O   UNL     1      53.911   7.254  14.171  0.00  0.00    +0.000 OA
ATOM     32  C   UNL     1      53.944   6.396  13.301  0.00  0.00    +0.000 C 
BRANCH  32  33
ATOM     33  C   UNL     1      53.694   6.740  11.923  0.00  0.00    +0.000 C 
ATOM     34  C   UNL     1      53.477   7.041  10.781  0.00  0.00    +0.000 C 
BRANCH  34  35
ATOM     35  C   UNL     1      53.208   7.414   9.431  0.00  0.00    +0.000 A 
ATOM     36  C   UNL     1      51.912   7.763   9.055  0.00  0.00    +0.000 A 
ATOM     37  C   UNL     1      54.235   7.423   8.491  0.00  0.00    +0.000 A 
ATOM     38  C   UNL     1      51.627   8.126   7.736  0.00  0.00    +0.000 A 
ATOM     39  C   UNL     1      53.966   7.783   7.173  0.00  0.00    +0.000 A 
ATOM     40  C   UNL     1      52.667   8.130   6.803  0.00  0.00    +0.000 A 
BRANCH  38  41
ATOM     41  O   UNL     1      50.380   8.481   7.282  0.00  0.00    +0.000 OA
ATOM     42  C   UNL     1      49.549   7.415   6.902  0.00  0.00    +0.000 C 
ENDBRANCH  38  41
BRANCH  40  43
ATOM     43  O   UNL     1      52.408   8.480   5.506  0.00  0.00    +0.000 OA
ATOM     44  H   UNL     1      52.031   9.380   5.495  0.00  0.00    +0.000 HD
ENDBRANCH  40  43
ENDBRANCH  34  35
ENDBRANCH  32  33
ENDBRANCH  30  32
ENDBRANCH  19  30
TORSDOF 10
ENDMDL
