MODEL 1
REMARK VINA RESULT:      -4.9      0.000      0.000
REMARK  Name = 92041_2Ethoxy5fluorouracil.pdbqt.pdb
REMARK  2 active torsions:
REMARK  status: ('A' for Active; 'I' for Inactive)
REMARK    1  A    between atoms: C_5  and  O_10
REMARK    2  A    between atoms: O_10  and  C_11
REMARK                            x       y       z     vdW  Elec       q    Type
REMARK                         _______ _______ _______ _____ _____    ______ ____
ROOT
ATOM      1  F   UNL     1      43.106  -2.286  13.003  0.00  0.00    +0.000 F 
ATOM      2  O   UNL     1      42.984  -0.742  15.398  0.00  0.00    +0.000 OA
ATOM      3  N   UNL     1      41.163   0.353  14.525  0.00  0.00    +0.000 N 
ATOM      4  N   UNL     1      40.158  -0.240  12.468  0.00  0.00    +0.000 NA
ATOM      5  C   UNL     1      40.233   0.543  13.506  0.00  0.00    +0.000 C 
ATOM      6  C   UNL     1      42.125  -0.659  14.531  0.00  0.00    +0.000 C 
ATOM      7  C   UNL     1      42.010  -1.603  13.374  0.00  0.00    +0.000 C 
ATOM      8  C   UNL     1      41.085  -1.202  12.567  0.00  0.00    +0.000 C 
ATOM      9  H   UNL     1      41.203   1.013  15.287  0.00  0.00    +0.000 HD
ENDROOT
BRANCH   5  10
ATOM     10  O   UNL     1      39.436   1.615  13.724  0.00  0.00    +0.000 OA
BRANCH  10  11
ATOM     11  C   UNL     1      39.585   2.227  14.895  0.00  0.00    +0.000 C 
ATOM     12  C   UNL     1      39.714   2.975  16.225  0.00  0.00    +0.000 C 
ENDBRANCH  10  11
ENDBRANCH   5  10
TORSDOF 2
ENDMDL
MODEL 2
REMARK VINA RESULT:      -4.6      1.709      2.043
REMARK  Name = 92041_2Ethoxy5fluorouracil.pdbqt.pdb
REMARK  2 active torsions:
REMARK  status: ('A' for Active; 'I' for Inactive)
REMARK    1  A    between atoms: C_5  and  O_10
REMARK    2  A    between atoms: O_10  and  C_11
REMARK                            x       y       z     vdW  Elec       q    Type
REMARK                         _______ _______ _______ _____ _____    ______ ____
ROOT
ATOM      1  F   UNL     1      42.281  -2.304  11.365  0.00  0.00    +0.000 F 
ATOM      2  O   UNL     1      43.729  -2.949  13.735  0.00  0.00    +0.000 OA
ATOM      3  N   UNL     1      42.768  -1.122  14.745  0.00  0.00    +0.000 N 
ATOM      4  N   UNL     1      41.115   0.212  13.704  0.00  0.00    +0.000 NA
ATOM      5  C   UNL     1      41.908  -0.027  14.710  0.00  0.00    +0.000 C 
ATOM      6  C   UNL     1      42.899  -2.050  13.709  0.00  0.00    +0.000 C 
ATOM      7  C   UNL     1      41.949  -1.822  12.574  0.00  0.00    +0.000 C 
ATOM      8  C   UNL     1      41.274  -0.739  12.775  0.00  0.00    +0.000 C 
ATOM      9  H   UNL     1      43.389  -1.239  15.531  0.00  0.00    +0.000 HD
ENDROOT
BRANCH   5  10
ATOM     10  O   UNL     1      41.996   0.738  15.823  0.00  0.00    +0.000 OA
BRANCH  10  11
ATOM     11  C   UNL     1      40.850   1.223  16.292  0.00  0.00    +0.000 C 
ATOM     12  C   UNL     1      39.502   1.762  16.780  0.00  0.00    +0.000 C 
ENDBRANCH  10  11
ENDBRANCH   5  10
TORSDOF 2
ENDMDL
MODEL 3
REMARK VINA RESULT:      -3.9      2.681      4.253
REMARK  Name = 92041_2Ethoxy5fluorouracil.pdbqt.pdb
REMARK  2 active torsions:
REMARK  status: ('A' for Active; 'I' for Inactive)
REMARK    1  A    between atoms: C_5  and  O_10
REMARK    2  A    between atoms: O_10  and  C_11
REMARK                            x       y       z     vdW  Elec       q    Type
REMARK                         _______ _______ _______ _____ _____    ______ ____
ROOT
ATOM      1  F   UNL     1      41.424   1.108  18.305  0.00  0.00    +0.000 F 
ATOM      2  O   UNL     1      39.247   2.150  16.787  0.00  0.00    +0.000 OA
ATOM      3  N   UNL     1      40.139   1.133  14.929  0.00  0.00    +0.000 N 
ATOM      4  N   UNL     1      42.034  -0.280  15.010  0.00  0.00    +0.000 NA
ATOM      5  C   UNL     1      41.112   0.340  14.328  0.00  0.00    +0.000 C 
ATOM      6  C   UNL     1      40.062   1.376  16.302  0.00  0.00    +0.000 C 
ATOM      7  C   UNL     1      41.077   0.620  17.103  0.00  0.00    +0.000 C 
ATOM      8  C   UNL     1      41.869  -0.027  16.314  0.00  0.00    +0.000 C 
ATOM      9  H   UNL     1      39.472   1.622  14.351  0.00  0.00    +0.000 HD
ENDROOT
BRANCH   5  10
ATOM     10  O   UNL     1      40.986   0.294  12.981  0.00  0.00    +0.000 OA
BRANCH  10  11
ATOM     11  C   UNL     1      40.991  -0.918  12.434  0.00  0.00    +0.000 C 
ATOM     12  C   UNL     1      41.033  -2.334  11.850  0.00  0.00    +0.000 C 
ENDBRANCH  10  11
ENDBRANCH   5  10
TORSDOF 2
ENDMDL
MODEL 4
REMARK VINA RESULT:      -3.8     13.237     13.593
REMARK  Name = 92041_2Ethoxy5fluorouracil.pdbqt.pdb
REMARK  2 active torsions:
REMARK  status: ('A' for Active; 'I' for Inactive)
REMARK    1  A    between atoms: C_5  and  O_10
REMARK    2  A    between atoms: O_10  and  C_11
REMARK                            x       y       z     vdW  Elec       q    Type
REMARK                         _______ _______ _______ _____ _____    ______ ____
ROOT
ATOM      1  F   UNL     1      51.060   6.113  12.167  0.00  0.00    +0.000 F 
ATOM      2  O   UNL     1      50.092   4.636   9.928  0.00  0.00    +0.000 OA
ATOM      3  N   UNL     1      50.293   6.545   8.663  0.00  0.00    +0.000 N 
ATOM      4  N   UNL     1      51.233   8.552   9.487  0.00  0.00    +0.000 NA
ATOM      5  C   UNL     1      50.646   7.885   8.534  0.00  0.00    +0.000 C 
ATOM      6  C   UNL     1      50.495   5.787   9.819  0.00  0.00    +0.000 C 
ATOM      7  C   UNL     1      51.226   6.523  10.899  0.00  0.00    +0.000 C 
ATOM      8  C   UNL     1      51.424   7.748  10.542  0.00  0.00    +0.000 C 
ATOM      9  H   UNL     1      49.804   6.087   7.908  0.00  0.00    +0.000 HD
ENDROOT
BRANCH   5  10
ATOM     10  O   UNL     1      50.310   8.397   7.327  0.00  0.00    +0.000 OA
BRANCH  10  11
ATOM     11  C   UNL     1      51.229   8.294   6.372  0.00  0.00    +0.000 C 
ATOM     12  C   UNL     1      52.257   8.125   5.249  0.00  0.00    +0.000 C 
ENDBRANCH  10  11
ENDBRANCH   5  10
TORSDOF 2
ENDMDL
MODEL 5
REMARK VINA RESULT:      -3.7      2.677      3.200
REMARK  Name = 92041_2Ethoxy5fluorouracil.pdbqt.pdb
REMARK  2 active torsions:
REMARK  status: ('A' for Active; 'I' for Inactive)
REMARK    1  A    between atoms: C_5  and  O_10
REMARK    2  A    between atoms: O_10  and  C_11
REMARK                            x       y       z     vdW  Elec       q    Type
REMARK                         _______ _______ _______ _____ _____    ______ ____
ROOT
ATOM      1  F   UNL     1      42.526  -1.352  11.120  0.00  0.00    +0.000 F 
ATOM      2  O   UNL     1      41.456  -3.756  12.219  0.00  0.00    +0.000 OA
ATOM      3  N   UNL     1      40.300  -2.473  13.736  0.00  0.00    +0.000 N 
ATOM      4  N   UNL     1      40.281  -0.109  13.685  0.00  0.00    +0.000 NA
ATOM      5  C   UNL     1      39.939  -1.231  14.251  0.00  0.00    +0.000 C 
ATOM      6  C   UNL     1      41.083  -2.652  12.593  0.00  0.00    +0.000 C 
ATOM      7  C   UNL     1      41.431  -1.372  11.898  0.00  0.00    +0.000 C 
ATOM      8  C   UNL     1      40.995  -0.366  12.581  0.00  0.00    +0.000 C 
ATOM      9  H   UNL     1      40.041  -3.311  14.235  0.00  0.00    +0.000 HD
ENDROOT
BRANCH   5  10
ATOM     10  O   UNL     1      39.207  -1.332  15.385  0.00  0.00    +0.000 OA
BRANCH  10  11
ATOM     11  C   UNL     1      39.857  -1.758  16.464  0.00  0.00    +0.000 C 
ATOM     12  C   UNL     1      40.623  -2.189  17.719  0.00  0.00    +0.000 C 
ENDBRANCH  10  11
ENDBRANCH   5  10
TORSDOF 2
ENDMDL
MODEL 6
REMARK VINA RESULT:      -3.7      3.409      5.799
REMARK  Name = 92041_2Ethoxy5fluorouracil.pdbqt.pdb
REMARK  2 active torsions:
REMARK  status: ('A' for Active; 'I' for Inactive)
REMARK    1  A    between atoms: C_5  and  O_10
REMARK    2  A    between atoms: O_10  and  C_11
REMARK                            x       y       z     vdW  Elec       q    Type
REMARK                         _______ _______ _______ _____ _____    ______ ____
ROOT
ATOM      1  F   UNL     1      41.771   0.294  14.502  0.00  0.00    +0.000 F 
ATOM      2  O   UNL     1      42.290  -1.246  12.159  0.00  0.00    +0.000 OA
ATOM      3  N   UNL     1      43.541  -2.676  13.453  0.00  0.00    +0.000 N 
ATOM      4  N   UNL     1      43.716  -2.478  15.803  0.00  0.00    +0.000 NA
ATOM      5  C   UNL     1      44.053  -3.063  14.688  0.00  0.00    +0.000 C 
ATOM      6  C   UNL     1      42.650  -1.616  13.269  0.00  0.00    +0.000 C 
ATOM      7  C   UNL     1      42.207  -0.976  14.548  0.00  0.00    +0.000 C 
ATOM      8  C   UNL     1      42.835  -1.502  15.546  0.00  0.00    +0.000 C 
ATOM      9  H   UNL     1      43.866  -3.137  12.616  0.00  0.00    +0.000 HD
ENDROOT
BRANCH   5  10
ATOM     10  O   UNL     1      44.923  -4.095  14.590  0.00  0.00    +0.000 OA
BRANCH  10  11
ATOM     11  C   UNL     1      44.478  -5.177  13.958  0.00  0.00    +0.000 C 
ATOM     12  C   UNL     1      43.921  -6.388  13.203  0.00  0.00    +0.000 C 
ENDBRANCH  10  11
ENDBRANCH   5  10
TORSDOF 2
ENDMDL
MODEL 7
REMARK VINA RESULT:      -3.6     17.913     18.626
REMARK  Name = 92041_2Ethoxy5fluorouracil.pdbqt.pdb
REMARK  2 active torsions:
REMARK  status: ('A' for Active; 'I' for Inactive)
REMARK    1  A    between atoms: C_5  and  O_10
REMARK    2  A    between atoms: O_10  and  C_11
REMARK                            x       y       z     vdW  Elec       q    Type
REMARK                         _______ _______ _______ _____ _____    ______ ____
ROOT
ATOM      1  F   UNL     1      42.815 -11.203  -1.960  0.00  0.00    +0.000 F 
ATOM      2  O   UNL     1      42.790  -8.618  -3.162  0.00  0.00    +0.000 OA
ATOM      3  N   UNL     1      44.617  -8.073  -1.878  0.00  0.00    +0.000 N 
ATOM      4  N   UNL     1      45.725  -9.624  -0.478  0.00  0.00    +0.000 NA
ATOM      5  C   UNL     1      45.584  -8.412  -0.936  0.00  0.00    +0.000 C 
ATOM      6  C   UNL     1      43.684  -8.970  -2.403  0.00  0.00    +0.000 C 
ATOM      7  C   UNL     1      43.874 -10.378  -1.932  0.00  0.00    +0.000 C 
ATOM      8  C   UNL     1      44.822 -10.427  -1.056  0.00  0.00    +0.000 C 
ATOM      9  H   UNL     1      44.525  -7.111  -2.169  0.00  0.00    +0.000 HD
ENDROOT
BRANCH   5  10
ATOM     10  O   UNL     1      46.341  -7.353  -0.564  0.00  0.00    +0.000 OA
BRANCH  10  11
ATOM     11  C   UNL     1      47.616  -7.613  -0.290  0.00  0.00    +0.000 C 
ATOM     12  C   UNL     1      49.099  -7.853   0.009  0.00  0.00    +0.000 C 
ENDBRANCH  10  11
ENDBRANCH   5  10
TORSDOF 2
ENDMDL
MODEL 8
REMARK VINA RESULT:      -3.4     23.246     23.789
REMARK  Name = 92041_2Ethoxy5fluorouracil.pdbqt.pdb
REMARK  2 active torsions:
REMARK  status: ('A' for Active; 'I' for Inactive)
REMARK    1  A    between atoms: C_5  and  O_10
REMARK    2  A    between atoms: O_10  and  C_11
REMARK                            x       y       z     vdW  Elec       q    Type
REMARK                         _______ _______ _______ _____ _____    ______ ____
ROOT
ATOM      1  F   UNL     1      49.479  12.729  -3.461  0.00  0.00    +0.000 F 
ATOM      2  O   UNL     1      47.736  10.473  -3.458  0.00  0.00    +0.000 OA
ATOM      3  N   UNL     1      46.234  11.712  -4.680  0.00  0.00    +0.000 N 
ATOM      4  N   UNL     1      46.702  13.884  -5.489  0.00  0.00    +0.000 NA
ATOM      5  C   UNL     1      45.877  12.888  -5.332  0.00  0.00    +0.000 C 
ATOM      6  C   UNL     1      47.485  11.483  -4.101  0.00  0.00    +0.000 C 
ATOM      7  C   UNL     1      48.463  12.595  -4.328  0.00  0.00    +0.000 C 
ATOM      8  C   UNL     1      47.884  13.574  -4.941  0.00  0.00    +0.000 C 
ATOM      9  H   UNL     1      45.544  10.987  -4.553  0.00  0.00    +0.000 HD
ENDROOT
BRANCH   5  10
ATOM     10  O   UNL     1      44.597  12.870  -5.773  0.00  0.00    +0.000 OA
BRANCH  10  11
ATOM     11  C   UNL     1      44.401  13.290  -7.019  0.00  0.00    +0.000 C 
ATOM     12  C   UNL     1      44.237  13.776  -8.462  0.00  0.00    +0.000 C 
ENDBRANCH  10  11
ENDBRANCH   5  10
TORSDOF 2
ENDMDL
MODEL 9
REMARK VINA RESULT:      -3.2     18.140     19.121
REMARK  Name = 92041_2Ethoxy5fluorouracil.pdbqt.pdb
REMARK  2 active torsions:
REMARK  status: ('A' for Active; 'I' for Inactive)
REMARK    1  A    between atoms: C_5  and  O_10
REMARK    2  A    between atoms: O_10  and  C_11
REMARK                            x       y       z     vdW  Elec       q    Type
REMARK                         _______ _______ _______ _____ _____    ______ ____
ROOT
ATOM      1  F   UNL     1      42.730 -11.552  -3.957  0.00  0.00    +0.000 F 
ATOM      2  O   UNL     1      42.500 -12.065  -1.161  0.00  0.00    +0.000 OA
ATOM      3  N   UNL     1      43.816 -10.220  -0.779  0.00  0.00    +0.000 N 
ATOM      4  N   UNL     1      44.543  -8.769  -2.499  0.00  0.00    +0.000 NA
ATOM      5  C   UNL     1      44.540  -9.127  -1.246  0.00  0.00    +0.000 C 
ATOM      6  C   UNL     1      43.052 -11.061  -1.591  0.00  0.00    +0.000 C 
ATOM      7  C   UNL     1      42.997 -10.625  -3.023  0.00  0.00    +0.000 C 
ATOM      8  C   UNL     1      43.762  -9.599  -3.202  0.00  0.00    +0.000 C 
ATOM      9  H   UNL     1      43.880 -10.477   0.195  0.00  0.00    +0.000 HD
ENDROOT
BRANCH   5  10
ATOM     10  O   UNL     1      45.224  -8.498  -0.262  0.00  0.00    +0.000 OA
BRANCH  10  11
ATOM     11  C   UNL     1      46.463  -8.118  -0.560  0.00  0.00    +0.000 C 
ATOM     12  C   UNL     1      47.903  -7.740  -0.918  0.00  0.00    +0.000 C 
ENDBRANCH  10  11
ENDBRANCH   5  10
TORSDOF 2
ENDMDL
