MODEL 1
REMARK VINA RESULT:      -4.3      0.000      0.000
REMARK  Name = 95716_6Bromoisatin.pdbqt.pdb
REMARK  0 active torsions:
REMARK  status: ('A' for Active; 'I' for Inactive)
REMARK                            x       y       z     vdW  Elec       q    Type
REMARK                         _______ _______ _______ _____ _____    ______ ____
ROOT
ATOM      1 BR   UNL     1      50.366  15.951  13.897  0.00  0.00    +0.000 Br
ATOM      2  O   UNL     1      50.054  18.383   7.361  0.00  0.00    +0.000 OA
ATOM      3  O   UNL     1      52.870  19.407   7.660  0.00  0.00    +0.000 OA
ATOM      4  N   UNL     1      52.596  18.467   9.776  0.00  0.00    +0.000 N 
ATOM      5  C   UNL     1      51.566  17.795  10.429  0.00  0.00    +0.000 A 
ATOM      6  C   UNL     1      50.446  17.661   9.612  0.00  0.00    +0.000 A 
ATOM      7  C   UNL     1      50.766  18.291   8.332  0.00  0.00    +0.000 C 
ATOM      8  C   UNL     1      51.583  17.298  11.714  0.00  0.00    +0.000 A 
ATOM      9  C   UNL     1      49.291  17.031  10.025  0.00  0.00    +0.000 A 
ATOM     10  C   UNL     1      52.221  18.818   8.493  0.00  0.00    +0.000 C 
ATOM     11  C   UNL     1      50.421  16.657  12.150  0.00  0.00    +0.000 A 
ATOM     12  C   UNL     1      49.291  16.522  11.325  0.00  0.00    +0.000 A 
ATOM     13  H   UNL     1      53.504  18.685  10.161  0.00  0.00    +0.000 HD
ENDROOT
TORSDOF 0
ENDMDL
MODEL 2
REMARK VINA RESULT:      -4.1      3.962      5.060
REMARK  Name = 95716_6Bromoisatin.pdbqt.pdb
REMARK  0 active torsions:
REMARK  status: ('A' for Active; 'I' for Inactive)
REMARK                            x       y       z     vdW  Elec       q    Type
REMARK                         _______ _______ _______ _____ _____    ______ ____
ROOT
ATOM      1 BR   UNL     1      52.316  20.352   8.594  0.00  0.00    +0.000 Br
ATOM      2  O   UNL     1      50.634  17.579  14.777  0.00  0.00    +0.000 OA
ATOM      3  O   UNL     1      49.626  15.127  13.348  0.00  0.00    +0.000 OA
ATOM      4  N   UNL     1      50.316  16.371  11.500  0.00  0.00    +0.000 N 
ATOM      5  C   UNL     1      50.895  17.624  11.316  0.00  0.00    +0.000 A 
ATOM      6  C   UNL     1      51.103  18.272  12.531  0.00  0.00    +0.000 A 
ATOM      7  C   UNL     1      50.626  17.378  13.586  0.00  0.00    +0.000 C 
ATOM      8  C   UNL     1      51.243  18.210  10.119  0.00  0.00    +0.000 A 
ATOM      9  C   UNL     1      51.664  19.529  12.621  0.00  0.00    +0.000 A 
ATOM     10  C   UNL     1      50.107  16.114  12.842  0.00  0.00    +0.000 C 
ATOM     11  C   UNL     1      51.813  19.483  10.190  0.00  0.00    +0.000 A 
ATOM     12  C   UNL     1      52.023  20.137  11.417  0.00  0.00    +0.000 A 
ATOM     13  H   UNL     1      50.071  15.715  10.772  0.00  0.00    +0.000 HD
ENDROOT
TORSDOF 0
ENDMDL
MODEL 3
REMARK VINA RESULT:      -3.9     30.269     31.182
REMARK  Name = 95716_6Bromoisatin.pdbqt.pdb
REMARK  0 active torsions:
REMARK  status: ('A' for Active; 'I' for Inactive)
REMARK                            x       y       z     vdW  Elec       q    Type
REMARK                         _______ _______ _______ _____ _____    ______ ____
ROOT
ATOM      1 BR   UNL     1      30.086  -5.259   5.134  0.00  0.00    +0.000 Br
ATOM      2  O   UNL     1      29.189  -3.535  -1.572  0.00  0.00    +0.000 OA
ATOM      3  O   UNL     1      31.949  -2.329  -1.580  0.00  0.00    +0.000 OA
ATOM      4  N   UNL     1      31.875  -3.060   0.634  0.00  0.00    +0.000 N 
ATOM      5  C   UNL     1      30.935  -3.718   1.422  0.00  0.00    +0.000 A 
ATOM      6  C   UNL     1      29.774  -3.998   0.706  0.00  0.00    +0.000 A 
ATOM      7  C   UNL     1      29.968  -3.486  -0.650  0.00  0.00    +0.000 C 
ATOM      8  C   UNL     1      31.068  -4.078   2.746  0.00  0.00    +0.000 A 
ATOM      9  C   UNL     1      28.691  -4.646   1.262  0.00  0.00    +0.000 A 
ATOM     10  C   UNL     1      31.395  -2.865  -0.648  0.00  0.00    +0.000 C 
ATOM     11  C   UNL     1      29.981  -4.735   3.326  0.00  0.00    +0.000 A 
ATOM     12  C   UNL     1      28.809  -5.017   2.602  0.00  0.00    +0.000 A 
ATOM     13  H   UNL     1      32.791  -2.754   0.928  0.00  0.00    +0.000 HD
ENDROOT
TORSDOF 0
ENDMDL
MODEL 4
REMARK VINA RESULT:      -3.8     16.607     17.391
REMARK  Name = 95716_6Bromoisatin.pdbqt.pdb
REMARK  0 active torsions:
REMARK  status: ('A' for Active; 'I' for Inactive)
REMARK                            x       y       z     vdW  Elec       q    Type
REMARK                         _______ _______ _______ _____ _____    ______ ____
ROOT
ATOM      1 BR   UNL     1      50.795  -0.381   4.472  0.00  0.00    +0.000 Br
ATOM      2  O   UNL     1      49.740   3.100  10.431  0.00  0.00    +0.000 OA
ATOM      3  O   UNL     1      48.635   0.577  11.651  0.00  0.00    +0.000 OA
ATOM      4  N   UNL     1      49.131  -0.233   9.521  0.00  0.00    +0.000 N 
ATOM      5  C   UNL     1      49.673   0.314   8.361  0.00  0.00    +0.000 A 
ATOM      6  C   UNL     1      49.986   1.661   8.530  0.00  0.00    +0.000 A 
ATOM      7  C   UNL     1      49.623   2.021   9.900  0.00  0.00    +0.000 C 
ATOM      8  C   UNL     1      49.899  -0.333   7.166  0.00  0.00    +0.000 A 
ATOM      9  C   UNL     1      50.537   2.432   7.528  0.00  0.00    +0.000 A 
ATOM     10  C   UNL     1      49.053   0.714  10.525  0.00  0.00    +0.000 C 
ATOM     11  C   UNL     1      50.456   0.432   6.139  0.00  0.00    +0.000 A 
ATOM     12  C   UNL     1      50.772   1.791   6.310  0.00  0.00    +0.000 A 
ATOM     13  H   UNL     1      48.827  -1.188   9.645  0.00  0.00    +0.000 HD
ENDROOT
TORSDOF 0
ENDMDL
MODEL 5
REMARK VINA RESULT:      -3.5     29.322     30.139
REMARK  Name = 95716_6Bromoisatin.pdbqt.pdb
REMARK  0 active torsions:
REMARK  status: ('A' for Active; 'I' for Inactive)
REMARK                            x       y       z     vdW  Elec       q    Type
REMARK                         _______ _______ _______ _____ _____    ______ ____
ROOT
ATOM      1 BR   UNL     1      27.481  -3.099  16.052  0.00  0.00    +0.000 Br
ATOM      2  O   UNL     1      29.423  -0.512   9.865  0.00  0.00    +0.000 OA
ATOM      3  O   UNL     1      29.230  -3.284   8.702  0.00  0.00    +0.000 OA
ATOM      4  N   UNL     1      28.615  -3.765  10.899  0.00  0.00    +0.000 N 
ATOM      5  C   UNL     1      28.461  -3.019  12.064  0.00  0.00    +0.000 A 
ATOM      6  C   UNL     1      28.743  -1.672  11.850  0.00  0.00    +0.000 A 
ATOM      7  C   UNL     1      29.109  -1.527  10.441  0.00  0.00    +0.000 C 
ATOM      8  C   UNL     1      28.080  -3.486  13.304  0.00  0.00    +0.000 A 
ATOM      9  C   UNL     1      28.664  -0.724  12.847  0.00  0.00    +0.000 A 
ATOM     10  C   UNL     1      29.008  -2.961   9.846  0.00  0.00    +0.000 C 
ATOM     11  C   UNL     1      27.995  -2.539  14.327  0.00  0.00    +0.000 A 
ATOM     12  C   UNL     1      28.280  -1.180  14.109  0.00  0.00    +0.000 A 
ATOM     13  H   UNL     1      28.468  -4.760  10.804  0.00  0.00    +0.000 HD
ENDROOT
TORSDOF 0
ENDMDL
MODEL 6
REMARK VINA RESULT:      -3.5      2.397      3.151
REMARK  Name = 95716_6Bromoisatin.pdbqt.pdb
REMARK  0 active torsions:
REMARK  status: ('A' for Active; 'I' for Inactive)
REMARK                            x       y       z     vdW  Elec       q    Type
REMARK                         _______ _______ _______ _____ _____    ______ ____
ROOT
ATOM      1 BR   UNL     1      53.734  18.886  14.643  0.00  0.00    +0.000 Br
ATOM      2  O   UNL     1      48.711  16.337  10.518  0.00  0.00    +0.000 OA
ATOM      3  O   UNL     1      48.851  18.857   8.874  0.00  0.00    +0.000 OA
ATOM      4  N   UNL     1      50.489  19.360  10.455  0.00  0.00    +0.000 N 
ATOM      5  C   UNL     1      51.025  18.705  11.561  0.00  0.00    +0.000 A 
ATOM      6  C   UNL     1      50.432  17.459  11.753  0.00  0.00    +0.000 A 
ATOM      7  C   UNL     1      49.436  17.287  10.696  0.00  0.00    +0.000 C 
ATOM      8  C   UNL     1      52.014  19.167  12.401  0.00  0.00    +0.000 A 
ATOM      9  C   UNL     1      50.787  16.613  12.782  0.00  0.00    +0.000 A 
ATOM     10  C   UNL     1      49.513  18.591   9.850  0.00  0.00    +0.000 C 
ATOM     11  C   UNL     1      52.387  18.323  13.450  0.00  0.00    +0.000 A 
ATOM     12  C   UNL     1      51.788  17.067  13.642  0.00  0.00    +0.000 A 
ATOM     13  H   UNL     1      50.756  20.273  10.116  0.00  0.00    +0.000 HD
ENDROOT
TORSDOF 0
ENDMDL
MODEL 7
REMARK VINA RESULT:      -3.4     13.630     14.426
REMARK  Name = 95716_6Bromoisatin.pdbqt.pdb
REMARK  0 active torsions:
REMARK  status: ('A' for Active; 'I' for Inactive)
REMARK                            x       y       z     vdW  Elec       q    Type
REMARK                         _______ _______ _______ _____ _____    ______ ____
ROOT
ATOM      1 BR   UNL     1      54.918   4.336  11.736  0.00  0.00    +0.000 Br
ATOM      2  O   UNL     1      48.077   4.471  10.348  0.00  0.00    +0.000 OA
ATOM      3  O   UNL     1      48.381   1.877   8.847  0.00  0.00    +0.000 OA
ATOM      4  N   UNL     1      50.597   2.181   9.506  0.00  0.00    +0.000 N 
ATOM      5  C   UNL     1      51.284   3.146  10.237  0.00  0.00    +0.000 A 
ATOM      6  C   UNL     1      50.432   4.162  10.667  0.00  0.00    +0.000 A 
ATOM      7  C   UNL     1      49.091   3.836  10.182  0.00  0.00    +0.000 C 
ATOM      8  C   UNL     1      52.629   3.161  10.535  0.00  0.00    +0.000 A 
ATOM      9  C   UNL     1      50.869   5.238  11.411  0.00  0.00    +0.000 A 
ATOM     10  C   UNL     1      49.255   2.496   9.408  0.00  0.00    +0.000 C 
ATOM     11  C   UNL     1      53.089   4.244  11.287  0.00  0.00    +0.000 A 
ATOM     12  C   UNL     1      52.229   5.268  11.721  0.00  0.00    +0.000 A 
ATOM     13  H   UNL     1      50.997   1.351   9.091  0.00  0.00    +0.000 HD
ENDROOT
TORSDOF 0
ENDMDL
MODEL 8
REMARK VINA RESULT:      -3.4     30.835     31.932
REMARK  Name = 95716_6Bromoisatin.pdbqt.pdb
REMARK  0 active torsions:
REMARK  status: ('A' for Active; 'I' for Inactive)
REMARK                            x       y       z     vdW  Elec       q    Type
REMARK                         _______ _______ _______ _____ _____    ______ ____
ROOT
ATOM      1 BR   UNL     1      29.490  -5.525  -6.529  0.00  0.00    +0.000 Br
ATOM      2  O   UNL     1      32.804  -0.905  -2.478  0.00  0.00    +0.000 OA
ATOM      3  O   UNL     1      32.876  -2.961  -0.278  0.00  0.00    +0.000 OA
ATOM      4  N   UNL     1      31.773  -4.209  -1.910  0.00  0.00    +0.000 N 
ATOM      5  C   UNL     1      31.357  -3.972  -3.217  0.00  0.00    +0.000 A 
ATOM      6  C   UNL     1      31.685  -2.683  -3.631  0.00  0.00    +0.000 A 
ATOM      7  C   UNL     1      32.365  -2.030  -2.513  0.00  0.00    +0.000 C 
ATOM      8  C   UNL     1      30.702  -4.851  -4.052  0.00  0.00    +0.000 A 
ATOM      9  C   UNL     1      31.382  -2.202  -4.888  0.00  0.00    +0.000 A 
ATOM     10  C   UNL     1      32.399  -3.096  -1.380  0.00  0.00    +0.000 C 
ATOM     11  C   UNL     1      30.387  -4.381  -5.329  0.00  0.00    +0.000 A 
ATOM     12  C   UNL     1      30.718  -3.080  -5.746  0.00  0.00    +0.000 A 
ATOM     13  H   UNL     1      31.649  -5.067  -1.390  0.00  0.00    +0.000 HD
ENDROOT
TORSDOF 0
ENDMDL
MODEL 9
REMARK VINA RESULT:      -3.3     18.126     19.274
REMARK  Name = 95716_6Bromoisatin.pdbqt.pdb
REMARK  0 active torsions:
REMARK  status: ('A' for Active; 'I' for Inactive)
REMARK                            x       y       z     vdW  Elec       q    Type
REMARK                         _______ _______ _______ _____ _____    ______ ____
ROOT
ATOM      1 BR   UNL     1      48.303  13.392  -4.419  0.00  0.00    +0.000 Br
ATOM      2  O   UNL     1      44.978   9.915  -9.479  0.00  0.00    +0.000 OA
ATOM      3  O   UNL     1      44.034   7.926  -7.423  0.00  0.00    +0.000 OA
ATOM      4  N   UNL     1      45.257   9.340  -6.029  0.00  0.00    +0.000 N 
ATOM      5  C   UNL     1      46.004  10.500  -6.215  0.00  0.00    +0.000 A 
ATOM      6  C   UNL     1      46.012  10.894  -7.551  0.00  0.00    +0.000 A 
ATOM      7  C   UNL     1      45.212   9.921  -8.293  0.00  0.00    +0.000 C 
ATOM      8  C   UNL     1      46.676  11.218  -5.249  0.00  0.00    +0.000 A 
ATOM      9  C   UNL     1      46.682  12.014  -7.995  0.00  0.00    +0.000 A 
ATOM     10  C   UNL     1      44.727   8.897  -7.227  0.00  0.00    +0.000 C 
ATOM     11  C   UNL     1      47.360  12.356  -5.681  0.00  0.00    +0.000 A 
ATOM     12  C   UNL     1      47.367  12.753  -7.030  0.00  0.00    +0.000 A 
ATOM     13  H   UNL     1      45.105   8.862  -5.152  0.00  0.00    +0.000 HD
ENDROOT
TORSDOF 0
ENDMDL
