MODEL 1
REMARK VINA RESULT:      -6.2      0.000      0.000
REMARK  Name = 969516_Curcumin.pdbqt.pdb
REMARK  8 active torsions:
REMARK  status: ('A' for Active; 'I' for Inactive)
REMARK    1  A    between atoms: C_3  and  C_5
REMARK    2  A    between atoms: C_4  and  C_6
REMARK    3  A    between atoms: C_8  and  O_12
REMARK    4  A    between atoms: C_10  and  O_14
REMARK    5  A    between atoms: C_17  and  C_19
REMARK    6  A    between atoms: C_18  and  C_20
REMARK    7  A    between atoms: C_22  and  O_26
REMARK    8  A    between atoms: C_24  and  O_28
REMARK                            x       y       z     vdW  Elec       q    Type
REMARK                         _______ _______ _______ _____ _____    ______ ____
ROOT
ATOM      1  C   UNL     1      51.556   2.191   9.361  0.00  0.00    +0.000 C 
ATOM      2  O   UNL     1      51.302   4.048   8.041  0.00  0.00    +0.000 OA
ATOM      3  C   UNL     1      51.427   3.599   9.170  0.00  0.00    +0.000 C 
ATOM      4  O   UNL     1      52.108   0.352  10.612  0.00  0.00    +0.000 OA
ATOM      5  C   UNL     1      51.688   0.786   9.549  0.00  0.00    +0.000 C 
ENDROOT
BRANCH   3   7
ATOM      6  C   UNL     1      51.455   5.214  11.261  0.00  0.00    +0.000 C 
ATOM      7  C   UNL     1      51.442   4.480  10.310  0.00  0.00    +0.000 C 
BRANCH   6   8
ATOM      8  C   UNL     1      51.472   6.086  12.390  0.00  0.00    +0.000 A 
ATOM      9  C   UNL     1      52.642   6.765  12.726  0.00  0.00    +0.000 A 
ATOM     10  C   UNL     1      52.677   7.623  13.829  0.00  0.00    +0.000 A 
ATOM     11  C   UNL     1      50.321   6.257  13.155  0.00  0.00    +0.000 A 
ATOM     12  C   UNL     1      51.515   7.787  14.590  0.00  0.00    +0.000 A 
ATOM     13  C   UNL     1      50.344   7.109  14.255  0.00  0.00    +0.000 A 
BRANCH  10  14
ATOM     14  O   UNL     1      53.790   8.324  14.219  0.00  0.00    +0.000 OA
ATOM     15  C   UNL     1      54.884   8.280  13.346  0.00  0.00    +0.000 C 
ENDBRANCH  10  14
BRANCH  12  16
ATOM     16  O   UNL     1      51.452   8.605  15.685  0.00  0.00    +0.000 OA
ATOM     17  H   UNL     1      50.679   8.386  16.232  0.00  0.00    +0.000 HD
ENDBRANCH  12  16
ENDBRANCH   6   8
ENDBRANCH   3   7
BRANCH   5  19
ATOM     18  C   UNL     1      51.025  -0.868   7.598  0.00  0.00    +0.000 C 
ATOM     19  C   UNL     1      51.325  -0.116   8.486  0.00  0.00    +0.000 C 
BRANCH  18  20
ATOM     20  C   UNL     1      50.672  -1.757   6.540  0.00  0.00    +0.000 A 
ATOM     21  C   UNL     1      50.806  -1.347   5.214  0.00  0.00    +0.000 A 
ATOM     22  C   UNL     1      50.464  -2.208   4.167  0.00  0.00    +0.000 A 
ATOM     23  C   UNL     1      50.196  -3.033   6.833  0.00  0.00    +0.000 A 
ATOM     24  C   UNL     1      49.988  -3.484   4.476  0.00  0.00    +0.000 A 
ATOM     25  C   UNL     1      49.852  -3.899   5.799  0.00  0.00    +0.000 A 
BRANCH  22  26
ATOM     26  O   UNL     1      50.565  -1.884   2.835  0.00  0.00    +0.000 OA
ATOM     27  C   UNL     1      49.904  -0.707   2.447  0.00  0.00    +0.000 C 
ENDBRANCH  22  26
BRANCH  24  28
ATOM     28  O   UNL     1      49.649  -4.341   3.464  0.00  0.00    +0.000 OA
ATOM     29  H   UNL     1      50.444  -4.523   2.929  0.00  0.00    +0.000 HD
ENDBRANCH  24  28
ENDBRANCH  18  20
ENDBRANCH   5  19
TORSDOF 8
ENDMDL
MODEL 2
REMARK VINA RESULT:      -5.8      1.685      2.815
REMARK  Name = 969516_Curcumin.pdbqt.pdb
REMARK  8 active torsions:
REMARK  status: ('A' for Active; 'I' for Inactive)
REMARK    1  A    between atoms: C_3  and  C_5
REMARK    2  A    between atoms: C_4  and  C_6
REMARK    3  A    between atoms: C_8  and  O_12
REMARK    4  A    between atoms: C_10  and  O_14
REMARK    5  A    between atoms: C_17  and  C_19
REMARK    6  A    between atoms: C_18  and  C_20
REMARK    7  A    between atoms: C_22  and  O_26
REMARK    8  A    between atoms: C_24  and  O_28
REMARK                            x       y       z     vdW  Elec       q    Type
REMARK                         _______ _______ _______ _____ _____    ______ ____
ROOT
ATOM      1  C   UNL     1      50.482   1.518   9.603  0.00  0.00    +0.000 C 
ATOM      2  O   UNL     1      50.326   0.663  11.724  0.00  0.00    +0.000 OA
ATOM      3  C   UNL     1      50.559   1.635  11.022  0.00  0.00    +0.000 C 
ATOM      4  O   UNL     1      50.331   2.407   7.496  0.00  0.00    +0.000 OA
ATOM      5  C   UNL     1      50.399   1.400   8.186  0.00  0.00    +0.000 C 
ENDROOT
BRANCH   3   7
ATOM      6  C   UNL     1      51.214   3.951  12.113  0.00  0.00    +0.000 C 
ATOM      7  C   UNL     1      50.916   2.898  11.618  0.00  0.00    +0.000 C 
BRANCH   6   8
ATOM      8  C   UNL     1      51.567   5.203  12.700  0.00  0.00    +0.000 A 
ATOM      9  C   UNL     1      52.909   5.523  12.898  0.00  0.00    +0.000 A 
ATOM     10  C   UNL     1      53.273   6.744  13.472  0.00  0.00    +0.000 A 
ATOM     11  C   UNL     1      50.572   6.101  13.074  0.00  0.00    +0.000 A 
ATOM     12  C   UNL     1      52.265   7.640  13.844  0.00  0.00    +0.000 A 
ATOM     13  C   UNL     1      50.922   7.321  13.646  0.00  0.00    +0.000 A 
BRANCH  10  14
ATOM     14  O   UNL     1      54.572   7.129  13.697  0.00  0.00    +0.000 OA
ATOM     15  C   UNL     1      55.293   7.549  12.573  0.00  0.00    +0.000 C 
ENDBRANCH  10  14
BRANCH  12  16
ATOM     16  O   UNL     1      52.524   8.857  14.411  0.00  0.00    +0.000 OA
ATOM     17  H   UNL     1      52.543   8.786  15.381  0.00  0.00    +0.000 HD
ENDBRANCH  12  16
ENDBRANCH   6   8
ENDBRANCH   3   7
BRANCH   5  19
ATOM     18  C   UNL     1      50.396  -0.991   7.062  0.00  0.00    +0.000 C 
ATOM     19  C   UNL     1      50.398   0.095   7.575  0.00  0.00    +0.000 C 
BRANCH  18  20
ATOM     20  C   UNL     1      50.389  -2.280   6.452  0.00  0.00    +0.000 A 
ATOM     21  C   UNL     1      50.323  -3.424   7.246  0.00  0.00    +0.000 A 
ATOM     22  C   UNL     1      50.315  -4.694   6.662  0.00  0.00    +0.000 A 
ATOM     23  C   UNL     1      50.446  -2.393   5.064  0.00  0.00    +0.000 A 
ATOM     24  C   UNL     1      50.373  -4.793   5.269  0.00  0.00    +0.000 A 
ATOM     25  C   UNL     1      50.439  -3.652   4.471  0.00  0.00    +0.000 A 
BRANCH  22  26
ATOM     26  O   UNL     1      50.252  -5.871   7.369  0.00  0.00    +0.000 OA
ATOM     27  C   UNL     1      51.353  -6.137   8.198  0.00  0.00    +0.000 C 
ENDBRANCH  22  26
BRANCH  24  28
ATOM     28  O   UNL     1      50.365  -6.027   4.679  0.00  0.00    +0.000 OA
ATOM     29  H   UNL     1      51.275  -6.247   4.402  0.00  0.00    +0.000 HD
ENDBRANCH  24  28
ENDBRANCH  18  20
ENDBRANCH   5  19
TORSDOF 8
ENDMDL
MODEL 3
REMARK VINA RESULT:      -5.4     12.009     13.214
REMARK  Name = 969516_Curcumin.pdbqt.pdb
REMARK  8 active torsions:
REMARK  status: ('A' for Active; 'I' for Inactive)
REMARK    1  A    between atoms: C_3  and  C_5
REMARK    2  A    between atoms: C_4  and  C_6
REMARK    3  A    between atoms: C_8  and  O_12
REMARK    4  A    between atoms: C_10  and  O_14
REMARK    5  A    between atoms: C_17  and  C_19
REMARK    6  A    between atoms: C_18  and  C_20
REMARK    7  A    between atoms: C_22  and  O_26
REMARK    8  A    between atoms: C_24  and  O_28
REMARK                            x       y       z     vdW  Elec       q    Type
REMARK                         _______ _______ _______ _____ _____    ______ ____
ROOT
ATOM      1  C   UNL     1      44.014  -0.958  19.401  0.00  0.00    +0.000 C 
ATOM      2  O   UNL     1      44.881  -3.040  19.811  0.00  0.00    +0.000 OA
ATOM      3  C   UNL     1      44.841  -1.861  20.131  0.00  0.00    +0.000 C 
ATOM      4  O   UNL     1      42.901   1.030  19.152  0.00  0.00    +0.000 OA
ATOM      5  C   UNL     1      43.183  -0.058  18.673  0.00  0.00    +0.000 C 
ENDROOT
BRANCH   3   7
ATOM      6  C   UNL     1      46.282  -0.972  22.160  0.00  0.00    +0.000 C 
ATOM      7  C   UNL     1      45.627  -1.377  21.238  0.00  0.00    +0.000 C 
BRANCH   6   8
ATOM      8  C   UNL     1      47.060  -0.490  23.254  0.00  0.00    +0.000 A 
ATOM      9  C   UNL     1      48.449  -0.611  23.226  0.00  0.00    +0.000 A 
ATOM     10  C   UNL     1      49.226  -0.144  24.290  0.00  0.00    +0.000 A 
ATOM     11  C   UNL     1      46.432   0.099  24.348  0.00  0.00    +0.000 A 
ATOM     12  C   UNL     1      48.585   0.446  25.383  0.00  0.00    +0.000 A 
ATOM     13  C   UNL     1      47.196   0.568  25.413  0.00  0.00    +0.000 A 
BRANCH  10  14
ATOM     14  O   UNL     1      50.596  -0.227  24.332  0.00  0.00    +0.000 OA
ATOM     15  C   UNL     1      51.126  -1.448  24.767  0.00  0.00    +0.000 C 
ENDBRANCH  10  14
BRANCH  12  16
ATOM     16  O   UNL     1      49.261   0.932  26.469  0.00  0.00    +0.000 OA
ATOM     17  H   UNL     1      49.346   1.899  26.415  0.00  0.00    +0.000 HD
ENDBRANCH  12  16
ENDBRANCH   6   8
ENDBRANCH   3   7
BRANCH   5  19
ATOM     18  C   UNL     1      42.263  -0.749  16.294  0.00  0.00    +0.000 C 
ATOM     19  C   UNL     1      42.682  -0.437  17.376  0.00  0.00    +0.000 C 
BRANCH  18  20
ATOM     20  C   UNL     1      41.762  -1.116  15.011  0.00  0.00    +0.000 A 
ATOM     21  C   UNL     1      41.918  -2.423  14.552  0.00  0.00    +0.000 A 
ATOM     22  C   UNL     1      41.432  -2.798  13.297  0.00  0.00    +0.000 A 
ATOM     23  C   UNL     1      41.117  -0.169  14.218  0.00  0.00    +0.000 A 
ATOM     24  C   UNL     1      40.787  -1.839  12.513  0.00  0.00    +0.000 A 
ATOM     25  C   UNL     1      40.628  -0.530  12.966  0.00  0.00    +0.000 A 
BRANCH  22  26
ATOM     26  O   UNL     1      41.544  -4.062  12.770  0.00  0.00    +0.000 OA
ATOM     27  C   UNL     1      42.738  -4.739  13.068  0.00  0.00    +0.000 C 
ENDBRANCH  22  26
BRANCH  24  28
ATOM     28  O   UNL     1      40.304  -2.187  11.281  0.00  0.00    +0.000 OA
ATOM     29  H   UNL     1      40.988  -2.699  10.810  0.00  0.00    +0.000 HD
ENDBRANCH  24  28
ENDBRANCH  18  20
ENDBRANCH   5  19
TORSDOF 8
ENDMDL
MODEL 4
REMARK VINA RESULT:      -5.4      3.560     11.211
REMARK  Name = 969516_Curcumin.pdbqt.pdb
REMARK  8 active torsions:
REMARK  status: ('A' for Active; 'I' for Inactive)
REMARK    1  A    between atoms: C_3  and  C_5
REMARK    2  A    between atoms: C_4  and  C_6
REMARK    3  A    between atoms: C_8  and  O_12
REMARK    4  A    between atoms: C_10  and  O_14
REMARK    5  A    between atoms: C_17  and  C_19
REMARK    6  A    between atoms: C_18  and  C_20
REMARK    7  A    between atoms: C_22  and  O_26
REMARK    8  A    between atoms: C_24  and  O_28
REMARK                            x       y       z     vdW  Elec       q    Type
REMARK                         _______ _______ _______ _____ _____    ______ ____
ROOT
ATOM      1  C   UNL     1      51.576   1.658   9.542  0.00  0.00    +0.000 C 
ATOM      2  O   UNL     1      52.912   3.213   8.518  0.00  0.00    +0.000 OA
ATOM      3  C   UNL     1      52.148   2.269   8.388  0.00  0.00    +0.000 C 
ATOM      4  O   UNL     1      50.028   0.324  10.580  0.00  0.00    +0.000 OA
ATOM      5  C   UNL     1      51.003   1.052  10.697  0.00  0.00    +0.000 C 
ENDROOT
BRANCH   3   7
ATOM      6  C   UNL     1      51.552   1.346   5.985  0.00  0.00    +0.000 C 
ATOM      7  C   UNL     1      51.823   1.766   7.077  0.00  0.00    +0.000 C 
BRANCH   6   8
ATOM      8  C   UNL     1      51.228   0.847   4.688  0.00  0.00    +0.000 A 
ATOM      9  C   UNL     1      50.569  -0.375   4.558  0.00  0.00    +0.000 A 
ATOM     10  C   UNL     1      50.245  -0.879   3.296  0.00  0.00    +0.000 A 
ATOM     11  C   UNL     1      51.570   1.580   3.555  0.00  0.00    +0.000 A 
ATOM     12  C   UNL     1      50.593  -0.134   2.164  0.00  0.00    +0.000 A 
ATOM     13  C   UNL     1      51.251   1.089   2.292  0.00  0.00    +0.000 A 
BRANCH  10  14
ATOM     14  O   UNL     1      49.597  -2.071   3.090  0.00  0.00    +0.000 OA
ATOM     15  C   UNL     1      49.863  -3.084   4.019  0.00  0.00    +0.000 C 
ENDBRANCH  10  14
BRANCH  12  16
ATOM     16  O   UNL     1      50.317  -0.544   0.889  0.00  0.00    +0.000 OA
ATOM     17  H   UNL     1      49.442  -0.227   0.608  0.00  0.00    +0.000 HD
ENDBRANCH  12  16
ENDBRANCH   6   8
ENDBRANCH   3   7
BRANCH   5  19
ATOM     18  C   UNL     1      52.058   1.500  13.078  0.00  0.00    +0.000 C 
ATOM     19  C   UNL     1      51.578   1.298  11.995  0.00  0.00    +0.000 C 
BRANCH  18  20
ATOM     20  C   UNL     1      52.626   1.735  14.365  0.00  0.00    +0.000 A 
ATOM     21  C   UNL     1      53.382   2.885  14.590  0.00  0.00    +0.000 A 
ATOM     22  C   UNL     1      53.943   3.130  15.847  0.00  0.00    +0.000 A 
ATOM     23  C   UNL     1      52.423   0.818  15.394  0.00  0.00    +0.000 A 
ATOM     24  C   UNL     1      53.732   2.202  16.869  0.00  0.00    +0.000 A 
ATOM     25  C   UNL     1      52.978   1.051  16.648  0.00  0.00    +0.000 A 
BRANCH  22  26
ATOM     26  O   UNL     1      54.701   4.235  16.154  0.00  0.00    +0.000 OA
ATOM     27  C   UNL     1      54.086   5.474  15.915  0.00  0.00    +0.000 C 
ENDBRANCH  22  26
BRANCH  24  28
ATOM     28  O   UNL     1      54.274   2.424  18.105  0.00  0.00    +0.000 OA
ATOM     29  H   UNL     1      53.555   2.650  18.725  0.00  0.00    +0.000 HD
ENDBRANCH  24  28
ENDBRANCH  18  20
ENDBRANCH   5  19
TORSDOF 8
ENDMDL
MODEL 5
REMARK VINA RESULT:      -5.3     15.853     18.581
REMARK  Name = 969516_Curcumin.pdbqt.pdb
REMARK  8 active torsions:
REMARK  status: ('A' for Active; 'I' for Inactive)
REMARK    1  A    between atoms: C_3  and  C_5
REMARK    2  A    between atoms: C_4  and  C_6
REMARK    3  A    between atoms: C_8  and  O_12
REMARK    4  A    between atoms: C_10  and  O_14
REMARK    5  A    between atoms: C_17  and  C_19
REMARK    6  A    between atoms: C_18  and  C_20
REMARK    7  A    between atoms: C_22  and  O_26
REMARK    8  A    between atoms: C_24  and  O_28
REMARK                            x       y       z     vdW  Elec       q    Type
REMARK                         _______ _______ _______ _____ _____    ______ ____
ROOT
ATOM      1  C   UNL     1      50.114  19.058  15.984  0.00  0.00    +0.000 C 
ATOM      2  O   UNL     1      48.654  20.811  16.208  0.00  0.00    +0.000 OA
ATOM      3  C   UNL     1      49.279  19.916  16.758  0.00  0.00    +0.000 C 
ATOM      4  O   UNL     1      51.796  17.517  15.764  0.00  0.00    +0.000 OA
ATOM      5  C   UNL     1      50.951  18.204  15.209  0.00  0.00    +0.000 C 
ENDROOT
BRANCH   3   7
ATOM      6  C   UNL     1      49.088  19.557  19.369  0.00  0.00    +0.000 C 
ATOM      7  C   UNL     1      49.174  19.719  18.182  0.00  0.00    +0.000 C 
BRANCH   6   8
ATOM      8  C   UNL     1      48.984  19.365  20.779  0.00  0.00    +0.000 A 
ATOM      9  C   UNL     1      49.602  20.262  21.649  0.00  0.00    +0.000 A 
ATOM     10  C   UNL     1      49.511  20.089  23.033  0.00  0.00    +0.000 A 
ATOM     11  C   UNL     1      48.267  18.284  21.283  0.00  0.00    +0.000 A 
ATOM     12  C   UNL     1      48.788  18.999  23.529  0.00  0.00    +0.000 A 
ATOM     13  C   UNL     1      48.169  18.102  22.659  0.00  0.00    +0.000 A 
BRANCH  10  14
ATOM     14  O   UNL     1      50.091  20.929  23.950  0.00  0.00    +0.000 OA
ATOM     15  C   UNL     1      51.319  21.491  23.580  0.00  0.00    +0.000 C 
ENDBRANCH  10  14
BRANCH  12  16
ATOM     16  O   UNL     1      48.643  18.748  24.865  0.00  0.00    +0.000 OA
ATOM     17  H   UNL     1      48.180  19.482  25.304  0.00  0.00    +0.000 HD
ENDBRANCH  12  16
ENDBRANCH   6   8
ENDBRANCH   3   7
BRANCH   5  19
ATOM     18  C   UNL     1      50.662  18.112  12.585  0.00  0.00    +0.000 C 
ATOM     19  C   UNL     1      50.795  18.156  13.778  0.00  0.00    +0.000 C 
BRANCH  18  20
ATOM     20  C   UNL     1      50.506  18.054  11.168  0.00  0.00    +0.000 A 
ATOM     21  C   UNL     1      51.159  18.984  10.360  0.00  0.00    +0.000 A 
ATOM     22  C   UNL     1      51.016  18.940   8.970  0.00  0.00    +0.000 A 
ATOM     23  C   UNL     1      49.703  17.070  10.595  0.00  0.00    +0.000 A 
ATOM     24  C   UNL     1      50.208  17.948   8.409  0.00  0.00    +0.000 A 
ATOM     25  C   UNL     1      49.553  17.017   9.213  0.00  0.00    +0.000 A 
BRANCH  22  26
ATOM     26  O   UNL     1      51.622  19.815   8.102  0.00  0.00    +0.000 OA
ATOM     27  C   UNL     1      52.634  20.615   8.657  0.00  0.00    +0.000 C 
ENDBRANCH  22  26
BRANCH  24  28
ATOM     28  O   UNL     1      50.056  17.889   7.051  0.00  0.00    +0.000 OA
ATOM     29  H   UNL     1      50.712  17.264   6.689  0.00  0.00    +0.000 HD
ENDBRANCH  24  28
ENDBRANCH  18  20
ENDBRANCH   5  19
TORSDOF 8
ENDMDL
MODEL 6
REMARK VINA RESULT:      -5.3     12.191     16.632
REMARK  Name = 969516_Curcumin.pdbqt.pdb
REMARK  8 active torsions:
REMARK  status: ('A' for Active; 'I' for Inactive)
REMARK    1  A    between atoms: C_3  and  C_5
REMARK    2  A    between atoms: C_4  and  C_6
REMARK    3  A    between atoms: C_8  and  O_12
REMARK    4  A    between atoms: C_10  and  O_14
REMARK    5  A    between atoms: C_17  and  C_19
REMARK    6  A    between atoms: C_18  and  C_20
REMARK    7  A    between atoms: C_22  and  O_26
REMARK    8  A    between atoms: C_24  and  O_28
REMARK                            x       y       z     vdW  Elec       q    Type
REMARK                         _______ _______ _______ _____ _____    ______ ____
ROOT
ATOM      1  C   UNL     1      43.804  -0.394  20.180  0.00  0.00    +0.000 C 
ATOM      2  O   UNL     1      42.151   1.121  20.653  0.00  0.00    +0.000 OA
ATOM      3  C   UNL     1      42.681   0.406  19.816  0.00  0.00    +0.000 C 
ATOM      4  O   UNL     1      45.268  -2.121  19.826  0.00  0.00    +0.000 OA
ATOM      5  C   UNL     1      44.923  -1.197  20.546  0.00  0.00    +0.000 C 
ENDROOT
BRANCH   3   7
ATOM      6  C   UNL     1      41.768   0.340  17.338  0.00  0.00    +0.000 C 
ATOM      7  C   UNL     1      42.184   0.369  18.464  0.00  0.00    +0.000 C 
BRANCH   6   8
ATOM      8  C   UNL     1      41.274   0.306  16.000  0.00  0.00    +0.000 A 
ATOM      9  C   UNL     1      41.994  -0.364  15.011  0.00  0.00    +0.000 A 
ATOM     10  C   UNL     1      41.525  -0.407  13.694  0.00  0.00    +0.000 A 
ATOM     11  C   UNL     1      40.077   0.941  15.683  0.00  0.00    +0.000 A 
ATOM     12  C   UNL     1      40.321   0.234  13.388  0.00  0.00    +0.000 A 
ATOM     13  C   UNL     1      39.600   0.904  14.376  0.00  0.00    +0.000 A 
BRANCH  10  14
ATOM     14  O   UNL     1      42.177  -1.046  12.669  0.00  0.00    +0.000 OA
ATOM     15  C   UNL     1      42.114  -2.445  12.677  0.00  0.00    +0.000 C 
ENDBRANCH  10  14
BRANCH  12  16
ATOM     16  O   UNL     1      39.783   0.246  12.130  0.00  0.00    +0.000 OA
ATOM     17  H   UNL     1      40.269   0.863  11.556  0.00  0.00    +0.000 HD
ENDBRANCH  12  16
ENDBRANCH   6   8
ENDBRANCH   3   7
BRANCH   5  19
ATOM     18  C   UNL     1      46.238  -0.670  22.776  0.00  0.00    +0.000 C 
ATOM     19  C   UNL     1      45.640  -0.911  21.763  0.00  0.00    +0.000 C 
BRANCH  18  20
ATOM     20  C   UNL     1      46.951  -0.380  23.977  0.00  0.00    +0.000 A 
ATOM     21  C   UNL     1      48.280   0.037  23.912  0.00  0.00    +0.000 A 
ATOM     22  C   UNL     1      48.991   0.326  25.080  0.00  0.00    +0.000 A 
ATOM     23  C   UNL     1      46.319  -0.512  25.212  0.00  0.00    +0.000 A 
ATOM     24  C   UNL     1      48.345   0.189  26.311  0.00  0.00    +0.000 A 
ATOM     25  C   UNL     1      47.017  -0.228  26.381  0.00  0.00    +0.000 A 
BRANCH  22  26
ATOM     26  O   UNL     1      50.301   0.741  25.106  0.00  0.00    +0.000 OA
ATOM     27  C   UNL     1      51.259  -0.267  24.915  0.00  0.00    +0.000 C 
ENDBRANCH  22  26
BRANCH  24  28
ATOM     28  O   UNL     1      49.025   0.467  27.465  0.00  0.00    +0.000 OA
ATOM     29  H   UNL     1      48.514   0.118  28.220  0.00  0.00    +0.000 HD
ENDBRANCH  24  28
ENDBRANCH  18  20
ENDBRANCH   5  19
TORSDOF 8
ENDMDL
MODEL 7
REMARK VINA RESULT:      -5.1     15.689     20.975
REMARK  Name = 969516_Curcumin.pdbqt.pdb
REMARK  8 active torsions:
REMARK  status: ('A' for Active; 'I' for Inactive)
REMARK    1  A    between atoms: C_3  and  C_5
REMARK    2  A    between atoms: C_4  and  C_6
REMARK    3  A    between atoms: C_8  and  O_12
REMARK    4  A    between atoms: C_10  and  O_14
REMARK    5  A    between atoms: C_17  and  C_19
REMARK    6  A    between atoms: C_18  and  C_20
REMARK    7  A    between atoms: C_22  and  O_26
REMARK    8  A    between atoms: C_24  and  O_28
REMARK                            x       y       z     vdW  Elec       q    Type
REMARK                         _______ _______ _______ _____ _____    ______ ____
ROOT
ATOM      1  C   UNL     1      50.231  19.035  15.916  0.00  0.00    +0.000 C 
ATOM      2  O   UNL     1      51.920  17.503  15.683  0.00  0.00    +0.000 OA
ATOM      3  C   UNL     1      51.049  18.164  15.138  0.00  0.00    +0.000 C 
ATOM      4  O   UNL     1      48.763  20.780  16.144  0.00  0.00    +0.000 OA
ATOM      5  C   UNL     1      49.418  19.907  16.695  0.00  0.00    +0.000 C 
ENDROOT
BRANCH   3   7
ATOM      6  C   UNL     1      50.667  17.986  12.529  0.00  0.00    +0.000 C 
ATOM      7  C   UNL     1      50.840  18.066  13.715  0.00  0.00    +0.000 C 
BRANCH   6   8
ATOM      8  C   UNL     1      50.462  17.890  11.121  0.00  0.00    +0.000 A 
ATOM      9  C   UNL     1      51.127  18.763  10.261  0.00  0.00    +0.000 A 
ATOM     10  C   UNL     1      50.939  18.683   8.878  0.00  0.00    +0.000 A 
ATOM     11  C   UNL     1      49.600  16.926  10.607  0.00  0.00    +0.000 A 
ATOM     12  C   UNL     1      50.070  17.710   8.373  0.00  0.00    +0.000 A 
ATOM     13  C   UNL     1      49.404  16.836   9.232  0.00  0.00    +0.000 A 
BRANCH  10  14
ATOM     14  O   UNL     1      51.559  19.506   7.971  0.00  0.00    +0.000 OA
ATOM     15  C   UNL     1      52.746  20.111   8.401  0.00  0.00    +0.000 C 
ENDBRANCH  10  14
BRANCH  12  16
ATOM     16  O   UNL     1      49.823  17.556   7.037  0.00  0.00    +0.000 OA
ATOM     17  H   UNL     1      48.989  17.990   6.790  0.00  0.00    +0.000 HD
ENDBRANCH  12  16
ENDBRANCH   6   8
ENDBRANCH   3   7
BRANCH   5  19
ATOM     18  C   UNL     1      49.328  19.628  19.321  0.00  0.00    +0.000 C 
ATOM     19  C   UNL     1      49.371  19.754  18.127  0.00  0.00    +0.000 C 
BRANCH  18  20
ATOM     20  C   UNL     1      49.276  19.484  20.739  0.00  0.00    +0.000 A 
ATOM     21  C   UNL     1      50.286  20.028  21.530  0.00  0.00    +0.000 A 
ATOM     22  C   UNL     1      50.248  19.895  22.921  0.00  0.00    +0.000 A 
ATOM     23  C   UNL     1      48.215  18.800  21.330  0.00  0.00    +0.000 A 
ATOM     24  C   UNL     1      49.180  19.208  23.500  0.00  0.00    +0.000 A 
ATOM     25  C   UNL     1      48.167  18.661  22.714  0.00  0.00    +0.000 A 
BRANCH  22  26
ATOM     26  O   UNL     1      51.201  20.400  23.772  0.00  0.00    +0.000 OA
ATOM     27  C   UNL     1      52.084  21.334  23.208  0.00  0.00    +0.000 C 
ENDBRANCH  22  26
BRANCH  24  28
ATOM     28  O   UNL     1      49.125  19.067  24.860  0.00  0.00    +0.000 OA
ATOM     29  H   UNL     1      48.585  19.792  25.228  0.00  0.00    +0.000 HD
ENDBRANCH  24  28
ENDBRANCH  18  20
ENDBRANCH   5  19
TORSDOF 8
ENDMDL
MODEL 8
REMARK VINA RESULT:      -5.1     12.687     14.419
REMARK  Name = 969516_Curcumin.pdbqt.pdb
REMARK  8 active torsions:
REMARK  status: ('A' for Active; 'I' for Inactive)
REMARK    1  A    between atoms: C_3  and  C_5
REMARK    2  A    between atoms: C_4  and  C_6
REMARK    3  A    between atoms: C_8  and  O_12
REMARK    4  A    between atoms: C_10  and  O_14
REMARK    5  A    between atoms: C_17  and  C_19
REMARK    6  A    between atoms: C_18  and  C_20
REMARK    7  A    between atoms: C_22  and  O_26
REMARK    8  A    between atoms: C_24  and  O_28
REMARK                            x       y       z     vdW  Elec       q    Type
REMARK                         _______ _______ _______ _____ _____    ______ ____
ROOT
ATOM      1  C   UNL     1      45.699  -4.952  17.783  0.00  0.00    +0.000 C 
ATOM      2  O   UNL     1      44.300  -6.356  18.934  0.00  0.00    +0.000 OA
ATOM      3  C   UNL     1      45.444  -5.968  18.751  0.00  0.00    +0.000 C 
ATOM      4  O   UNL     1      47.015  -3.332  16.836  0.00  0.00    +0.000 OA
ATOM      5  C   UNL     1      45.951  -3.934  16.819  0.00  0.00    +0.000 C 
ENDROOT
BRANCH   3   7
ATOM      6  C   UNL     1      47.447  -6.999  20.132  0.00  0.00    +0.000 C 
ATOM      7  C   UNL     1      46.536  -6.530  19.503  0.00  0.00    +0.000 C 
BRANCH   6   8
ATOM      8  C   UNL     1      48.527  -7.556  20.879  0.00  0.00    +0.000 A 
ATOM      9  C   UNL     1      49.246  -6.755  21.764  0.00  0.00    +0.000 A 
ATOM     10  C   UNL     1      50.307  -7.284  22.504  0.00  0.00    +0.000 A 
ATOM     11  C   UNL     1      48.861  -8.899  20.723  0.00  0.00    +0.000 A 
ATOM     12  C   UNL     1      50.634  -8.634  22.340  0.00  0.00    +0.000 A 
ATOM     13  C   UNL     1      49.915  -9.438  21.455  0.00  0.00    +0.000 A 
BRANCH  10  14
ATOM     14  O   UNL     1      51.059  -6.558  23.394  0.00  0.00    +0.000 OA
ATOM     15  C   UNL     1      51.985  -5.669  22.835  0.00  0.00    +0.000 C 
ENDBRANCH  10  14
BRANCH  12  16
ATOM     16  O   UNL     1      51.654  -9.241  23.019  0.00  0.00    +0.000 OA
ATOM     17  H   UNL     1      51.587  -9.059  23.972  0.00  0.00    +0.000 HD
ENDBRANCH  12  16
ENDBRANCH   6   8
ENDBRANCH   3   7
BRANCH   5  19
ATOM     18  C   UNL     1      44.120  -3.359  15.003  0.00  0.00    +0.000 C 
ATOM     19  C   UNL     1      44.952  -3.623  15.829  0.00  0.00    +0.000 C 
BRANCH  18  20
ATOM     20  C   UNL     1      43.131  -3.042  14.026  0.00  0.00    +0.000 A 
ATOM     21  C   UNL     1      42.680  -1.729  13.895  0.00  0.00    +0.000 A 
ATOM     22  C   UNL     1      41.712  -1.403  12.941  0.00  0.00    +0.000 A 
ATOM     23  C   UNL     1      42.619  -4.043  13.203  0.00  0.00    +0.000 A 
ATOM     24  C   UNL     1      41.207  -2.417  12.123  0.00  0.00    +0.000 A 
ATOM     25  C   UNL     1      41.655  -3.731  12.250  0.00  0.00    +0.000 A 
BRANCH  22  26
ATOM     26  O   UNL     1      41.212  -0.138  12.747  0.00  0.00    +0.000 OA
ATOM     27  C   UNL     1      40.206   0.260  13.642  0.00  0.00    +0.000 C 
ENDBRANCH  22  26
BRANCH  24  28
ATOM     28  O   UNL     1      40.259  -2.117  11.184  0.00  0.00    +0.000 OA
ATOM     29  H   UNL     1      40.486  -2.574  10.353  0.00  0.00    +0.000 HD
ENDBRANCH  24  28
ENDBRANCH  18  20
ENDBRANCH   5  19
TORSDOF 8
ENDMDL
MODEL 9
REMARK VINA RESULT:      -4.9     25.015     27.753
REMARK  Name = 969516_Curcumin.pdbqt.pdb
REMARK  8 active torsions:
REMARK  status: ('A' for Active; 'I' for Inactive)
REMARK    1  A    between atoms: C_3  and  C_5
REMARK    2  A    between atoms: C_4  and  C_6
REMARK    3  A    between atoms: C_8  and  O_12
REMARK    4  A    between atoms: C_10  and  O_14
REMARK    5  A    between atoms: C_17  and  C_19
REMARK    6  A    between atoms: C_18  and  C_20
REMARK    7  A    between atoms: C_22  and  O_26
REMARK    8  A    between atoms: C_24  and  O_28
REMARK                            x       y       z     vdW  Elec       q    Type
REMARK                         _______ _______ _______ _____ _____    ______ ____
ROOT
ATOM      1  C   UNL     1      28.171  10.070   3.093  0.00  0.00    +0.000 C 
ATOM      2  O   UNL     1      27.751   9.504   5.273  0.00  0.00    +0.000 OA
ATOM      3  C   UNL     1      27.518   9.292   4.093  0.00  0.00    +0.000 C 
ATOM      4  O   UNL     1      28.841  10.460   0.936  0.00  0.00    +0.000 OA
ATOM      5  C   UNL     1      28.828  10.847   2.095  0.00  0.00    +0.000 C 
ENDROOT
BRANCH   3   7
ATOM      6  C   UNL     1      25.809   7.407   3.380  0.00  0.00    +0.000 C 
ATOM      7  C   UNL     1      26.586   8.264   3.705  0.00  0.00    +0.000 C 
BRANCH   6   8
ATOM      8  C   UNL     1      24.885   6.391   2.993  0.00  0.00    +0.000 A 
ATOM      9  C   UNL     1      24.239   5.632   3.968  0.00  0.00    +0.000 A 
ATOM     10  C   UNL     1      23.331   4.632   3.606  0.00  0.00    +0.000 A 
ATOM     11  C   UNL     1      24.632   6.157   1.644  0.00  0.00    +0.000 A 
ATOM     12  C   UNL     1      23.084   4.407   2.248  0.00  0.00    +0.000 A 
ATOM     13  C   UNL     1      23.730   5.165   1.272  0.00  0.00    +0.000 A 
BRANCH  10  14
ATOM     14  O   UNL     1      22.657   3.847   4.508  0.00  0.00    +0.000 OA
ATOM     15  C   UNL     1      21.589   4.458   5.177  0.00  0.00    +0.000 C 
ENDBRANCH  10  14
BRANCH  12  16
ATOM     16  O   UNL     1      22.214   3.452   1.799  0.00  0.00    +0.000 OA
ATOM     17  H   UNL     1      21.445   3.385   2.389  0.00  0.00    +0.000 HD
ENDBRANCH  12  16
ENDBRANCH   6   8
ENDBRANCH   3   7
BRANCH   5  19
ATOM     18  C   UNL     1      30.008  13.116   2.758  0.00  0.00    +0.000 C 
ATOM     19  C   UNL     1      29.471  12.084   2.459  0.00  0.00    +0.000 C 
BRANCH  18  20
ATOM     20  C   UNL     1      30.650  14.340   3.111  0.00  0.00    +0.000 A 
ATOM     21  C   UNL     1      31.992  14.537   2.790  0.00  0.00    +0.000 A 
ATOM     22  C   UNL     1      32.634  15.732   3.129  0.00  0.00    +0.000 A 
ATOM     23  C   UNL     1      29.935  15.335   3.774  0.00  0.00    +0.000 A 
ATOM     24  C   UNL     1      31.906  16.721   3.794  0.00  0.00    +0.000 A 
ATOM     25  C   UNL     1      30.564  16.528   4.117  0.00  0.00    +0.000 A 
BRANCH  22  26
ATOM     26  O   UNL     1      33.952  16.007   2.852  0.00  0.00    +0.000 OA
ATOM     27  C   UNL     1      34.206  16.520   1.570  0.00  0.00    +0.000 C 
ENDBRANCH  22  26
BRANCH  24  28
ATOM     28  O   UNL     1      32.517  17.896   4.134  0.00  0.00    +0.000 OA
ATOM     29  H   UNL     1      33.459  17.843   3.884  0.00  0.00    +0.000 HD
ENDBRANCH  24  28
ENDBRANCH  18  20
ENDBRANCH   5  19
TORSDOF 8
ENDMDL
