MODEL 1
REMARK VINA RESULT:      -3.0      0.000      0.000
REMARK  Name = 971_OxalicAcid.pdbqt.pdb
REMARK  3 active torsions:
REMARK  status: ('A' for Active; 'I' for Inactive)
REMARK    1  A    between atoms: C_2  and  O_3
REMARK    2  A    between atoms: C_2  and  C_6
REMARK    3  A    between atoms: C_6  and  O_7
REMARK                            x       y       z     vdW  Elec       q    Type
REMARK                         _______ _______ _______ _____ _____    ______ ____
ROOT
ATOM      1  O   UNL     1      30.757  -2.044   9.119  0.00  0.00    +0.000 OA
ATOM      2  C   UNL     1      29.767  -1.375   8.896  0.00  0.00    +0.000 C 
ENDROOT
BRANCH   2   3
ATOM      3  O   UNL     1      29.777  -0.366   8.013  0.00  0.00    +0.000 OA
ATOM      4  H   UNL     1      29.147   0.286   8.380  0.00  0.00    +0.000 HD
ENDBRANCH   2   3
BRANCH   2   6
ATOM      5  O   UNL     1      27.366  -1.951   9.008  0.00  0.00    +0.000 OA
ATOM      6  C   UNL     1      28.374  -1.570   9.571  0.00  0.00    +0.000 C 
BRANCH   6   7
ATOM      7  O   UNL     1      28.386  -1.268  10.877  0.00  0.00    +0.000 OA
ATOM      8  H   UNL     1      27.493  -1.513  11.193  0.00  0.00    +0.000 HD
ENDBRANCH   6   7
ENDBRANCH   2   6
TORSDOF 3
ENDMDL
MODEL 2
REMARK VINA RESULT:      -2.9      8.027      9.221
REMARK  Name = 971_OxalicAcid.pdbqt.pdb
REMARK  3 active torsions:
REMARK  status: ('A' for Active; 'I' for Inactive)
REMARK    1  A    between atoms: C_2  and  O_3
REMARK    2  A    between atoms: C_2  and  C_6
REMARK    3  A    between atoms: C_6  and  O_7
REMARK                            x       y       z     vdW  Elec       q    Type
REMARK                         _______ _______ _______ _____ _____    ______ ____
ROOT
ATOM      1  O   UNL     1      27.390   1.198  17.365  0.00  0.00    +0.000 OA
ATOM      2  C   UNL     1      27.825   2.171  16.780  0.00  0.00    +0.000 C 
ENDROOT
BRANCH   2   3
ATOM      3  O   UNL     1      28.307   2.091  15.532  0.00  0.00    +0.000 OA
ATOM      4  H   UNL     1      28.080   2.952  15.126  0.00  0.00    +0.000 HD
ENDBRANCH   2   3
BRANCH   2   6
ATOM      5  O   UNL     1      27.561   3.942  18.483  0.00  0.00    +0.000 OA
ATOM      6  C   UNL     1      27.893   3.618  17.360  0.00  0.00    +0.000 C 
BRANCH   6   7
ATOM      7  O   UNL     1      28.369   4.506  16.477  0.00  0.00    +0.000 OA
ATOM      8  H   UNL     1      29.254   4.164  16.237  0.00  0.00    +0.000 HD
ENDBRANCH   6   7
ENDBRANCH   2   6
TORSDOF 3
ENDMDL
MODEL 3
REMARK VINA RESULT:      -2.8     13.194     13.832
REMARK  Name = 971_OxalicAcid.pdbqt.pdb
REMARK  3 active torsions:
REMARK  status: ('A' for Active; 'I' for Inactive)
REMARK    1  A    between atoms: C_2  and  O_3
REMARK    2  A    between atoms: C_2  and  C_6
REMARK    3  A    between atoms: C_6  and  O_7
REMARK                            x       y       z     vdW  Elec       q    Type
REMARK                         _______ _______ _______ _____ _____    ______ ____
ROOT
ATOM      1  O   UNL     1      39.451   1.855  18.528  0.00  0.00    +0.000 OA
ATOM      2  C   UNL     1      39.253   2.437  17.479  0.00  0.00    +0.000 C 
ENDROOT
BRANCH   2   3
ATOM      3  O   UNL     1      38.182   3.221  17.295  0.00  0.00    +0.000 OA
ATOM      4  H   UNL     1      37.865   3.418  18.199  0.00  0.00    +0.000 HD
ENDBRANCH   2   3
BRANCH   2   6
ATOM      5  O   UNL     1      41.246   1.803  16.164  0.00  0.00    +0.000 OA
ATOM      6  C   UNL     1      40.174   2.371  16.221  0.00  0.00    +0.000 C 
BRANCH   6   7
ATOM      7  O   UNL     1      39.658   3.021  15.169  0.00  0.00    +0.000 OA
ATOM      8  H   UNL     1      38.732   2.708  15.117  0.00  0.00    +0.000 HD
ENDBRANCH   6   7
ENDBRANCH   2   6
TORSDOF 3
ENDMDL
MODEL 4
REMARK VINA RESULT:      -2.7     25.145     25.726
REMARK  Name = 971_OxalicAcid.pdbqt.pdb
REMARK  3 active torsions:
REMARK  status: ('A' for Active; 'I' for Inactive)
REMARK    1  A    between atoms: C_2  and  O_3
REMARK    2  A    between atoms: C_2  and  C_6
REMARK    3  A    between atoms: C_6  and  O_7
REMARK                            x       y       z     vdW  Elec       q    Type
REMARK                         _______ _______ _______ _____ _____    ______ ____
ROOT
ATOM      1  O   UNL     1      47.515   9.962  -2.921  0.00  0.00    +0.000 OA
ATOM      2  C   UNL     1      47.547  10.788  -3.813  0.00  0.00    +0.000 C 
ENDROOT
BRANCH   2   3
ATOM      3  O   UNL     1      48.631  11.543  -4.041  0.00  0.00    +0.000 OA
ATOM      4  H   UNL     1      48.323  12.461  -3.904  0.00  0.00    +0.000 HD
ENDBRANCH   2   3
BRANCH   2   6
ATOM      5  O   UNL     1      45.850  12.181  -4.947  0.00  0.00    +0.000 OA
ATOM      6  C   UNL     1      46.379  11.097  -4.800  0.00  0.00    +0.000 C 
BRANCH   6   7
ATOM      7  O   UNL     1      45.995  10.020  -5.500  0.00  0.00    +0.000 OA
ATOM      8  H   UNL     1      45.652  10.384  -6.340  0.00  0.00    +0.000 HD
ENDBRANCH   6   7
ENDBRANCH   2   6
TORSDOF 3
ENDMDL
MODEL 5
REMARK VINA RESULT:      -2.7     21.159     22.444
REMARK  Name = 971_OxalicAcid.pdbqt.pdb
REMARK  3 active torsions:
REMARK  status: ('A' for Active; 'I' for Inactive)
REMARK    1  A    between atoms: C_2  and  O_3
REMARK    2  A    between atoms: C_2  and  C_6
REMARK    3  A    between atoms: C_6  and  O_7
REMARK                            x       y       z     vdW  Elec       q    Type
REMARK                         _______ _______ _______ _____ _____    ______ ____
ROOT
ATOM      1  O   UNL     1      40.635   1.910  -9.229  0.00  0.00    +0.000 OA
ATOM      2  C   UNL     1      41.498   1.599  -8.431  0.00  0.00    +0.000 C 
ENDROOT
BRANCH   2   3
ATOM      3  O   UNL     1      41.245   0.792  -7.392  0.00  0.00    +0.000 OA
ATOM      4  H   UNL     1      42.080   0.778  -6.883  0.00  0.00    +0.000 HD
ENDBRANCH   2   3
BRANCH   2   6
ATOM      5  O   UNL     1      43.936   1.364  -8.757  0.00  0.00    +0.000 OA
ATOM      6  C   UNL     1      42.985   2.068  -8.481  0.00  0.00    +0.000 C 
BRANCH   6   7
ATOM      7  O   UNL     1      43.128   3.366  -8.180  0.00  0.00    +0.000 OA
ATOM      8  H   UNL     1      43.002   3.409  -7.211  0.00  0.00    +0.000 HD
ENDBRANCH   6   7
ENDBRANCH   2   6
TORSDOF 3
ENDMDL
MODEL 6
REMARK VINA RESULT:      -2.6     11.837     12.250
REMARK  Name = 971_OxalicAcid.pdbqt.pdb
REMARK  3 active torsions:
REMARK  status: ('A' for Active; 'I' for Inactive)
REMARK    1  A    between atoms: C_2  and  O_3
REMARK    2  A    between atoms: C_2  and  C_6
REMARK    3  A    between atoms: C_6  and  O_7
REMARK                            x       y       z     vdW  Elec       q    Type
REMARK                         _______ _______ _______ _____ _____    ______ ____
ROOT
ATOM      1  O   UNL     1      32.128  -4.788  -2.399  0.00  0.00    +0.000 OA
ATOM      2  C   UNL     1      32.312  -3.589  -2.334  0.00  0.00    +0.000 C 
ENDROOT
BRANCH   2   3
ATOM      3  O   UNL     1      31.440  -2.709  -2.847  0.00  0.00    +0.000 OA
ATOM      4  H   UNL     1      30.647  -3.243  -3.055  0.00  0.00    +0.000 HD
ENDBRANCH   2   3
BRANCH   2   6
ATOM      5  O   UNL     1      34.537  -3.469  -1.266  0.00  0.00    +0.000 OA
ATOM      6  C   UNL     1      33.544  -2.898  -1.670  0.00  0.00    +0.000 C 
BRANCH   6   7
ATOM      7  O   UNL     1      33.405  -1.568  -1.582  0.00  0.00    +0.000 OA
ATOM      8  H   UNL     1      33.079  -1.416  -0.672  0.00  0.00    +0.000 HD
ENDBRANCH   6   7
ENDBRANCH   2   6
TORSDOF 3
ENDMDL
MODEL 7
REMARK VINA RESULT:      -2.6     25.287     26.078
REMARK  Name = 971_OxalicAcid.pdbqt.pdb
REMARK  3 active torsions:
REMARK  status: ('A' for Active; 'I' for Inactive)
REMARK    1  A    between atoms: C_2  and  O_3
REMARK    2  A    between atoms: C_2  and  C_6
REMARK    3  A    between atoms: C_6  and  O_7
REMARK                            x       y       z     vdW  Elec       q    Type
REMARK                         _______ _______ _______ _____ _____    ______ ____
ROOT
ATOM      1  O   UNL     1      46.528  12.699  -6.824  0.00  0.00    +0.000 OA
ATOM      2  C   UNL     1      45.867  12.265  -5.902  0.00  0.00    +0.000 C 
ENDROOT
BRANCH   2   3
ATOM      3  O   UNL     1      44.618  12.690  -5.664  0.00  0.00    +0.000 OA
ATOM      4  H   UNL     1      44.212  12.766  -6.551  0.00  0.00    +0.000 HD
ENDBRANCH   2   3
BRANCH   2   6
ATOM      5  O   UNL     1      46.932  11.410  -3.843  0.00  0.00    +0.000 OA
ATOM      6  C   UNL     1      46.340  11.186  -4.880  0.00  0.00    +0.000 C 
BRANCH   6   7
ATOM      7  O   UNL     1      46.023   9.940  -5.261  0.00  0.00    +0.000 OA
ATOM      8  H   UNL     1      45.169   9.759  -4.821  0.00  0.00    +0.000 HD
ENDBRANCH   6   7
ENDBRANCH   2   6
TORSDOF 3
ENDMDL
MODEL 8
REMARK VINA RESULT:      -2.5     19.832     20.367
REMARK  Name = 971_OxalicAcid.pdbqt.pdb
REMARK  3 active torsions:
REMARK  status: ('A' for Active; 'I' for Inactive)
REMARK    1  A    between atoms: C_2  and  O_3
REMARK    2  A    between atoms: C_2  and  C_6
REMARK    3  A    between atoms: C_6  and  O_7
REMARK                            x       y       z     vdW  Elec       q    Type
REMARK                         _______ _______ _______ _____ _____    ______ ____
ROOT
ATOM      1  O   UNL     1      45.725  -9.631  -2.116  0.00  0.00    +0.000 OA
ATOM      2  C   UNL     1      44.806  -8.838  -2.048  0.00  0.00    +0.000 C 
ENDROOT
BRANCH   2   3
ATOM      3  O   UNL     1      44.987  -7.579  -1.623  0.00  0.00    +0.000 OA
ATOM      4  H   UNL     1      44.556  -7.554  -0.745  0.00  0.00    +0.000 HD
ENDBRANCH   2   3
BRANCH   2   6
ATOM      5  O   UNL     1      42.682 -10.101  -2.060  0.00  0.00    +0.000 OA
ATOM      6  C   UNL     1      43.324  -9.137  -2.430  0.00  0.00    +0.000 C 
BRANCH   6   7
ATOM      7  O   UNL     1      42.798  -8.201  -3.233  0.00  0.00    +0.000 OA
ATOM      8  H   UNL     1      43.309  -7.392  -3.034  0.00  0.00    +0.000 HD
ENDBRANCH   6   7
ENDBRANCH   2   6
TORSDOF 3
ENDMDL
MODEL 9
REMARK VINA RESULT:      -2.5     26.541     27.493
REMARK  Name = 971_OxalicAcid.pdbqt.pdb
REMARK  3 active torsions:
REMARK  status: ('A' for Active; 'I' for Inactive)
REMARK    1  A    between atoms: C_2  and  O_3
REMARK    2  A    between atoms: C_2  and  C_6
REMARK    3  A    between atoms: C_6  and  O_7
REMARK                            x       y       z     vdW  Elec       q    Type
REMARK                         _______ _______ _______ _____ _____    ______ ____
ROOT
ATOM      1  O   UNL     1      52.127   0.935  -8.208  0.00  0.00    +0.000 OA
ATOM      2  C   UNL     1      51.003   0.995  -7.750  0.00  0.00    +0.000 C 
ENDROOT
BRANCH   2   3
ATOM      3  O   UNL     1      50.632   1.967  -6.906  0.00  0.00    +0.000 OA
ATOM      4  H   UNL     1      51.117   1.772  -6.079  0.00  0.00    +0.000 HD
ENDBRANCH   2   3
BRANCH   2   6
ATOM      5  O   UNL     1      48.664   0.263  -8.068  0.00  0.00    +0.000 OA
ATOM      6  C   UNL     1      49.848  -0.009  -8.057  0.00  0.00    +0.000 C 
BRANCH   6   7
ATOM      7  O   UNL     1      50.294  -1.245  -8.317  0.00  0.00    +0.000 OA
ATOM      8  H   UNL     1      50.673  -1.185  -9.217  0.00  0.00    +0.000 HD
ENDBRANCH   6   7
ENDBRANCH   2   6
TORSDOF 3
ENDMDL
