MODEL 1
REMARK VINA RESULT:      -7.2      0.000      0.000
REMARK  Name = 9852185_GambogicAcid.pdbqt.pdb
REMARK  10 active torsions:
REMARK  status: ('A' for Active; 'I' for Inactive)
REMARK    1  A    between atoms: C_8  and  C_30
REMARK    2  A    between atoms: C_20  and  C_38
REMARK    3  A    between atoms: C_21  and  O_28
REMARK    4  A    between atoms: C_25  and  C_43
REMARK    5  A    between atoms: C_31  and  C_32
REMARK    6  A    between atoms: C_32  and  C_35
REMARK    7  A    between atoms: C_35  and  O_36
REMARK    8  A    between atoms: C_39  and  C_40
REMARK    9  A    between atoms: C_43  and  C_44
REMARK   10  A    between atoms: C_45  and  C_46
REMARK                            x       y       z     vdW  Elec       q    Type
REMARK                         _______ _______ _______ _____ _____    ______ ____
ROOT
ATOM      1  O   UNL     1      54.680   5.355  12.623  0.00  0.00    +0.000 OA
ATOM      2  O   UNL     1      52.774   3.747  11.183  0.00  0.00    +0.000 OA
ATOM      3  O   UNL     1      53.210   6.896  14.977  0.00  0.00    +0.000 OA
ATOM      4  O   UNL     1      48.783   4.745  11.356  0.00  0.00    +0.000 OA
ATOM      5  O   UNL     1      52.007   0.507   7.791  0.00  0.00    +0.000 OA
ATOM      6  C   UNL     1      52.453   4.965  11.840  0.00  0.00    +0.000 C 
ATOM      7  C   UNL     1      53.064   6.221  11.122  0.00  0.00    +0.000 C 
ATOM      8  C   UNL     1      53.346   5.180  13.127  0.00  0.00    +0.000 C 
ATOM      9  C   UNL     1      54.566   6.030  11.359  0.00  0.00    +0.000 C 
ATOM     10  C   UNL     1      52.429   7.400  11.713  0.00  0.00    +0.000 C 
ATOM     11  C   UNL     1      51.803   7.277  13.018  0.00  0.00    +0.000 C 
ATOM     12  C   UNL     1      50.959   5.127  12.169  0.00  0.00    +0.000 C 
ATOM     13  C   UNL     1      52.835   6.501  13.884  0.00  0.00    +0.000 C 
ATOM     14  C   UNL     1      50.706   6.360  12.845  0.00  0.00    +0.000 C 
ATOM     15  C   UNL     1      55.309   7.370  11.463  0.00  0.00    +0.000 C 
ATOM     16  C   UNL     1      55.172   5.163  10.244  0.00  0.00    +0.000 C 
ATOM     17  C   UNL     1      49.973   4.464  11.318  0.00  0.00    +0.000 C 
ATOM     18  C   UNL     1      51.851   3.154  10.364  0.00  0.00    +0.000 A 
ATOM     19  C   UNL     1      50.482   3.455  10.380  0.00  0.00    +0.000 A 
ATOM     20  C   UNL     1      52.343   2.154   9.496  0.00  0.00    +0.000 A 
ATOM     21  C   UNL     1      49.596   2.789   9.517  0.00  0.00    +0.000 A 
ATOM     22  C   UNL     1      51.468   1.481   8.637  0.00  0.00    +0.000 A 
ATOM     23  C   UNL     1      50.090   1.814   8.655  0.00  0.00    +0.000 A 
ATOM     24  C   UNL     1      49.309   1.060   7.745  0.00  0.00    +0.000 C 
ATOM     25  C   UNL     1      51.123  -0.294   6.910  0.00  0.00    +0.000 C 
ATOM     26  C   UNL     1      49.753   0.202   7.047  0.00  0.00    +0.000 C 
ATOM     27  C   UNL     1      51.257  -1.768   7.367  0.00  0.00    +0.000 C 
ENDROOT
BRANCH  21  28
ATOM     28  O   UNL     1      48.253   3.055   9.484  0.00  0.00    +0.000 OA
ATOM     29  H   UNL     1      48.023   3.508   8.641  0.00  0.00    +0.000 HD
ENDBRANCH  21  28
BRANCH   8  30
ATOM     30  C   UNL     1      53.314   4.023  14.032  0.00  0.00    +0.000 C 
ATOM     31  C   UNL     1      53.315   2.839  15.011  0.00  0.00    +0.000 C 
BRANCH  31  32
ATOM     32  C   UNL     1      53.366   1.852  15.860  0.00  0.00    +0.000 C 
ATOM     33  C   UNL     1      53.897   2.220  17.234  0.00  0.00    +0.000 C 
BRANCH  32  35
ATOM     34  O   UNL     1      52.378   0.202  14.400  0.00  0.00    +0.000 OA
ATOM     35  C   UNL     1      52.910   0.493  15.462  0.00  0.00    +0.000 C 
BRANCH  35  36
ATOM     36  O   UNL     1      53.128  -0.461  16.391  0.00  0.00    +0.000 OA
ATOM     37  H   UNL     1      52.419  -1.123  16.251  0.00  0.00    +0.000 HD
ENDBRANCH  35  36
ENDBRANCH  32  35
ENDBRANCH  31  32
ENDBRANCH   8  30
BRANCH  20  38
ATOM     38  C   UNL     1      53.741   1.831   9.495  0.00  0.00    +0.000 C 
ATOM     39  C   UNL     1      55.241   1.503   9.466  0.00  0.00    +0.000 C 
BRANCH  39  40
ATOM     40  C   UNL     1      56.510   1.240   9.427  0.00  0.00    +0.000 C 
ATOM     41  C   UNL     1      57.489   2.365   9.284  0.00  0.00    +0.000 C 
ATOM     42  C   UNL     1      56.994  -0.136   9.769  0.00  0.00    +0.000 C 
ENDBRANCH  39  40
ENDBRANCH  20  38
BRANCH  25  43
ATOM     43  C   UNL     1      51.627  -0.130   5.533  0.00  0.00    +0.000 C 
BRANCH  43  44
ATOM     44  C   UNL     1      52.143   0.037   4.099  0.00  0.00    +0.000 C 
ATOM     45  C   UNL     1      52.663   0.202   2.663  0.00  0.00    +0.000 C 
BRANCH  45  46
ATOM     46  C   UNL     1      53.105   0.349   1.454  0.00  0.00    +0.000 C 
ATOM     47  C   UNL     1      52.997  -0.788   0.484  0.00  0.00    +0.000 C 
ATOM     48  C   UNL     1      53.878   1.576   1.082  0.00  0.00    +0.000 C 
ENDBRANCH  45  46
ENDBRANCH  43  44
ENDBRANCH  25  43
TORSDOF 10
ENDMDL
MODEL 2
REMARK VINA RESULT:      -6.7      2.682      9.357
REMARK  Name = 9852185_GambogicAcid.pdbqt.pdb
REMARK  10 active torsions:
REMARK  status: ('A' for Active; 'I' for Inactive)
REMARK    1  A    between atoms: C_8  and  C_30
REMARK    2  A    between atoms: C_20  and  C_38
REMARK    3  A    between atoms: C_21  and  O_28
REMARK    4  A    between atoms: C_25  and  C_43
REMARK    5  A    between atoms: C_31  and  C_32
REMARK    6  A    between atoms: C_32  and  C_35
REMARK    7  A    between atoms: C_35  and  O_36
REMARK    8  A    between atoms: C_39  and  C_40
REMARK    9  A    between atoms: C_43  and  C_44
REMARK   10  A    between atoms: C_45  and  C_46
REMARK                            x       y       z     vdW  Elec       q    Type
REMARK                         _______ _______ _______ _____ _____    ______ ____
ROOT
ATOM      1  O   UNL     1      53.596   0.536   7.567  0.00  0.00    +0.000 OA
ATOM      2  O   UNL     1      52.358   2.565   9.194  0.00  0.00    +0.000 OA
ATOM      3  O   UNL     1      51.529  -0.490   5.388  0.00  0.00    +0.000 OA
ATOM      4  O   UNL     1      48.251   2.691   9.448  0.00  0.00    +0.000 OA
ATOM      5  O   UNL     1      52.855   5.806  12.634  0.00  0.00    +0.000 OA
ATOM      6  C   UNL     1      51.652   1.496   8.580  0.00  0.00    +0.000 C 
ATOM      7  C   UNL     1      51.969   0.104   9.234  0.00  0.00    +0.000 C 
ATOM      8  C   UNL     1      52.316   1.078   7.207  0.00  0.00    +0.000 C 
ATOM      9  C   UNL     1      53.434  -0.114   8.840  0.00  0.00    +0.000 C 
ATOM     10  C   UNL     1      50.979  -0.844   8.719  0.00  0.00    +0.000 C 
ATOM     11  C   UNL     1      50.280  -0.524   7.487  0.00  0.00    +0.000 C 
ATOM     12  C   UNL     1      50.145   1.753   8.410  0.00  0.00    +0.000 C 
ATOM     13  C   UNL     1      51.390  -0.036   6.513  0.00  0.00    +0.000 C 
ATOM     14  C   UNL     1      49.498   0.652   7.771  0.00  0.00    +0.000 C 
ATOM     15  C   UNL     1      53.769  -1.603   8.663  0.00  0.00    +0.000 C 
ATOM     16  C   UNL     1      54.364   0.529   9.880  0.00  0.00    +0.000 C 
ATOM     17  C   UNL     1      49.470   2.637   9.359  0.00  0.00    +0.000 C 
ATOM     18  C   UNL     1      51.722   3.365  10.104  0.00  0.00    +0.000 A 
ATOM     19  C   UNL     1      50.328   3.447  10.234  0.00  0.00    +0.000 A 
ATOM     20  C   UNL     1      52.554   4.173  10.910  0.00  0.00    +0.000 A 
ATOM     21  C   UNL     1      49.750   4.307  11.182  0.00  0.00    +0.000 A 
ATOM     22  C   UNL     1      51.988   5.036  11.854  0.00  0.00    +0.000 A 
ATOM     23  C   UNL     1      50.577   5.089  11.983  0.00  0.00    +0.000 A 
ATOM     24  C   UNL     1      50.128   6.004  12.967  0.00  0.00    +0.000 C 
ATOM     25  C   UNL     1      52.319   6.794  13.600  0.00  0.00    +0.000 C 
ATOM     26  C   UNL     1      50.859   6.692  13.611  0.00  0.00    +0.000 C 
ATOM     27  C   UNL     1      52.801   8.188  13.126  0.00  0.00    +0.000 C 
ENDROOT
BRANCH  21  28
ATOM     28  O   UNL     1      48.396   4.414  11.358  0.00  0.00    +0.000 OA
ATOM     29  H   UNL     1      48.186   5.252  11.829  0.00  0.00    +0.000 HD
ENDBRANCH  21  28
BRANCH   8  30
ATOM     30  C   UNL     1      52.508   2.223   6.305  0.00  0.00    +0.000 C 
ATOM     31  C   UNL     1      52.711   3.452   5.407  0.00  0.00    +0.000 C 
BRANCH  31  32
ATOM     32  C   UNL     1      52.862   4.528   4.686  0.00  0.00    +0.000 C 
ATOM     33  C   UNL     1      52.761   5.831   5.457  0.00  0.00    +0.000 C 
BRANCH  32  35
ATOM     34  O   UNL     1      53.770   5.219   2.558  0.00  0.00    +0.000 OA
ATOM     35  C   UNL     1      53.128   4.422   3.226  0.00  0.00    +0.000 C 
BRANCH  35  36
ATOM     36  O   UNL     1      52.591   3.330   2.641  0.00  0.00    +0.000 OA
ATOM     37  H   UNL     1      53.232   2.607   2.811  0.00  0.00    +0.000 HD
ENDBRANCH  35  36
ENDBRANCH  32  35
ENDBRANCH  31  32
ENDBRANCH   8  30
BRANCH  20  38
ATOM     38  C   UNL     1      53.979   4.104  10.763  0.00  0.00    +0.000 C 
ATOM     39  C   UNL     1      55.501   4.005  10.587  0.00  0.00    +0.000 C 
BRANCH  39  40
ATOM     40  C   UNL     1      56.784   3.908  10.422  0.00  0.00    +0.000 C 
ATOM     41  C   UNL     1      57.607   5.156  10.311  0.00  0.00    +0.000 C 
ATOM     42  C   UNL     1      57.456   2.580  10.590  0.00  0.00    +0.000 C 
ENDBRANCH  39  40
ENDBRANCH  20  38
BRANCH  25  43
ATOM     43  C   UNL     1      52.897   6.466  14.917  0.00  0.00    +0.000 C 
BRANCH  43  44
ATOM     44  C   UNL     1      53.503   6.131  16.286  0.00  0.00    +0.000 C 
ATOM     45  C   UNL     1      54.109   5.798  17.657  0.00  0.00    +0.000 C 
BRANCH  45  46
ATOM     46  C   UNL     1      54.628   5.519  18.811  0.00  0.00    +0.000 C 
ATOM     47  C   UNL     1      53.778   5.595  20.042  0.00  0.00    +0.000 C 
ATOM     48  C   UNL     1      56.103   5.299  18.936  0.00  0.00    +0.000 C 
ENDBRANCH  45  46
ENDBRANCH  43  44
ENDBRANCH  25  43
TORSDOF 10
ENDMDL
MODEL 3
REMARK VINA RESULT:      -6.4      5.153      9.651
REMARK  Name = 9852185_GambogicAcid.pdbqt.pdb
REMARK  10 active torsions:
REMARK  status: ('A' for Active; 'I' for Inactive)
REMARK    1  A    between atoms: C_8  and  C_30
REMARK    2  A    between atoms: C_20  and  C_38
REMARK    3  A    between atoms: C_21  and  O_28
REMARK    4  A    between atoms: C_25  and  C_43
REMARK    5  A    between atoms: C_31  and  C_32
REMARK    6  A    between atoms: C_32  and  C_35
REMARK    7  A    between atoms: C_35  and  O_36
REMARK    8  A    between atoms: C_39  and  C_40
REMARK    9  A    between atoms: C_43  and  C_44
REMARK   10  A    between atoms: C_45  and  C_46
REMARK                            x       y       z     vdW  Elec       q    Type
REMARK                         _______ _______ _______ _____ _____    ______ ____
ROOT
ATOM      1  O   UNL     1      56.868   7.221   5.015  0.00  0.00    +0.000 OA
ATOM      2  O   UNL     1      54.986   7.465   7.182  0.00  0.00    +0.000 OA
ATOM      3  O   UNL     1      55.846   8.902   2.524  0.00  0.00    +0.000 OA
ATOM      4  O   UNL     1      51.090   8.494   6.338  0.00  0.00    +0.000 OA
ATOM      5  O   UNL     1      53.946   6.510  11.720  0.00  0.00    +0.000 OA
ATOM      6  C   UNL     1      54.631   7.530   5.807  0.00  0.00    +0.000 C 
ATOM      7  C   UNL     1      54.759   6.143   5.081  0.00  0.00    +0.000 C 
ATOM      8  C   UNL     1      55.790   8.168   4.941  0.00  0.00    +0.000 C 
ATOM      9  C   UNL     1      56.274   5.913   5.086  0.00  0.00    +0.000 C 
ATOM     10  C   UNL     1      54.097   6.281   3.783  0.00  0.00    +0.000 C 
ATOM     11  C   UNL     1      53.899   7.612   3.236  0.00  0.00    +0.000 C 
ATOM     12  C   UNL     1      53.288   8.231   5.538  0.00  0.00    +0.000 C 
ATOM     13  C   UNL     1      55.264   8.330   3.432  0.00  0.00    +0.000 C 
ATOM     14  C   UNL     1      53.000   8.280   4.140  0.00  0.00    +0.000 C 
ATOM     15  C   UNL     1      56.739   5.109   3.863  0.00  0.00    +0.000 C 
ATOM     16  C   UNL     1      56.699   5.213   6.386  0.00  0.00    +0.000 C 
ATOM     17  C   UNL     1      52.253   8.190   6.568  0.00  0.00    +0.000 C 
ATOM     18  C   UNL     1      54.006   7.396   8.134  0.00  0.00    +0.000 A 
ATOM     19  C   UNL     1      52.665   7.733   7.902  0.00  0.00    +0.000 A 
ATOM     20  C   UNL     1      54.420   6.999   9.424  0.00  0.00    +0.000 A 
ATOM     21  C   UNL     1      51.720   7.651   8.938  0.00  0.00    +0.000 A 
ATOM     22  C   UNL     1      53.487   6.919  10.464  0.00  0.00    +0.000 A 
ATOM     23  C   UNL     1      52.133   7.246  10.204  0.00  0.00    +0.000 A 
ATOM     24  C   UNL     1      51.290   7.131  11.337  0.00  0.00    +0.000 C 
ATOM     25  C   UNL     1      53.025   6.477  12.881  0.00  0.00    +0.000 C 
ATOM     26  C   UNL     1      51.679   6.820  12.420  0.00  0.00    +0.000 C 
ATOM     27  C   UNL     1      53.568   7.500  13.909  0.00  0.00    +0.000 C 
ENDROOT
BRANCH  21  28
ATOM     28  O   UNL     1      50.397   7.957   8.761  0.00  0.00    +0.000 OA
ATOM     29  H   UNL     1      49.964   7.263   8.213  0.00  0.00    +0.000 HD
ENDBRANCH  21  28
BRANCH   8  30
ATOM     30  C   UNL     1      56.240   9.462   5.472  0.00  0.00    +0.000 C 
ATOM     31  C   UNL     1      56.762  10.803   6.010  0.00  0.00    +0.000 C 
BRANCH  31  32
ATOM     32  C   UNL     1      57.256  11.917   6.472  0.00  0.00    +0.000 C 
ATOM     33  C   UNL     1      58.772  11.983   6.490  0.00  0.00    +0.000 C 
BRANCH  32  35
ATOM     34  O   UNL     1      56.155  13.349   8.075  0.00  0.00    +0.000 OA
ATOM     35  C   UNL     1      56.352  13.012   6.917  0.00  0.00    +0.000 C 
BRANCH  35  36
ATOM     36  O   UNL     1      55.722  13.655   5.911  0.00  0.00    +0.000 OA
ATOM     37  H   UNL     1      54.801  13.780   6.223  0.00  0.00    +0.000 HD
ENDBRANCH  35  36
ENDBRANCH  32  35
ENDBRANCH  31  32
ENDBRANCH   8  30
BRANCH  20  38
ATOM     38  C   UNL     1      55.795   6.673   9.666  0.00  0.00    +0.000 C 
ATOM     39  C   UNL     1      57.261   6.294   9.922  0.00  0.00    +0.000 C 
BRANCH  39  40
ATOM     40  C   UNL     1      58.495   5.955  10.131  0.00  0.00    +0.000 C 
ATOM     41  C   UNL     1      59.175   6.395  11.393  0.00  0.00    +0.000 C 
ATOM     42  C   UNL     1      59.146   4.936   9.247  0.00  0.00    +0.000 C 
ENDBRANCH  39  40
ENDBRANCH  20  38
BRANCH  25  43
ATOM     43  C   UNL     1      53.079   5.110  13.433  0.00  0.00    +0.000 C 
BRANCH  43  44
ATOM     44  C   UNL     1      53.140   3.686  13.999  0.00  0.00    +0.000 C 
ATOM     45  C   UNL     1      53.198   2.259  14.565  0.00  0.00    +0.000 C 
BRANCH  45  46
ATOM     46  C   UNL     1      53.241   1.056  15.046  0.00  0.00    +0.000 C 
ATOM     47  C   UNL     1      53.260  -0.114  14.111  0.00  0.00    +0.000 C 
ATOM     48  C   UNL     1      53.091   0.832  16.519  0.00  0.00    +0.000 C 
ENDBRANCH  45  46
ENDBRANCH  43  44
ENDBRANCH  25  43
TORSDOF 10
ENDMDL
MODEL 4
REMARK VINA RESULT:      -6.1     22.837     27.495
REMARK  Name = 9852185_GambogicAcid.pdbqt.pdb
REMARK  10 active torsions:
REMARK  status: ('A' for Active; 'I' for Inactive)
REMARK    1  A    between atoms: C_8  and  C_30
REMARK    2  A    between atoms: C_20  and  C_38
REMARK    3  A    between atoms: C_21  and  O_28
REMARK    4  A    between atoms: C_25  and  C_43
REMARK    5  A    between atoms: C_31  and  C_32
REMARK    6  A    between atoms: C_32  and  C_35
REMARK    7  A    between atoms: C_35  and  O_36
REMARK    8  A    between atoms: C_39  and  C_40
REMARK    9  A    between atoms: C_43  and  C_44
REMARK   10  A    between atoms: C_45  and  C_46
REMARK                            x       y       z     vdW  Elec       q    Type
REMARK                         _______ _______ _______ _____ _____    ______ ____
ROOT
ATOM      1  O   UNL     1      30.118  20.232  19.021  0.00  0.00    +0.000 OA
ATOM      2  O   UNL     1      32.470  18.593  19.301  0.00  0.00    +0.000 OA
ATOM      3  O   UNL     1      30.840  22.862  17.399  0.00  0.00    +0.000 OA
ATOM      4  O   UNL     1      36.179  20.353  18.993  0.00  0.00    +0.000 OA
ATOM      5  O   UNL     1      34.341  14.474  20.758  0.00  0.00    +0.000 OA
ATOM      6  C   UNL     1      32.493  20.011  19.209  0.00  0.00    +0.000 C 
ATOM      7  C   UNL     1      31.913  20.711  20.490  0.00  0.00    +0.000 C 
ATOM      8  C   UNL     1      31.318  20.550  18.300  0.00  0.00    +0.000 C 
ATOM      9  C   UNL     1      30.429  20.337  20.421  0.00  0.00    +0.000 C 
ATOM     10  C   UNL     1      32.260  22.130  20.393  0.00  0.00    +0.000 C 
ATOM     11  C   UNL     1      32.592  22.681  19.091  0.00  0.00    +0.000 C 
ATOM     12  C   UNL     1      33.847  20.590  18.766  0.00  0.00    +0.000 C 
ATOM     13  C   UNL     1      31.491  22.139  18.136  0.00  0.00    +0.000 C 
ATOM     14  C   UNL     1      33.799  22.014  18.675  0.00  0.00    +0.000 C 
ATOM     15  C   UNL     1      29.531  21.423  21.031  0.00  0.00    +0.000 C 
ATOM     16  C   UNL     1      30.191  18.986  21.115  0.00  0.00    +0.000 C 
ATOM     17  C   UNL     1      35.067  19.849  19.080  0.00  0.00    +0.000 C 
ATOM     18  C   UNL     1      33.613  17.915  19.627  0.00  0.00    +0.000 A 
ATOM     19  C   UNL     1      34.900  18.464  19.541  0.00  0.00    +0.000 A 
ATOM     20  C   UNL     1      33.445  16.571  20.026  0.00  0.00    +0.000 A 
ATOM     21  C   UNL     1      36.027  17.696  19.878  0.00  0.00    +0.000 A 
ATOM     22  C   UNL     1      34.561  15.795  20.359  0.00  0.00    +0.000 A 
ATOM     23  C   UNL     1      35.852  16.376  20.284  0.00  0.00    +0.000 A 
ATOM     24  C   UNL     1      36.899  15.489  20.640  0.00  0.00    +0.000 C 
ATOM     25  C   UNL     1      35.484  13.578  21.052  0.00  0.00    +0.000 C 
ATOM     26  C   UNL     1      36.723  14.351  20.946  0.00  0.00    +0.000 C 
ATOM     27  C   UNL     1      35.425  12.426  20.018  0.00  0.00    +0.000 C 
ENDROOT
BRANCH  21  28
ATOM     28  O   UNL     1      37.303  18.189  19.824  0.00  0.00    +0.000 OA
ATOM     29  H   UNL     1      37.469  18.591  18.942  0.00  0.00    +0.000 HD
ENDBRANCH  21  28
BRANCH   8  30
ATOM     30  C   UNL     1      31.283  19.898  16.983  0.00  0.00    +0.000 C 
ATOM     31  C   UNL     1      31.192  19.217  15.609  0.00  0.00    +0.000 C 
BRANCH  31  32
ATOM     32  C   UNL     1      31.063  18.621  14.457  0.00  0.00    +0.000 C 
ATOM     33  C   UNL     1      31.336  19.500  13.251  0.00  0.00    +0.000 C 
BRANCH  32  35
ATOM     34  O   UNL     1      29.597  16.714  14.668  0.00  0.00    +0.000 OA
ATOM     35  C   UNL     1      30.693  17.182  14.394  0.00  0.00    +0.000 C 
BRANCH  35  36
ATOM     36  O   UNL     1      31.692  16.368  13.992  0.00  0.00    +0.000 OA
ATOM     37  H   UNL     1      32.199  16.163  14.805  0.00  0.00    +0.000 HD
ENDBRANCH  35  36
ENDBRANCH  32  35
ENDBRANCH  31  32
ENDBRANCH   8  30
BRANCH  20  38
ATOM     38  C   UNL     1      32.130  16.002  20.094  0.00  0.00    +0.000 C 
ATOM     39  C   UNL     1      30.729  15.376  20.142  0.00  0.00    +0.000 C 
BRANCH  39  40
ATOM     40  C   UNL     1      29.552  14.833  20.169  0.00  0.00    +0.000 C 
ATOM     41  C   UNL     1      28.550  15.299  21.182  0.00  0.00    +0.000 C 
ATOM     42  C   UNL     1      29.122  13.935  19.049  0.00  0.00    +0.000 C 
ENDBRANCH  39  40
ENDBRANCH  20  38
BRANCH  25  43
ATOM     43  C   UNL     1      35.283  13.059  22.418  0.00  0.00    +0.000 C 
BRANCH  43  44
ATOM     44  C   UNL     1      35.066  12.517  23.837  0.00  0.00    +0.000 C 
ATOM     45  C   UNL     1      34.846  11.975  25.257  0.00  0.00    +0.000 C 
BRANCH  45  46
ATOM     46  C   UNL     1      34.659  11.524  26.458  0.00  0.00    +0.000 C 
ATOM     47  C   UNL     1      34.338  12.481  27.565  0.00  0.00    +0.000 C 
ATOM     48  C   UNL     1      34.936  10.087  26.770  0.00  0.00    +0.000 C 
ENDBRANCH  45  46
ENDBRANCH  43  44
ENDBRANCH  25  43
TORSDOF 10
ENDMDL
MODEL 5
REMARK VINA RESULT:      -6.1     22.821     27.118
REMARK  Name = 9852185_GambogicAcid.pdbqt.pdb
REMARK  10 active torsions:
REMARK  status: ('A' for Active; 'I' for Inactive)
REMARK    1  A    between atoms: C_8  and  C_30
REMARK    2  A    between atoms: C_20  and  C_38
REMARK    3  A    between atoms: C_21  and  O_28
REMARK    4  A    between atoms: C_25  and  C_43
REMARK    5  A    between atoms: C_31  and  C_32
REMARK    6  A    between atoms: C_32  and  C_35
REMARK    7  A    between atoms: C_35  and  O_36
REMARK    8  A    between atoms: C_39  and  C_40
REMARK    9  A    between atoms: C_43  and  C_44
REMARK   10  A    between atoms: C_45  and  C_46
REMARK                            x       y       z     vdW  Elec       q    Type
REMARK                         _______ _______ _______ _____ _____    ______ ____
ROOT
ATOM      1  O   UNL     1      33.334  21.209  20.965  0.00  0.00    +0.000 OA
ATOM      2  O   UNL     1      34.233  18.476  20.819  0.00  0.00    +0.000 OA
ATOM      3  O   UNL     1      34.645  22.888  18.612  0.00  0.00    +0.000 OA
ATOM      4  O   UNL     1      37.757  17.635  18.863  0.00  0.00    +0.000 OA
ATOM      5  O   UNL     1      33.895  14.045  22.503  0.00  0.00    +0.000 OA
ATOM      6  C   UNL     1      35.000  19.592  20.387  0.00  0.00    +0.000 C 
ATOM      7  C   UNL     1      35.503  20.481  21.580  0.00  0.00    +0.000 C 
ATOM      8  C   UNL     1      34.077  20.746  19.826  0.00  0.00    +0.000 C 
ATOM      9  C   UNL     1      34.196  21.083  22.108  0.00  0.00    +0.000 C 
ATOM     10  C   UNL     1      36.502  21.401  21.033  0.00  0.00    +0.000 C 
ATOM     11  C   UNL     1      36.507  21.658  19.604  0.00  0.00    +0.000 C 
ATOM     12  C   UNL     1      36.115  19.238  19.387  0.00  0.00    +0.000 C 
ATOM     13  C   UNL     1      35.017  21.907  19.237  0.00  0.00    +0.000 C 
ATOM     14  C   UNL     1      36.834  20.403  18.978  0.00  0.00    +0.000 C 
ATOM     15  C   UNL     1      34.406  22.482  22.706  0.00  0.00    +0.000 C 
ATOM     16  C   UNL     1      33.561  20.143  23.145  0.00  0.00    +0.000 C 
ATOM     17  C   UNL     1      36.712  17.905  19.439  0.00  0.00    +0.000 C 
ATOM     18  C   UNL     1      34.814  17.239  20.892  0.00  0.00    +0.000 A 
ATOM     19  C   UNL     1      36.012  16.899  20.248  0.00  0.00    +0.000 A 
ATOM     20  C   UNL     1      34.112  16.266  21.636  0.00  0.00    +0.000 A 
ATOM     21  C   UNL     1      36.536  15.600  20.359  0.00  0.00    +0.000 A 
ATOM     22  C   UNL     1      34.623  14.968  21.748  0.00  0.00    +0.000 A 
ATOM     23  C   UNL     1      35.845  14.650  21.104  0.00  0.00    +0.000 A 
ATOM     24  C   UNL     1      36.253  13.305  21.288  0.00  0.00    +0.000 C 
ATOM     25  C   UNL     1      34.342  12.635  22.600  0.00  0.00    +0.000 C 
ATOM     26  C   UNL     1      35.620  12.501  21.899  0.00  0.00    +0.000 C 
ATOM     27  C   UNL     1      33.230  11.770  21.955  0.00  0.00    +0.000 C 
ENDROOT
BRANCH  21  28
ATOM     28  O   UNL     1      37.708  15.220  19.760  0.00  0.00    +0.000 OA
ATOM     29  H   UNL     1      37.782  15.641  18.874  0.00  0.00    +0.000 HD
ENDBRANCH  21  28
BRANCH   8  30
ATOM     30  C   UNL     1      33.143  20.267  18.797  0.00  0.00    +0.000 C 
ATOM     31  C   UNL     1      32.128  19.794  17.745  0.00  0.00    +0.000 C 
BRANCH  31  32
ATOM     32  C   UNL     1      31.225  19.402  16.891  0.00  0.00    +0.000 C 
ATOM     33  C   UNL     1      30.059  20.356  16.712  0.00  0.00    +0.000 C 
BRANCH  32  35
ATOM     34  O   UNL     1      31.139  17.005  16.612  0.00  0.00    +0.000 OA
ATOM     35  C   UNL     1      31.389  18.114  16.164  0.00  0.00    +0.000 C 
BRANCH  35  36
ATOM     36  O   UNL     1      31.857  18.243  14.904  0.00  0.00    +0.000 OA
ATOM     37  H   UNL     1      32.408  17.447  14.752  0.00  0.00    +0.000 HD
ENDBRANCH  35  36
ENDBRANCH  32  35
ENDBRANCH  31  32
ENDBRANCH   8  30
BRANCH  20  38
ATOM     38  C   UNL     1      32.876  16.609  22.278  0.00  0.00    +0.000 C 
ATOM     39  C   UNL     1      31.546  16.946  22.968  0.00  0.00    +0.000 C 
BRANCH  39  40
ATOM     40  C   UNL     1      30.421  17.211  23.555  0.00  0.00    +0.000 C 
ATOM     41  C   UNL     1      29.228  16.345  23.282  0.00  0.00    +0.000 C 
ATOM     42  C   UNL     1      30.381  18.209  24.671  0.00  0.00    +0.000 C 
ENDBRANCH  39  40
ENDBRANCH  20  38
BRANCH  25  43
ATOM     43  C   UNL     1      34.474  12.324  24.036  0.00  0.00    +0.000 C 
BRANCH  43  44
ATOM     44  C   UNL     1      34.617  11.995  25.527  0.00  0.00    +0.000 C 
ATOM     45  C   UNL     1      34.762  11.669  27.021  0.00  0.00    +0.000 C 
BRANCH  45  46
ATOM     46  C   UNL     1      34.892  11.390  28.280  0.00  0.00    +0.000 C 
ATOM     47  C   UNL     1      36.063  11.933  29.041  0.00  0.00    +0.000 C 
ATOM     48  C   UNL     1      33.982  10.392  28.924  0.00  0.00    +0.000 C 
ENDBRANCH  45  46
ENDBRANCH  43  44
ENDBRANCH  25  43
TORSDOF 10
ENDMDL
MODEL 6
REMARK VINA RESULT:      -6.0      6.745     10.185
REMARK  Name = 9852185_GambogicAcid.pdbqt.pdb
REMARK  10 active torsions:
REMARK  status: ('A' for Active; 'I' for Inactive)
REMARK    1  A    between atoms: C_8  and  C_30
REMARK    2  A    between atoms: C_20  and  C_38
REMARK    3  A    between atoms: C_21  and  O_28
REMARK    4  A    between atoms: C_25  and  C_43
REMARK    5  A    between atoms: C_31  and  C_32
REMARK    6  A    between atoms: C_32  and  C_35
REMARK    7  A    between atoms: C_35  and  O_36
REMARK    8  A    between atoms: C_39  and  C_40
REMARK    9  A    between atoms: C_43  and  C_44
REMARK   10  A    between atoms: C_45  and  C_46
REMARK                            x       y       z     vdW  Elec       q    Type
REMARK                         _______ _______ _______ _____ _____    ______ ____
ROOT
ATOM      1  O   UNL     1      59.320   9.057   5.555  0.00  0.00    +0.000 OA
ATOM      2  O   UNL     1      56.459   8.885   5.844  0.00  0.00    +0.000 OA
ATOM      3  O   UNL     1      60.033  11.008   3.156  0.00  0.00    +0.000 OA
ATOM      4  O   UNL     1      54.068   9.794   2.617  0.00  0.00    +0.000 OA
ATOM      5  O   UNL     1      52.770   7.244   8.350  0.00  0.00    +0.000 OA
ATOM      6  C   UNL     1      57.123   9.121   4.610  0.00  0.00    +0.000 C 
ATOM      7  C   UNL     1      57.898   7.860   4.086  0.00  0.00    +0.000 C 
ATOM      8  C   UNL     1      58.459   9.940   4.820  0.00  0.00    +0.000 C 
ATOM      9  C   UNL     1      59.023   7.720   5.117  0.00  0.00    +0.000 C 
ATOM     10  C   UNL     1      58.279   8.139   2.701  0.00  0.00    +0.000 C 
ATOM     11  C   UNL     1      58.322   9.520   2.252  0.00  0.00    +0.000 C 
ATOM     12  C   UNL     1      56.237   9.773   3.534  0.00  0.00    +0.000 C 
ATOM     13  C   UNL     1      59.077  10.282   3.377  0.00  0.00    +0.000 C 
ATOM     14  C   UNL     1      56.967  10.002   2.328  0.00  0.00    +0.000 C 
ATOM     15  C   UNL     1      60.298   7.123   4.503  0.00  0.00    +0.000 C 
ATOM     16  C   UNL     1      58.549   6.870   6.307  0.00  0.00    +0.000 C 
ATOM     17  C   UNL     1      54.796   9.528   3.564  0.00  0.00    +0.000 C 
ATOM     18  C   UNL     1      55.115   8.626   5.853  0.00  0.00    +0.000 A 
ATOM     19  C   UNL     1      54.256   8.914   4.784  0.00  0.00    +0.000 A 
ATOM     20  C   UNL     1      54.597   8.076   7.046  0.00  0.00    +0.000 A 
ATOM     21  C   UNL     1      52.882   8.633   4.878  0.00  0.00    +0.000 A 
ATOM     22  C   UNL     1      53.230   7.797   7.152  0.00  0.00    +0.000 A 
ATOM     23  C   UNL     1      52.381   8.078   6.052  0.00  0.00    +0.000 A 
ATOM     24  C   UNL     1      51.021   7.757   6.285  0.00  0.00    +0.000 C 
ATOM     25  C   UNL     1      51.323   6.994   8.554  0.00  0.00    +0.000 C 
ATOM     26  C   UNL     1      50.613   7.320   7.316  0.00  0.00    +0.000 C 
ATOM     27  C   UNL     1      50.878   7.894   9.735  0.00  0.00    +0.000 C 
ENDROOT
BRANCH  21  28
ATOM     28  O   UNL     1      52.003   8.883   3.858  0.00  0.00    +0.000 OA
ATOM     29  H   UNL     1      51.899   8.078   3.302  0.00  0.00    +0.000 HD
ENDBRANCH  21  28
BRANCH   8  30
ATOM     30  C   UNL     1      58.247  11.171   5.594  0.00  0.00    +0.000 C 
ATOM     31  C   UNL     1      58.058  12.438   6.442  0.00  0.00    +0.000 C 
BRANCH  31  32
ATOM     32  C   UNL     1      57.909  13.482   7.208  0.00  0.00    +0.000 C 
ATOM     33  C   UNL     1      59.204  14.152   7.629  0.00  0.00    +0.000 C 
BRANCH  32  35
ATOM     34  O   UNL     1      56.127  14.053   8.734  0.00  0.00    +0.000 OA
ATOM     35  C   UNL     1      56.548  13.944   7.592  0.00  0.00    +0.000 C 
BRANCH  35  36
ATOM     36  O   UNL     1      55.753  14.259   6.547  0.00  0.00    +0.000 OA
ATOM     37  H   UNL     1      56.133  15.082   6.174  0.00  0.00    +0.000 HD
ENDBRANCH  35  36
ENDBRANCH  32  35
ENDBRANCH  31  32
ENDBRANCH   8  30
BRANCH  20  38
ATOM     38  C   UNL     1      55.474   7.800   8.148  0.00  0.00    +0.000 C 
ATOM     39  C   UNL     1      56.389   7.491   9.342  0.00  0.00    +0.000 C 
BRANCH  39  40
ATOM     40  C   UNL     1      57.146   7.217  10.357  0.00  0.00    +0.000 C 
ATOM     41  C   UNL     1      58.465   6.541  10.130  0.00  0.00    +0.000 C 
ATOM     42  C   UNL     1      56.821   7.789  11.703  0.00  0.00    +0.000 C 
ENDBRANCH  39  40
ENDBRANCH  20  38
BRANCH  25  43
ATOM     43  C   UNL     1      51.178   5.569   8.906  0.00  0.00    +0.000 C 
BRANCH  43  44
ATOM     44  C   UNL     1      51.026   4.089   9.278  0.00  0.00    +0.000 C 
ATOM     45  C   UNL     1      50.874   2.608   9.654  0.00  0.00    +0.000 C 
BRANCH  45  46
ATOM     46  C   UNL     1      50.752   1.357   9.972  0.00  0.00    +0.000 C 
ATOM     47  C   UNL     1      50.326   0.985  11.359  0.00  0.00    +0.000 C 
ATOM     48  C   UNL     1      51.207   0.294   9.021  0.00  0.00    +0.000 C 
ENDBRANCH  45  46
ENDBRANCH  43  44
ENDBRANCH  25  43
TORSDOF 10
ENDMDL
MODEL 7
REMARK VINA RESULT:      -5.8      3.849      5.559
REMARK  Name = 9852185_GambogicAcid.pdbqt.pdb
REMARK  10 active torsions:
REMARK  status: ('A' for Active; 'I' for Inactive)
REMARK    1  A    between atoms: C_8  and  C_30
REMARK    2  A    between atoms: C_20  and  C_38
REMARK    3  A    between atoms: C_21  and  O_28
REMARK    4  A    between atoms: C_25  and  C_43
REMARK    5  A    between atoms: C_31  and  C_32
REMARK    6  A    between atoms: C_32  and  C_35
REMARK    7  A    between atoms: C_35  and  O_36
REMARK    8  A    between atoms: C_39  and  C_40
REMARK    9  A    between atoms: C_43  and  C_44
REMARK   10  A    between atoms: C_45  and  C_46
REMARK                            x       y       z     vdW  Elec       q    Type
REMARK                         _______ _______ _______ _____ _____    ______ ____
ROOT
ATOM      1  O   UNL     1      55.610   4.266  14.061  0.00  0.00    +0.000 OA
ATOM      2  O   UNL     1      54.005   5.465  11.991  0.00  0.00    +0.000 OA
ATOM      3  O   UNL     1      53.950   4.154  16.764  0.00  0.00    +0.000 OA
ATOM      4  O   UNL     1      50.874   7.916  13.059  0.00  0.00    +0.000 OA
ATOM      5  O   UNL     1      53.589   6.624   7.401  0.00  0.00    +0.000 OA
ATOM      6  C   UNL     1      53.887   5.777  13.372  0.00  0.00    +0.000 C 
ATOM      7  C   UNL     1      55.121   6.580  13.921  0.00  0.00    +0.000 C 
ATOM      8  C   UNL     1      54.214   4.523  14.278  0.00  0.00    +0.000 C 
ATOM      9  C   UNL     1      56.243   5.539  13.848  0.00  0.00    +0.000 C 
ATOM     10  C   UNL     1      54.747   7.082  15.244  0.00  0.00    +0.000 C 
ATOM     11  C   UNL     1      53.655   6.439  15.954  0.00  0.00    +0.000 C 
ATOM     12  C   UNL     1      52.538   6.406  13.761  0.00  0.00    +0.000 C 
ATOM     13  C   UNL     1      53.928   4.915  15.810  0.00  0.00    +0.000 C 
ATOM     14  C   UNL     1      52.476   6.677  15.163  0.00  0.00    +0.000 C 
ATOM     15  C   UNL     1      57.292   5.742  14.950  0.00  0.00    +0.000 C 
ATOM     16  C   UNL     1      56.905   5.571  12.461  0.00  0.00    +0.000 C 
ATOM     17  C   UNL     1      51.808   7.184  12.762  0.00  0.00    +0.000 C 
ATOM     18  C   UNL     1      53.341   6.222  11.064  0.00  0.00    +0.000 A 
ATOM     19  C   UNL     1      52.270   7.073  11.372  0.00  0.00    +0.000 A 
ATOM     20  C   UNL     1      53.762   6.076   9.725  0.00  0.00    +0.000 A 
ATOM     21  C   UNL     1      51.628   7.806  10.360  0.00  0.00    +0.000 A 
ATOM     22  C   UNL     1      53.127   6.797   8.708  0.00  0.00    +0.000 A 
ATOM     23  C   UNL     1      52.058   7.666   9.043  0.00  0.00    +0.000 A 
ATOM     24  C   UNL     1      51.494   8.334   7.928  0.00  0.00    +0.000 C 
ATOM     25  C   UNL     1      52.911   7.301   6.269  0.00  0.00    +0.000 C 
ATOM     26  C   UNL     1      51.857   8.164   6.805  0.00  0.00    +0.000 C 
ATOM     27  C   UNL     1      52.342   6.184   5.359  0.00  0.00    +0.000 C 
ENDROOT
BRANCH  21  28
ATOM     28  O   UNL     1      50.586   8.659  10.609  0.00  0.00    +0.000 OA
ATOM     29  H   UNL     1      50.256   8.524  11.526  0.00  0.00    +0.000 HD
ENDBRANCH  21  28
BRANCH   8  30
ATOM     30  C   UNL     1      53.434   3.337  13.896  0.00  0.00    +0.000 C 
ATOM     31  C   UNL     1      52.623   2.080  13.548  0.00  0.00    +0.000 C 
BRANCH  31  32
ATOM     32  C   UNL     1      51.961   0.986  13.296  0.00  0.00    +0.000 C 
ATOM     33  C   UNL     1      52.378  -0.216  14.123  0.00  0.00    +0.000 C 
BRANCH  32  35
ATOM     34  O   UNL     1      50.959   1.444  11.147  0.00  0.00    +0.000 OA
ATOM     35  C   UNL     1      50.878   0.982  12.276  0.00  0.00    +0.000 C 
BRANCH  35  36
ATOM     36  O   UNL     1      49.729   0.404  12.687  0.00  0.00    +0.000 OA
ATOM     37  H   UNL     1      50.003  -0.434  13.116  0.00  0.00    +0.000 HD
ENDBRANCH  35  36
ENDBRANCH  32  35
ENDBRANCH  31  32
ENDBRANCH   8  30
BRANCH  20  38
ATOM     38  C   UNL     1      54.845   5.190   9.408  0.00  0.00    +0.000 C 
ATOM     39  C   UNL     1      55.984   4.218   9.065  0.00  0.00    +0.000 C 
BRANCH  39  40
ATOM     40  C   UNL     1      56.931   3.383   8.770  0.00  0.00    +0.000 C 
ATOM     41  C   UNL     1      57.290   2.304   9.747  0.00  0.00    +0.000 C 
ATOM     42  C   UNL     1      57.484   3.348   7.378  0.00  0.00    +0.000 C 
ENDBRANCH  39  40
ENDBRANCH  20  38
BRANCH  25  43
ATOM     43  C   UNL     1      53.941   8.078   5.555  0.00  0.00    +0.000 C 
BRANCH  43  44
ATOM     44  C   UNL     1      55.007   8.885   4.804  0.00  0.00    +0.000 C 
ATOM     45  C   UNL     1      56.074   9.695   4.054  0.00  0.00    +0.000 C 
BRANCH  45  46
ATOM     46  C   UNL     1      56.970  10.381   3.415  0.00  0.00    +0.000 C 
ATOM     47  C   UNL     1      58.342  10.530   3.997  0.00  0.00    +0.000 C 
ATOM     48  C   UNL     1      56.587  11.164   2.198  0.00  0.00    +0.000 C 
ENDBRANCH  45  46
ENDBRANCH  43  44
ENDBRANCH  25  43
TORSDOF 10
ENDMDL
MODEL 8
REMARK VINA RESULT:      -5.6     23.463     27.790
REMARK  Name = 9852185_GambogicAcid.pdbqt.pdb
REMARK  10 active torsions:
REMARK  status: ('A' for Active; 'I' for Inactive)
REMARK    1  A    between atoms: C_8  and  C_30
REMARK    2  A    between atoms: C_20  and  C_38
REMARK    3  A    between atoms: C_21  and  O_28
REMARK    4  A    between atoms: C_25  and  C_43
REMARK    5  A    between atoms: C_31  and  C_32
REMARK    6  A    between atoms: C_32  and  C_35
REMARK    7  A    between atoms: C_35  and  O_36
REMARK    8  A    between atoms: C_39  and  C_40
REMARK    9  A    between atoms: C_43  and  C_44
REMARK   10  A    between atoms: C_45  and  C_46
REMARK                            x       y       z     vdW  Elec       q    Type
REMARK                         _______ _______ _______ _____ _____    ______ ____
ROOT
ATOM      1  O   UNL     1      34.487  19.269  22.682  0.00  0.00    +0.000 OA
ATOM      2  O   UNL     1      33.185  18.571  20.210  0.00  0.00    +0.000 OA
ATOM      3  O   UNL     1      35.128  16.633  24.329  0.00  0.00    +0.000 OA
ATOM      4  O   UNL     1      31.226  14.960  19.935  0.00  0.00    +0.000 OA
ATOM      5  O   UNL     1      31.463  20.033  16.029  0.00  0.00    +0.000 OA
ATOM      6  C   UNL     1      33.076  17.816  21.409  0.00  0.00    +0.000 C 
ATOM      7  C   UNL     1      32.236  18.550  22.514  0.00  0.00    +0.000 C 
ATOM      8  C   UNL     1      34.402  17.898  22.266  0.00  0.00    +0.000 C 
ATOM      9  C   UNL     1      33.140  19.734  22.876  0.00  0.00    +0.000 C 
ATOM     10  C   UNL     1      31.957  17.566  23.561  0.00  0.00    +0.000 C 
ATOM     11  C   UNL     1      32.796  16.383  23.650  0.00  0.00    +0.000 C 
ATOM     12  C   UNL     1      32.644  16.355  21.195  0.00  0.00    +0.000 C 
ATOM     13  C   UNL     1      34.252  16.917  23.529  0.00  0.00    +0.000 C 
ATOM     14  C   UNL     1      32.572  15.647  22.433  0.00  0.00    +0.000 C 
ATOM     15  C   UNL     1      32.984  20.152  24.345  0.00  0.00    +0.000 C 
ATOM     16  C   UNL     1      32.855  20.922  21.943  0.00  0.00    +0.000 C 
ATOM     17  C   UNL     1      31.814  16.028  20.036  0.00  0.00    +0.000 C 
ATOM     18  C   UNL     1      32.379  18.273  19.144  0.00  0.00    +0.000 A 
ATOM     19  C   UNL     1      31.689  17.061  19.000  0.00  0.00    +0.000 A 
ATOM     20  C   UNL     1      32.301  19.254  18.132  0.00  0.00    +0.000 A 
ATOM     21  C   UNL     1      30.894  16.825  17.866  0.00  0.00    +0.000 A 
ATOM     22  C   UNL     1      31.516  19.026  16.996  0.00  0.00    +0.000 A 
ATOM     23  C   UNL     1      30.811  17.802  16.879  0.00  0.00    +0.000 A 
ATOM     24  C   UNL     1      30.058  17.690  15.684  0.00  0.00    +0.000 C 
ATOM     25  C   UNL     1      30.711  19.825  14.768  0.00  0.00    +0.000 C 
ATOM     26  C   UNL     1      30.037  18.527  14.836  0.00  0.00    +0.000 C 
ATOM     27  C   UNL     1      31.745  19.885  13.617  0.00  0.00    +0.000 C 
ENDROOT
BRANCH  21  28
ATOM     28  O   UNL     1      30.191  15.664  17.683  0.00  0.00    +0.000 OA
ATOM     29  H   UNL     1      29.762  15.669  16.798  0.00  0.00    +0.000 HD
ENDBRANCH  21  28
BRANCH   8  30
ATOM     30  C   UNL     1      35.597  17.550  21.484  0.00  0.00    +0.000 C 
ATOM     31  C   UNL     1      36.837  17.231  20.634  0.00  0.00    +0.000 C 
BRANCH  31  32
ATOM     32  C   UNL     1      37.864  16.987  19.871  0.00  0.00    +0.000 C 
ATOM     33  C   UNL     1      38.129  15.516  19.609  0.00  0.00    +0.000 C 
BRANCH  32  35
ATOM     34  O   UNL     1      38.219  19.140  18.837  0.00  0.00    +0.000 OA
ATOM     35  C   UNL     1      38.668  18.108  19.313  0.00  0.00    +0.000 C 
BRANCH  35  36
ATOM     36  O   UNL     1      40.003  17.914  19.365  0.00  0.00    +0.000 OA
ATOM     37  H   UNL     1      40.357  18.691  19.846  0.00  0.00    +0.000 HD
ENDBRANCH  35  36
ENDBRANCH  32  35
ENDBRANCH  31  32
ENDBRANCH   8  30
BRANCH  20  38
ATOM     38  C   UNL     1      33.023  20.486  18.270  0.00  0.00    +0.000 C 
ATOM     39  C   UNL     1      33.813  21.797  18.393  0.00  0.00    +0.000 C 
BRANCH  39  40
ATOM     40  C   UNL     1      34.488  22.901  18.478  0.00  0.00    +0.000 C 
ATOM     41  C   UNL     1      34.001  24.118  17.751  0.00  0.00    +0.000 C 
ATOM     42  C   UNL     1      35.593  23.021  19.482  0.00  0.00    +0.000 C 
ENDBRANCH  39  40
ENDBRANCH  20  38
BRANCH  25  43
ATOM     43  C   UNL     1      29.745  20.934  14.657  0.00  0.00    +0.000 C 
BRANCH  43  44
ATOM     44  C   UNL     1      28.741  22.087  14.532  0.00  0.00    +0.000 C 
ATOM     45  C   UNL     1      27.734  23.240  14.409  0.00  0.00    +0.000 C 
BRANCH  45  46
ATOM     46  C   UNL     1      26.880  24.209  14.300  0.00  0.00    +0.000 C 
ATOM     47  C   UNL     1      25.640  24.014  13.482  0.00  0.00    +0.000 C 
ATOM     48  C   UNL     1      27.214  25.566  14.836  0.00  0.00    +0.000 C 
ENDBRANCH  45  46
ENDBRANCH  43  44
ENDBRANCH  25  43
TORSDOF 10
ENDMDL
MODEL 9
REMARK VINA RESULT:      -5.5      4.853     10.130
REMARK  Name = 9852185_GambogicAcid.pdbqt.pdb
REMARK  10 active torsions:
REMARK  status: ('A' for Active; 'I' for Inactive)
REMARK    1  A    between atoms: C_8  and  C_30
REMARK    2  A    between atoms: C_20  and  C_38
REMARK    3  A    between atoms: C_21  and  O_28
REMARK    4  A    between atoms: C_25  and  C_43
REMARK    5  A    between atoms: C_31  and  C_32
REMARK    6  A    between atoms: C_32  and  C_35
REMARK    7  A    between atoms: C_35  and  O_36
REMARK    8  A    between atoms: C_39  and  C_40
REMARK    9  A    between atoms: C_43  and  C_44
REMARK   10  A    between atoms: C_45  and  C_46
REMARK                            x       y       z     vdW  Elec       q    Type
REMARK                         _______ _______ _______ _____ _____    ______ ____
ROOT
ATOM      1  O   UNL     1      57.035   6.308   5.693  0.00  0.00    +0.000 OA
ATOM      2  O   UNL     1      55.024   6.874   7.676  0.00  0.00    +0.000 OA
ATOM      3  O   UNL     1      55.820   6.735   2.792  0.00  0.00    +0.000 OA
ATOM      4  O   UNL     1      51.052   6.648   6.614  0.00  0.00    +0.000 OA
ATOM      5  O   UNL     1      53.955   7.370  12.280  0.00  0.00    +0.000 OA
ATOM      6  C   UNL     1      54.743   6.372   6.377  0.00  0.00    +0.000 C 
ATOM      7  C   UNL     1      55.208   4.883   6.188  0.00  0.00    +0.000 C 
ATOM      8  C   UNL     1      55.785   6.904   5.313  0.00  0.00    +0.000 C 
ATOM      9  C   UNL     1      56.734   5.012   6.238  0.00  0.00    +0.000 C 
ATOM     10  C   UNL     1      54.608   4.405   4.942  0.00  0.00    +0.000 C 
ATOM     11  C   UNL     1      54.160   5.379   3.962  0.00  0.00    +0.000 C 
ATOM     12  C   UNL     1      53.298   6.616   5.907  0.00  0.00    +0.000 C 
ATOM     13  C   UNL     1      55.324   6.405   3.858  0.00  0.00    +0.000 C 
ATOM     14  C   UNL     1      53.087   6.105   4.590  0.00  0.00    +0.000 C 
ATOM     15  C   UNL     1      57.432   3.955   5.371  0.00  0.00    +0.000 C 
ATOM     16  C   UNL     1      57.226   4.927   7.692  0.00  0.00    +0.000 C 
ATOM     17  C   UNL     1      52.238   6.711   6.909  0.00  0.00    +0.000 C 
ATOM     18  C   UNL     1      54.028   6.929   8.613  0.00  0.00    +0.000 A 
ATOM     19  C   UNL     1      52.662   6.856   8.308  0.00  0.00    +0.000 A 
ATOM     20  C   UNL     1      54.443   7.113   9.950  0.00  0.00    +0.000 A 
ATOM     21  C   UNL     1      51.699   6.936   9.328  0.00  0.00    +0.000 A 
ATOM     22  C   UNL     1      53.492   7.199  10.973  0.00  0.00    +0.000 A 
ATOM     23  C   UNL     1      52.116   7.103  10.645  0.00  0.00    +0.000 A 
ATOM     24  C   UNL     1      51.254   7.210  11.764  0.00  0.00    +0.000 C 
ATOM     25  C   UNL     1      52.998   7.543  13.399  0.00  0.00    +0.000 C 
ATOM     26  C   UNL     1      51.638   7.394  12.878  0.00  0.00    +0.000 C 
ATOM     27  C   UNL     1      53.247   8.956  13.983  0.00  0.00    +0.000 C 
ENDROOT
BRANCH  21  28
ATOM     28  O   UNL     1      50.353   6.857   9.084  0.00  0.00    +0.000 OA
ATOM     29  H   UNL     1      50.110   5.933   8.850  0.00  0.00    +0.000 HD
ENDBRANCH  21  28
BRANCH   8  30
ATOM     30  C   UNL     1      55.914   8.368   5.339  0.00  0.00    +0.000 C 
ATOM     31  C   UNL     1      56.100   9.892   5.384  0.00  0.00    +0.000 C 
BRANCH  31  32
ATOM     32  C   UNL     1      56.297  11.178   5.462  0.00  0.00    +0.000 C 
ATOM     33  C   UNL     1      56.582  11.694   6.861  0.00  0.00    +0.000 C 
BRANCH  32  35
ATOM     34  O   UNL     1      56.920  11.852   3.229  0.00  0.00    +0.000 OA
ATOM     35  C   UNL     1      56.251  12.021   4.238  0.00  0.00    +0.000 C 
BRANCH  35  36
ATOM     36  O   UNL     1      55.375  13.047   4.302  0.00  0.00    +0.000 OA
ATOM     37  H   UNL     1      55.744  13.736   3.711  0.00  0.00    +0.000 HD
ENDBRANCH  35  36
ENDBRANCH  32  35
ENDBRANCH  31  32
ENDBRANCH   8  30
BRANCH  20  38
ATOM     38  C   UNL     1      55.841   7.207  10.260  0.00  0.00    +0.000 C 
ATOM     39  C   UNL     1      57.337   7.338  10.580  0.00  0.00    +0.000 C 
BRANCH  39  40
ATOM     40  C   UNL     1      58.599   7.469  10.848  0.00  0.00    +0.000 C 
ATOM     41  C   UNL     1      59.063   7.367  12.270  0.00  0.00    +0.000 C 
ATOM     42  C   UNL     1      59.598   7.474   9.733  0.00  0.00    +0.000 C 
ENDBRANCH  39  40
ENDBRANCH  20  38
BRANCH  25  43
ATOM     43  C   UNL     1      53.314   6.506  14.399  0.00  0.00    +0.000 C 
BRANCH  43  44
ATOM     44  C   UNL     1      53.650   5.431  15.440  0.00  0.00    +0.000 C 
ATOM     45  C   UNL     1      53.988   4.355  16.483  0.00  0.00    +0.000 C 
BRANCH  45  46
ATOM     46  C   UNL     1      54.280   3.446  17.359  0.00  0.00    +0.000 C 
ATOM     47  C   UNL     1      55.171   3.789  18.513  0.00  0.00    +0.000 C 
ATOM     48  C   UNL     1      53.878   2.023  17.124  0.00  0.00    +0.000 C 
ENDBRANCH  45  46
ENDBRANCH  43  44
ENDBRANCH  25  43
TORSDOF 10
ENDMDL
