MODEL 1
REMARK VINA RESULT:      -7.8      0.000      0.000
REMARK  Name = AFLATOXIN.pdbqt.pdb
REMARK  1 active torsions:
REMARK  status: ('A' for Active; 'I' for Inactive)
REMARK    1  A    between atoms: C_15  and  O_23
REMARK                            x       y       z     vdW  Elec       q    Type
REMARK                         _______ _______ _______ _____ _____    ______ ____
ROOT
ATOM      1  O   UNL     1      45.520  -5.291  17.316  0.00  0.00    +0.000 OA
ATOM      2  O   UNL     1      45.468  -4.446  19.637  0.00  0.00    +0.000 OA
ATOM      3  O   UNL     1      43.285  -1.393  15.910  0.00  0.00    +0.000 OA
ATOM      4  O   UNL     1      40.447  -0.965  11.832  0.00  0.00    +0.000 OA
ATOM      5  O   UNL     1      42.427   0.598  15.297  0.00  0.00    +0.000 OA
ATOM      6  O   UNL     1      40.728   0.756  13.253  0.00  0.00    +0.000 OA
ATOM      7  C   UNL     1      45.017  -3.061  17.800  0.00  0.00    +0.000 C 
ATOM      8  C   UNL     1      44.412  -3.399  16.528  0.00  0.00    +0.000 A 
ATOM      9  C   UNL     1      45.722  -4.282  18.262  0.00  0.00    +0.000 C 
ATOM     10  C   UNL     1      44.780  -4.727  16.289  0.00  0.00    +0.000 A 
ATOM     11  C   UNL     1      43.610  -2.721  15.629  0.00  0.00    +0.000 A 
ATOM     12  C   UNL     1      43.161  -3.347  14.467  0.00  0.00    +0.000 A 
ATOM     13  C   UNL     1      44.406  -2.504  18.954  0.00  0.00    +0.000 C 
ATOM     14  C   UNL     1      42.271  -2.558  13.598  0.00  0.00    +0.000 A 
ATOM     15  C   UNL     1      43.587  -4.685  14.229  0.00  0.00    +0.000 A 
ATOM     16  C   UNL     1      44.375  -5.394  15.155  0.00  0.00    +0.000 A 
ATOM     17  C   UNL     1      41.661  -3.117  12.452  0.00  0.00    +0.000 A 
ATOM     18  C   UNL     1      41.959  -1.253  13.850  0.00  0.00    +0.000 A 
ATOM     19  C   UNL     1      44.759  -3.323  19.750  0.00  0.00    +0.000 C 
ATOM     20  C   UNL     1      40.791  -2.220  11.665  0.00  0.00    +0.000 A 
ATOM     21  C   UNL     1      42.553  -0.591  15.043  0.00  0.00    +0.000 A 
ATOM     22  C   UNL     1      41.012  -0.402  12.970  0.00  0.00    +0.000 A 
ENDROOT
BRANCH  15  23
ATOM     23  O   UNL     1      43.166  -5.373  13.111  0.00  0.00    +0.000 OA
ATOM     24  C   UNL     1      43.472  -6.740  13.223  0.00  0.00    +0.000 C 
ENDBRANCH  15  23
TORSDOF 1
ENDMDL
MODEL 2
REMARK VINA RESULT:      -7.5      1.976      4.103
REMARK  Name = AFLATOXIN.pdbqt.pdb
REMARK  1 active torsions:
REMARK  status: ('A' for Active; 'I' for Inactive)
REMARK    1  A    between atoms: C_15  and  O_23
REMARK                            x       y       z     vdW  Elec       q    Type
REMARK                         _______ _______ _______ _____ _____    ______ ____
ROOT
ATOM      1  O   UNL     1      44.533  -1.833  19.081  0.00  0.00    +0.000 OA
ATOM      2  O   UNL     1      46.377  -3.371  18.499  0.00  0.00    +0.000 OA
ATOM      3  O   UNL     1      42.398  -2.958  15.037  0.00  0.00    +0.000 OA
ATOM      4  O   UNL     1      39.141  -0.105  12.564  0.00  0.00    +0.000 OA
ATOM      5  O   UNL     1      41.342  -3.726  13.202  0.00  0.00    +0.000 OA
ATOM      6  O   UNL     1      39.789  -2.106  11.769  0.00  0.00    +0.000 OA
ATOM      7  C   UNL     1      44.321  -3.412  17.372  0.00  0.00    +0.000 C 
ATOM      8  C   UNL     1      43.405  -2.323  17.102  0.00  0.00    +0.000 A 
ATOM      9  C   UNL     1      45.009  -3.072  18.642  0.00  0.00    +0.000 C 
ATOM     10  C   UNL     1      43.562  -1.439  18.174  0.00  0.00    +0.000 A 
ATOM     11  C   UNL     1      42.525  -2.033  16.076  0.00  0.00    +0.000 A 
ATOM     12  C   UNL     1      41.775  -0.858  16.097  0.00  0.00    +0.000 A 
ATOM     13  C   UNL     1      45.317  -3.966  16.526  0.00  0.00    +0.000 C 
ATOM     14  C   UNL     1      40.904  -0.614  14.933  0.00  0.00    +0.000 A 
ATOM     15  C   UNL     1      41.923   0.003  17.221  0.00  0.00    +0.000 A 
ATOM     16  C   UNL     1      42.842  -0.268  18.253  0.00  0.00    +0.000 A 
ATOM     17  C   UNL     1      40.180   0.590  14.784  0.00  0.00    +0.000 A 
ATOM     18  C   UNL     1      40.756  -1.517  13.920  0.00  0.00    +0.000 A 
ATOM     19  C   UNL     1      46.249  -3.870  17.269  0.00  0.00    +0.000 C 
ATOM     20  C   UNL     1      39.343   0.709  13.574  0.00  0.00    +0.000 A 
ATOM     21  C   UNL     1      41.490  -2.809  13.996  0.00  0.00    +0.000 A 
ATOM     22  C   UNL     1      39.865  -1.285  12.675  0.00  0.00    +0.000 A 
ENDROOT
BRANCH  15  23
ATOM     23  O   UNL     1      41.229   1.190  17.299  0.00  0.00    +0.000 OA
ATOM     24  C   UNL     1      40.475   1.250  18.484  0.00  0.00    +0.000 C 
ENDBRANCH  15  23
TORSDOF 1
ENDMDL
MODEL 3
REMARK VINA RESULT:      -7.4     19.191     21.910
REMARK  Name = AFLATOXIN.pdbqt.pdb
REMARK  1 active torsions:
REMARK  status: ('A' for Active; 'I' for Inactive)
REMARK    1  A    between atoms: C_15  and  O_23
REMARK                            x       y       z     vdW  Elec       q    Type
REMARK                         _______ _______ _______ _____ _____    ______ ____
ROOT
ATOM      1  O   UNL     1      32.745  13.668  21.234  0.00  0.00    +0.000 OA
ATOM      2  O   UNL     1      33.941  12.022  22.636  0.00  0.00    +0.000 OA
ATOM      3  O   UNL     1      36.864  15.727  20.248  0.00  0.00    +0.000 OA
ATOM      4  O   UNL     1      37.499  20.489  18.909  0.00  0.00    +0.000 OA
ATOM      5  O   UNL     1      38.892  16.503  19.647  0.00  0.00    +0.000 OA
ATOM      6  O   UNL     1      39.248  19.097  19.164  0.00  0.00    +0.000 OA
ATOM      7  C   UNL     1      35.066  13.412  21.121  0.00  0.00    +0.000 C 
ATOM      8  C   UNL     1      34.734  14.756  20.694  0.00  0.00    +0.000 A 
ATOM      9  C   UNL     1      33.778  12.748  21.442  0.00  0.00    +0.000 C 
ATOM     10  C   UNL     1      33.338  14.825  20.755  0.00  0.00    +0.000 A 
ATOM     11  C   UNL     1      35.474  15.857  20.305  0.00  0.00    +0.000 A 
ATOM     12  C   UNL     1      34.842  17.051  19.962  0.00  0.00    +0.000 A 
ATOM     13  C   UNL     1      35.978  12.999  22.126  0.00  0.00    +0.000 C 
ATOM     14  C   UNL     1      35.720  18.181  19.611  0.00  0.00    +0.000 A 
ATOM     15  C   UNL     1      33.419  17.080  19.992  0.00  0.00    +0.000 A 
ATOM     16  C   UNL     1      32.659  15.975  20.420  0.00  0.00    +0.000 A 
ATOM     17  C   UNL     1      35.206  19.472  19.353  0.00  0.00    +0.000 A 
ATOM     18  C   UNL     1      37.079  18.065  19.533  0.00  0.00    +0.000 A 
ATOM     19  C   UNL     1      35.236  12.311  22.762  0.00  0.00    +0.000 C 
ATOM     20  C   UNL     1      36.192  20.517  19.011  0.00  0.00    +0.000 A 
ATOM     21  C   UNL     1      37.702  16.740  19.797  0.00  0.00    +0.000 A 
ATOM     22  C   UNL     1      38.031  19.235  19.187  0.00  0.00    +0.000 A 
ENDROOT
BRANCH  15  23
ATOM     23  O   UNL     1      32.728  18.232  19.685  0.00  0.00    +0.000 OA
ATOM     24  C   UNL     1      31.855  18.016  18.606  0.00  0.00    +0.000 C 
ENDBRANCH  15  23
TORSDOF 1
ENDMDL
MODEL 4
REMARK VINA RESULT:      -7.1     19.666     22.316
REMARK  Name = AFLATOXIN.pdbqt.pdb
REMARK  1 active torsions:
REMARK  status: ('A' for Active; 'I' for Inactive)
REMARK    1  A    between atoms: C_15  and  O_23
REMARK                            x       y       z     vdW  Elec       q    Type
REMARK                         _______ _______ _______ _____ _____    ______ ____
ROOT
ATOM      1  O   UNL     1      31.472  13.993  20.852  0.00  0.00    +0.000 OA
ATOM      2  O   UNL     1      29.619  14.530  19.307  0.00  0.00    +0.000 OA
ATOM      3  O   UNL     1      33.809  17.759  19.262  0.00  0.00    +0.000 OA
ATOM      4  O   UNL     1      38.758  18.370  19.339  0.00  0.00    +0.000 OA
ATOM      5  O   UNL     1      34.749  19.701  18.613  0.00  0.00    +0.000 OA
ATOM      6  O   UNL     1      37.397  19.920  18.441  0.00  0.00    +0.000 OA
ATOM      7  C   UNL     1      31.314  16.074  19.799  0.00  0.00    +0.000 C 
ATOM      8  C   UNL     1      32.705  15.831  20.124  0.00  0.00    +0.000 A 
ATOM      9  C   UNL     1      30.561  14.892  20.288  0.00  0.00    +0.000 C 
ATOM     10  C   UNL     1      32.718  14.594  20.776  0.00  0.00    +0.000 A 
ATOM     11  C   UNL     1      33.882  16.521  19.905  0.00  0.00    +0.000 A 
ATOM     12  C   UNL     1      35.101  15.999  20.336  0.00  0.00    +0.000 A 
ATOM     13  C   UNL     1      30.740  16.410  18.546  0.00  0.00    +0.000 C 
ATOM     14  C   UNL     1      36.304  16.785  20.010  0.00  0.00    +0.000 A 
ATOM     15  C   UNL     1      35.080  14.758  21.034  0.00  0.00    +0.000 A 
ATOM     16  C   UNL     1      33.889  14.032  21.231  0.00  0.00    +0.000 A 
ATOM     17  C   UNL     1      37.604  16.308  20.293  0.00  0.00    +0.000 A 
ATOM     18  C   UNL     1      36.246  18.004  19.399  0.00  0.00    +0.000 A 
ATOM     19  C   UNL     1      29.918  15.543  18.493  0.00  0.00    +0.000 C 
ATOM     20  C   UNL     1      38.726  17.193  19.918  0.00  0.00    +0.000 A 
ATOM     21  C   UNL     1      34.915  18.575  19.059  0.00  0.00    +0.000 A 
ATOM     22  C   UNL     1      37.491  18.846  19.024  0.00  0.00    +0.000 A 
ENDROOT
BRANCH  15  23
ATOM     23  O   UNL     1      36.248  14.173  21.471  0.00  0.00    +0.000 OA
ATOM     24  C   UNL     1      36.014  13.383  22.609  0.00  0.00    +0.000 C 
ENDBRANCH  15  23
TORSDOF 1
ENDMDL
MODEL 5
REMARK VINA RESULT:      -6.5     12.233     14.066
REMARK  Name = AFLATOXIN.pdbqt.pdb
REMARK  1 active torsions:
REMARK  status: ('A' for Active; 'I' for Inactive)
REMARK    1  A    between atoms: C_15  and  O_23
REMARK                            x       y       z     vdW  Elec       q    Type
REMARK                         _______ _______ _______ _____ _____    ______ ____
ROOT
ATOM      1  O   UNL     1      52.097   2.509   2.734  0.00  0.00    +0.000 OA
ATOM      2  O   UNL     1      50.959   0.896   1.248  0.00  0.00    +0.000 OA
ATOM      3  O   UNL     1      50.375   0.196   6.458  0.00  0.00    +0.000 OA
ATOM      4  O   UNL     1      49.587   2.131  10.986  0.00  0.00    +0.000 OA
ATOM      5  O   UNL     1      49.704  -1.101   8.174  0.00  0.00    +0.000 OA
ATOM      6  O   UNL     1      49.066  -0.006  10.515  0.00  0.00    +0.000 OA
ATOM      7  C   UNL     1      51.241   0.488   3.539  0.00  0.00    +0.000 C 
ATOM      8  C   UNL     1      51.287   1.433   4.636  0.00  0.00    +0.000 A 
ATOM      9  C   UNL     1      51.775   1.202   2.353  0.00  0.00    +0.000 C 
ATOM     10  C   UNL     1      51.836   2.599   4.093  0.00  0.00    +0.000 A 
ATOM     11  C   UNL     1      50.905   1.391   5.964  0.00  0.00    +0.000 A 
ATOM     12  C   UNL     1      51.067   2.506   6.785  0.00  0.00    +0.000 A 
ATOM     13  C   UNL     1      50.141  -0.276   3.070  0.00  0.00    +0.000 C 
ATOM     14  C   UNL     1      50.583   2.378   8.170  0.00  0.00    +0.000 A 
ATOM     15  C   UNL     1      51.668   3.665   6.215  0.00  0.00    +0.000 A 
ATOM     16  C   UNL     1      52.028   3.728   4.855  0.00  0.00    +0.000 A 
ATOM     17  C   UNL     1      50.589   3.472   9.065  0.00  0.00    +0.000 A 
ATOM     18  C   UNL     1      50.080   1.212   8.672  0.00  0.00    +0.000 A 
ATOM     19  C   UNL     1      50.178   0.051   1.922  0.00  0.00    +0.000 C 
ATOM     20  C   UNL     1      50.077   3.212  10.426  0.00  0.00    +0.000 A 
ATOM     21  C   UNL     1      50.031   0.014   7.792  0.00  0.00    +0.000 A 
ATOM     22  C   UNL     1      49.545   1.049  10.116  0.00  0.00    +0.000 A 
ENDROOT
BRANCH  15  23
ATOM     23  O   UNL     1      51.841   4.811   6.961  0.00  0.00    +0.000 OA
ATOM     24  C   UNL     1      51.668   5.955   6.164  0.00  0.00    +0.000 C 
ENDBRANCH  15  23
TORSDOF 1
ENDMDL
MODEL 6
REMARK VINA RESULT:      -6.4     13.253     14.569
REMARK  Name = AFLATOXIN.pdbqt.pdb
REMARK  1 active torsions:
REMARK  status: ('A' for Active; 'I' for Inactive)
REMARK    1  A    between atoms: C_15  and  O_23
REMARK                            x       y       z     vdW  Elec       q    Type
REMARK                         _______ _______ _______ _____ _____    ______ ____
ROOT
ATOM      1  O   UNL     1      51.038   6.628   9.870  0.00  0.00    +0.000 OA
ATOM      2  O   UNL     1      50.786   8.927   8.998  0.00  0.00    +0.000 OA
ATOM      3  O   UNL     1      52.120   5.166   5.527  0.00  0.00    +0.000 OA
ATOM      4  O   UNL     1      51.518   0.537   3.771  0.00  0.00    +0.000 OA
ATOM      5  O   UNL     1      52.852   4.600   3.472  0.00  0.00    +0.000 OA
ATOM      6  O   UNL     1      52.310   2.193   2.470  0.00  0.00    +0.000 OA
ATOM      7  C   UNL     1      51.837   7.237   7.760  0.00  0.00    +0.000 C 
ATOM      8  C   UNL     1      51.578   5.811   7.756  0.00  0.00    +0.000 A 
ATOM      9  C   UNL     1      51.495   7.717   9.121  0.00  0.00    +0.000 C 
ATOM     10  C   UNL     1      51.139   5.515   9.050  0.00  0.00    +0.000 A 
ATOM     11  C   UNL     1      51.661   4.817   6.799  0.00  0.00    +0.000 A 
ATOM     12  C   UNL     1      51.314   3.503   7.109  0.00  0.00    +0.000 A 
ATOM     13  C   UNL     1      51.358   8.229   6.865  0.00  0.00    +0.000 C 
ATOM     14  C   UNL     1      51.387   2.527   6.008  0.00  0.00    +0.000 A 
ATOM     15  C   UNL     1      50.910   3.223   8.446  0.00  0.00    +0.000 A 
ATOM     16  C   UNL     1      50.790   4.236   9.417  0.00  0.00    +0.000 A 
ATOM     17  C   UNL     1      50.955   1.190   6.168  0.00  0.00    +0.000 A 
ATOM     18  C   UNL     1      51.851   2.849   4.765  0.00  0.00    +0.000 A 
ATOM     19  C   UNL     1      50.890   8.977   7.670  0.00  0.00    +0.000 C 
ATOM     20  C   UNL     1      51.082   0.312   4.987  0.00  0.00    +0.000 A 
ATOM     21  C   UNL     1      52.318   4.238   4.511  0.00  0.00    +0.000 A 
ATOM     22  C   UNL     1      51.922   1.853   3.582  0.00  0.00    +0.000 A 
ENDROOT
BRANCH  15  23
ATOM     23  O   UNL     1      50.533   1.951   8.819  0.00  0.00    +0.000 OA
ATOM     24  C   UNL     1      49.238   1.955   9.364  0.00  0.00    +0.000 C 
ENDBRANCH  15  23
TORSDOF 1
ENDMDL
MODEL 7
REMARK VINA RESULT:      -6.4     18.792     21.897
REMARK  Name = AFLATOXIN.pdbqt.pdb
REMARK  1 active torsions:
REMARK  status: ('A' for Active; 'I' for Inactive)
REMARK    1  A    between atoms: C_15  and  O_23
REMARK                            x       y       z     vdW  Elec       q    Type
REMARK                         _______ _______ _______ _____ _____    ______ ____
ROOT
ATOM      1  O   UNL     1      34.920  18.874  22.268  0.00  0.00    +0.000 OA
ATOM      2  O   UNL     1      34.825  19.502  19.880  0.00  0.00    +0.000 OA
ATOM      3  O   UNL     1      35.805  14.426  21.001  0.00  0.00    +0.000 OA
ATOM      4  O   UNL     1      34.821  10.365  23.723  0.00  0.00    +0.000 OA
ATOM      5  O   UNL     1      36.452  12.381  20.311  0.00  0.00    +0.000 OA
ATOM      6  O   UNL     1      35.711  10.211  21.663  0.00  0.00    +0.000 OA
ATOM      7  C   UNL     1      35.721  17.456  20.592  0.00  0.00    +0.000 C 
ATOM      8  C   UNL     1      35.356  16.647  21.738  0.00  0.00    +0.000 A 
ATOM      9  C   UNL     1      35.443  18.863  20.972  0.00  0.00    +0.000 C 
ATOM     10  C   UNL     1      34.920  17.559  22.705  0.00  0.00    +0.000 A 
ATOM     11  C   UNL     1      35.345  15.290  21.998  0.00  0.00    +0.000 A 
ATOM     12  C   UNL     1      34.905  14.807  23.229  0.00  0.00    +0.000 A 
ATOM     13  C   UNL     1      35.302  17.326  19.243  0.00  0.00    +0.000 C 
ATOM     14  C   UNL     1      34.883  13.343  23.391  0.00  0.00    +0.000 A 
ATOM     15  C   UNL     1      34.507  15.760  24.210  0.00  0.00    +0.000 A 
ATOM     16  C   UNL     1      34.483  17.142  23.942  0.00  0.00    +0.000 A 
ATOM     17  C   UNL     1      34.354  12.729  24.549  0.00  0.00    +0.000 A 
ATOM     18  C   UNL     1      35.346  12.487  22.433  0.00  0.00    +0.000 A 
ATOM     19  C   UNL     1      34.907  18.442  19.075  0.00  0.00    +0.000 C 
ATOM     20  C   UNL     1      34.392  11.254  24.588  0.00  0.00    +0.000 A 
ATOM     21  C   UNL     1      35.912  13.052  21.179  0.00  0.00    +0.000 A 
ATOM     22  C   UNL     1      35.319  10.945  22.563  0.00  0.00    +0.000 A 
ENDROOT
BRANCH  15  23
ATOM     23  O   UNL     1      34.042  15.355  25.442  0.00  0.00    +0.000 OA
ATOM     24  C   UNL     1      34.081  16.415  26.363  0.00  0.00    +0.000 C 
ENDBRANCH  15  23
TORSDOF 1
ENDMDL
MODEL 8
REMARK VINA RESULT:      -6.1     20.935     23.921
REMARK  Name = AFLATOXIN.pdbqt.pdb
REMARK  1 active torsions:
REMARK  status: ('A' for Active; 'I' for Inactive)
REMARK    1  A    between atoms: C_15  and  O_23
REMARK                            x       y       z     vdW  Elec       q    Type
REMARK                         _______ _______ _______ _____ _____    ______ ____
ROOT
ATOM      1  O   UNL     1      30.601  17.747  19.379  0.00  0.00    +0.000 OA
ATOM      2  O   UNL     1      29.641  19.319  17.731  0.00  0.00    +0.000 OA
ATOM      3  O   UNL     1      34.812  19.762  18.757  0.00  0.00    +0.000 OA
ATOM      4  O   UNL     1      39.231  17.592  19.548  0.00  0.00    +0.000 OA
ATOM      5  O   UNL     1      36.728  20.931  18.570  0.00  0.00    +0.000 OA
ATOM      6  O   UNL     1      39.079  19.696  18.767  0.00  0.00    +0.000 OA
ATOM      7  C   UNL     1      31.756  19.657  18.686  0.00  0.00    +0.000 C 
ATOM      8  C   UNL     1      32.724  18.677  19.134  0.00  0.00    +0.000 A 
ATOM      9  C   UNL     1      30.420  19.036  18.869  0.00  0.00    +0.000 C 
ATOM     10  C   UNL     1      31.965  17.582  19.561  0.00  0.00    +0.000 A 
ATOM     11  C   UNL     1      34.105  18.635  19.183  0.00  0.00    +0.000 A 
ATOM     12  C   UNL     1      34.763  17.505  19.665  0.00  0.00    +0.000 A 
ATOM     13  C   UNL     1      31.698  20.347  17.447  0.00  0.00    +0.000 C 
ATOM     14  C   UNL     1      36.236  17.538  19.630  0.00  0.00    +0.000 A 
ATOM     15  C   UNL     1      33.965  16.423  20.133  0.00  0.00    +0.000 A 
ATOM     16  C   UNL     1      32.559  16.443  20.055  0.00  0.00    +0.000 A 
ATOM     17  C   UNL     1      37.015  16.414  19.986  0.00  0.00    +0.000 A 
ATOM     18  C   UNL     1      36.940  18.639  19.234  0.00  0.00    +0.000 A 
ATOM     19  C   UNL     1      30.575  20.069  17.146  0.00  0.00    +0.000 C 
ATOM     20  C   UNL     1      38.481  16.578  19.909  0.00  0.00    +0.000 A 
ATOM     21  C   UNL     1      36.195  19.863  18.834  0.00  0.00    +0.000 A 
ATOM     22  C   UNL     1      38.486  18.700  19.165  0.00  0.00    +0.000 A 
ENDROOT
BRANCH  15  23
ATOM     23  O   UNL     1      34.548  15.266  20.604  0.00  0.00    +0.000 OA
ATOM     24  C   UNL     1      33.568  14.346  21.014  0.00  0.00    +0.000 C 
ENDBRANCH  15  23
TORSDOF 1
ENDMDL
MODEL 9
REMARK VINA RESULT:      -6.1     18.188     20.917
REMARK  Name = AFLATOXIN.pdbqt.pdb
REMARK  1 active torsions:
REMARK  status: ('A' for Active; 'I' for Inactive)
REMARK    1  A    between atoms: C_15  and  O_23
REMARK                            x       y       z     vdW  Elec       q    Type
REMARK                         _______ _______ _______ _____ _____    ______ ____
ROOT
ATOM      1  O   UNL     1      32.488  11.424  21.842  0.00  0.00    +0.000 OA
ATOM      2  O   UNL     1      34.102   9.823  22.811  0.00  0.00    +0.000 OA
ATOM      3  O   UNL     1      36.073  14.270  20.733  0.00  0.00    +0.000 OA
ATOM      4  O   UNL     1      35.795  19.211  20.121  0.00  0.00    +0.000 OA
ATOM      5  O   UNL     1      37.857  15.455  20.035  0.00  0.00    +0.000 OA
ATOM      6  O   UNL     1      37.750  18.114  19.942  0.00  0.00    +0.000 OA
ATOM      7  C   UNL     1      34.782  11.584  21.421  0.00  0.00    +0.000 C 
ATOM      8  C   UNL     1      34.196  12.899  21.259  0.00  0.00    +0.000 A 
ATOM      9  C   UNL     1      33.666  10.673  21.777  0.00  0.00    +0.000 C 
ATOM     10  C   UNL     1      32.828  12.722  21.492  0.00  0.00    +0.000 A 
ATOM     11  C   UNL     1      34.701  14.153  20.971  0.00  0.00    +0.000 A 
ATOM     12  C   UNL     1      33.856  15.259  20.902  0.00  0.00    +0.000 A 
ATOM     13  C   UNL     1      35.878  11.193  22.233  0.00  0.00    +0.000 C 
ATOM     14  C   UNL     1      34.497  16.560  20.640  0.00  0.00    +0.000 A 
ATOM     15  C   UNL     1      32.463  15.042  21.101  0.00  0.00    +0.000 A 
ATOM     16  C   UNL     1      31.945  13.775  21.429  0.00  0.00    +0.000 A 
ATOM     17  C   UNL     1      33.764  17.768  20.656  0.00  0.00    +0.000 A 
ATOM     18  C   UNL     1      35.833  16.687  20.387  0.00  0.00    +0.000 A 
ATOM     19  C   UNL     1      35.344  10.307  22.831  0.00  0.00    +0.000 C 
ATOM     20  C   UNL     1      34.525  19.003  20.377  0.00  0.00    +0.000 A 
ATOM     21  C   UNL     1      36.678  15.463  20.359  0.00  0.00    +0.000 A 
ATOM     22  C   UNL     1      36.541  18.039  20.127  0.00  0.00    +0.000 A 
ENDROOT
BRANCH  15  23
ATOM     23  O   UNL     1      31.572  16.092  21.067  0.00  0.00    +0.000 OA
ATOM     24  C   UNL     1      30.379  15.713  20.429  0.00  0.00    +0.000 C 
ENDBRANCH  15  23
TORSDOF 1
ENDMDL
