MODEL 1
REMARK VINA RESULT:      -7.3      0.000      0.000
REMARK  Name = AZD4547.pdbqt.pdb
REMARK  6 active torsions:
REMARK  status: ('A' for Active; 'I' for Inactive)
REMARK    1  A    between atoms: C_3  and  C_23
REMARK    2  A    between atoms: C_8  and  C_11
REMARK    3  A    between atoms: C_12  and  C_13
REMARK    4  A    between atoms: C_15  and  O_19
REMARK    5  A    between atoms: C_17  and  O_21
REMARK    6  A    between atoms: C_26  and  N_29
REMARK                            x       y       z     vdW  Elec       q    Type
REMARK                         _______ _______ _______ _____ _____    ______ ____
ROOT
ATOM      1  O   UNL     1      41.601   3.683  22.880  0.00  0.00    +0.000 OA
ATOM      2  N   UNL     1      40.396   5.479  22.055  0.00  0.00    +0.000 N 
ATOM      3  C   UNL     1      41.171   4.826  22.987  0.00  0.00    +0.000 C 
ATOM      4  H   UNL     1      40.062   6.422  22.188  0.00  0.00    +0.000 HD
ATOM      5  C   UNL     1      39.996   4.935  20.858  0.00  0.00    +0.000 A 
ATOM      6  N   UNL     1      39.240   5.671  20.036  0.00  0.00    +0.000 NA
ATOM      7  N   UNL     1      39.032   4.859  18.983  0.00  0.00    +0.000 N 
ATOM      8  C   UNL     1      39.627   3.639  19.105  0.00  0.00    +0.000 A 
ATOM      9  H   UNL     1      38.473   5.202  18.209  0.00  0.00    +0.000 HD
ATOM     10  C   UNL     1      40.265   3.652  20.320  0.00  0.00    +0.000 A 
ENDROOT
BRANCH   3  11
ATOM     11  C   UNL     1      41.496   5.595  24.214  0.00  0.00    +0.000 A 
ATOM     12  C   UNL     1      41.389   4.955  25.448  0.00  0.00    +0.000 A 
ATOM     13  C   UNL     1      41.685   5.645  26.621  0.00  0.00    +0.000 A 
ATOM     14  C   UNL     1      42.080   6.989  26.592  0.00  0.00    +0.000 A 
ATOM     15  C   UNL     1      42.200   7.610  25.342  0.00  0.00    +0.000 A 
ATOM     16  C   UNL     1      41.905   6.925  24.163  0.00  0.00    +0.000 A 
BRANCH  14  17
ATOM     17  N   UNL     1      42.424   7.675  27.781  0.00  0.00    +0.000 N 
ATOM     18  C   UNL     1      41.539   8.757  28.247  0.00  0.00    +0.000 C 
ATOM     19  C   UNL     1      41.715  10.116  28.639  0.00  0.00    +0.000 C 
ATOM     20  N   UNL     1      43.048  10.626  28.596  0.00  0.00    +0.000 N 
ATOM     21  C   UNL     1      40.582  10.990  29.044  0.00  0.00    +0.000 C 
ATOM     22  C   UNL     1      44.086   9.745  28.167  0.00  0.00    +0.000 C 
ATOM     23  H   UNL     1      43.245  11.585  28.837  0.00  0.00    +0.000 HD
ATOM     24  C   UNL     1      43.694   8.419  27.817  0.00  0.00    +0.000 C 
ATOM     25  C   UNL     1      45.489  10.222  28.055  0.00  0.00    +0.000 C 
ENDBRANCH  14  17
ENDBRANCH   3  11
BRANCH   8  26
ATOM     26  C   UNL     1      39.570   2.601  18.145  0.00  0.00    +0.000 C 
ATOM     27  C   UNL     1      39.510   1.479  17.102  0.00  0.00    +0.000 C 
BRANCH  27  28
ATOM     28  C   UNL     1      39.457   0.443  16.126  0.00  0.00    +0.000 A 
ATOM     29  C   UNL     1      39.055  -0.838  16.495  0.00  0.00    +0.000 A 
ATOM     30  C   UNL     1      38.996  -1.857  15.541  0.00  0.00    +0.000 A 
ATOM     31  C   UNL     1      39.341  -1.576  14.217  0.00  0.00    +0.000 A 
ATOM     32  C   UNL     1      39.750  -0.295  13.844  0.00  0.00    +0.000 A 
ATOM     33  C   UNL     1      39.805   0.715  14.806  0.00  0.00    +0.000 A 
BRANCH  30  34
ATOM     34  O   UNL     1      38.607  -3.149  15.792  0.00  0.00    +0.000 OA
ATOM     35  C   UNL     1      39.113  -3.711  16.970  0.00  0.00    +0.000 C 
ENDBRANCH  30  34
BRANCH  32  36
ATOM     36  O   UNL     1      40.064  -0.135  12.517  0.00  0.00    +0.000 OA
ATOM     37  C   UNL     1      41.243  -0.766  12.096  0.00  0.00    +0.000 C 
ENDBRANCH  32  36
ENDBRANCH  27  28
ENDBRANCH   8  26
TORSDOF 6
ENDMDL
MODEL 2
REMARK VINA RESULT:      -7.2      0.924      2.299
REMARK  Name = AZD4547.pdbqt.pdb
REMARK  6 active torsions:
REMARK  status: ('A' for Active; 'I' for Inactive)
REMARK    1  A    between atoms: C_3  and  C_23
REMARK    2  A    between atoms: C_8  and  C_11
REMARK    3  A    between atoms: C_12  and  C_13
REMARK    4  A    between atoms: C_15  and  O_19
REMARK    5  A    between atoms: C_17  and  O_21
REMARK    6  A    between atoms: C_26  and  N_29
REMARK                            x       y       z     vdW  Elec       q    Type
REMARK                         _______ _______ _______ _____ _____    ______ ____
ROOT
ATOM      1  O   UNL     1      41.097   3.343  22.520  0.00  0.00    +0.000 OA
ATOM      2  N   UNL     1      40.005   5.144  21.558  0.00  0.00    +0.000 N 
ATOM      3  C   UNL     1      40.679   4.495  22.568  0.00  0.00    +0.000 C 
ATOM      4  H   UNL     1      39.677   6.094  21.644  0.00  0.00    +0.000 HD
ATOM      5  C   UNL     1      39.709   4.585  20.338  0.00  0.00    +0.000 A 
ATOM      6  N   UNL     1      39.047   5.319  19.437  0.00  0.00    +0.000 NA
ATOM      7  N   UNL     1      38.924   4.492  18.382  0.00  0.00    +0.000 N 
ATOM      8  C   UNL     1      39.484   3.265  18.578  0.00  0.00    +0.000 A 
ATOM      9  H   UNL     1      38.445   4.830  17.554  0.00  0.00    +0.000 HD
ATOM     10  C   UNL     1      40.006   3.290  19.847  0.00  0.00    +0.000 A 
ENDROOT
BRANCH   3  11
ATOM     11  C   UNL     1      40.901   5.279  23.808  0.00  0.00    +0.000 A 
ATOM     12  C   UNL     1      42.092   5.993  23.940  0.00  0.00    +0.000 A 
ATOM     13  C   UNL     1      42.335   6.740  25.091  0.00  0.00    +0.000 A 
ATOM     14  C   UNL     1      41.407   6.780  26.139  0.00  0.00    +0.000 A 
ATOM     15  C   UNL     1      40.208   6.071  25.981  0.00  0.00    +0.000 A 
ATOM     16  C   UNL     1      39.958   5.321  24.832  0.00  0.00    +0.000 A 
BRANCH  14  17
ATOM     17  N   UNL     1      41.635   7.574  27.287  0.00  0.00    +0.000 N 
ATOM     18  C   UNL     1      40.635   8.596  27.643  0.00  0.00    +0.000 C 
ATOM     19  C   UNL     1      40.668   9.990  27.944  0.00  0.00    +0.000 C 
ATOM     20  N   UNL     1      41.949  10.621  27.911  0.00  0.00    +0.000 N 
ATOM     21  C   UNL     1      39.443  10.777  28.245  0.00  0.00    +0.000 C 
ATOM     22  C   UNL     1      43.081   9.816  27.582  0.00  0.00    +0.000 C 
ATOM     23  H   UNL     1      42.046  11.608  28.090  0.00  0.00    +0.000 HD
ATOM     24  C   UNL     1      42.828   8.438  27.315  0.00  0.00    +0.000 C 
ATOM     25  C   UNL     1      44.437  10.416  27.485  0.00  0.00    +0.000 C 
ENDBRANCH  14  17
ENDBRANCH   3  11
BRANCH   8  26
ATOM     26  C   UNL     1      39.499   2.212  17.633  0.00  0.00    +0.000 C 
ATOM     27  C   UNL     1      39.514   1.074  16.606  0.00  0.00    +0.000 C 
BRANCH  27  28
ATOM     28  C   UNL     1      39.529   0.023  15.645  0.00  0.00    +0.000 A 
ATOM     29  C   UNL     1      39.932   0.283  14.338  0.00  0.00    +0.000 A 
ATOM     30  C   UNL     1      39.953  -0.745  13.393  0.00  0.00    +0.000 A 
ATOM     31  C   UNL     1      39.571  -2.033  13.774  0.00  0.00    +0.000 A 
ATOM     32  C   UNL     1      39.161  -2.298  15.081  0.00  0.00    +0.000 A 
ATOM     33  C   UNL     1      39.144  -1.261  16.017  0.00  0.00    +0.000 A 
BRANCH  30  34
ATOM     34  O   UNL     1      40.339  -0.603  12.083  0.00  0.00    +0.000 OA
ATOM     35  C   UNL     1      41.553  -1.211  11.745  0.00  0.00    +0.000 C 
ENDBRANCH  30  34
BRANCH  32  36
ATOM     36  O   UNL     1      38.808  -3.599  15.342  0.00  0.00    +0.000 OA
ATOM     37  C   UNL     1      39.750  -4.345  16.062  0.00  0.00    +0.000 C 
ENDBRANCH  32  36
ENDBRANCH  27  28
ENDBRANCH   8  26
TORSDOF 6
ENDMDL
MODEL 3
REMARK VINA RESULT:      -6.8      3.510     13.783
REMARK  Name = AZD4547.pdbqt.pdb
REMARK  6 active torsions:
REMARK  status: ('A' for Active; 'I' for Inactive)
REMARK    1  A    between atoms: C_3  and  C_23
REMARK    2  A    between atoms: C_8  and  C_11
REMARK    3  A    between atoms: C_12  and  C_13
REMARK    4  A    between atoms: C_15  and  O_19
REMARK    5  A    between atoms: C_17  and  O_21
REMARK    6  A    between atoms: C_26  and  N_29
REMARK                            x       y       z     vdW  Elec       q    Type
REMARK                         _______ _______ _______ _____ _____    ______ ____
ROOT
ATOM      1  O   UNL     1      41.939   1.419  20.096  0.00  0.00    +0.000 OA
ATOM      2  N   UNL     1      39.930   2.427  19.541  0.00  0.00    +0.000 N 
ATOM      3  C   UNL     1      40.937   1.499  19.395  0.00  0.00    +0.000 C 
ATOM      4  H   UNL     1      39.123   2.456  18.936  0.00  0.00    +0.000 HD
ATOM      5  C   UNL     1      39.907   3.402  20.509  0.00  0.00    +0.000 A 
ATOM      6  N   UNL     1      38.872   4.248  20.546  0.00  0.00    +0.000 NA
ATOM      7  N   UNL     1      39.157   5.053  21.587  0.00  0.00    +0.000 N 
ATOM      8  C   UNL     1      40.330   4.749  22.210  0.00  0.00    +0.000 A 
ATOM      9  H   UNL     1      38.504   5.794  21.820  0.00  0.00    +0.000 HD
ATOM     10  C   UNL     1      40.848   3.675  21.531  0.00  0.00    +0.000 A 
ENDROOT
BRANCH   3  11
ATOM     11  C   UNL     1      40.768   0.527  18.286  0.00  0.00    +0.000 A 
ATOM     12  C   UNL     1      41.833  -0.316  17.971  0.00  0.00    +0.000 A 
ATOM     13  C   UNL     1      41.711  -1.240  16.936  0.00  0.00    +0.000 A 
ATOM     14  C   UNL     1      40.533  -1.334  16.183  0.00  0.00    +0.000 A 
ATOM     15  C   UNL     1      39.467  -0.492  16.525  0.00  0.00    +0.000 A 
ATOM     16  C   UNL     1      39.582   0.436  17.561  0.00  0.00    +0.000 A 
BRANCH  14  17
ATOM     17  N   UNL     1      40.395  -2.303  15.162  0.00  0.00    +0.000 N 
ATOM     18  C   UNL     1      41.309  -3.459  15.163  0.00  0.00    +0.000 C 
ATOM     19  C   UNL     1      42.166  -4.080  14.208  0.00  0.00    +0.000 C 
ATOM     20  N   UNL     1      42.201  -3.493  12.906  0.00  0.00    +0.000 N 
ATOM     21  C   UNL     1      43.015  -5.256  14.532  0.00  0.00    +0.000 C 
ATOM     22  C   UNL     1      41.387  -2.346  12.669  0.00  0.00    +0.000 C 
ATOM     23  H   UNL     1      42.801  -3.865  12.185  0.00  0.00    +0.000 HD
ATOM     24  C   UNL     1      40.601  -1.883  13.765  0.00  0.00    +0.000 C 
ATOM     25  C   UNL     1      41.408  -1.658  11.351  0.00  0.00    +0.000 C 
ENDBRANCH  14  17
ENDBRANCH   3  11
BRANCH   8  26
ATOM     26  C   UNL     1      40.863   5.433  23.329  0.00  0.00    +0.000 C 
ATOM     27  C   UNL     1      41.443   6.170  24.541  0.00  0.00    +0.000 C 
BRANCH  27  28
ATOM     28  C   UNL     1      41.988   6.848  25.669  0.00  0.00    +0.000 A 
ATOM     29  C   UNL     1      42.086   6.191  26.893  0.00  0.00    +0.000 A 
ATOM     30  C   UNL     1      42.625   6.850  28.001  0.00  0.00    +0.000 A 
ATOM     31  C   UNL     1      43.066   8.168  27.866  0.00  0.00    +0.000 A 
ATOM     32  C   UNL     1      42.965   8.832  26.643  0.00  0.00    +0.000 A 
ATOM     33  C   UNL     1      42.425   8.163  25.542  0.00  0.00    +0.000 A 
BRANCH  30  34
ATOM     34  O   UNL     1      42.775   6.297  29.249  0.00  0.00    +0.000 OA
ATOM     35  C   UNL     1      42.733   4.899  29.296  0.00  0.00    +0.000 C 
ENDBRANCH  30  34
BRANCH  32  36
ATOM     36  O   UNL     1      43.431  10.123  26.628  0.00  0.00    +0.000 OA
ATOM     37  C   UNL     1      44.567  10.363  27.413  0.00  0.00    +0.000 C 
ENDBRANCH  32  36
ENDBRANCH  27  28
ENDBRANCH   8  26
TORSDOF 6
ENDMDL
MODEL 4
REMARK VINA RESULT:      -6.8     10.882     15.721
REMARK  Name = AZD4547.pdbqt.pdb
REMARK  6 active torsions:
REMARK  status: ('A' for Active; 'I' for Inactive)
REMARK    1  A    between atoms: C_3  and  C_23
REMARK    2  A    between atoms: C_8  and  C_11
REMARK    3  A    between atoms: C_12  and  C_13
REMARK    4  A    between atoms: C_15  and  O_19
REMARK    5  A    between atoms: C_17  and  O_21
REMARK    6  A    between atoms: C_26  and  N_29
REMARK                            x       y       z     vdW  Elec       q    Type
REMARK                         _______ _______ _______ _____ _____    ______ ____
ROOT
ATOM      1  O   UNL     1      31.297   9.944  21.864  0.00  0.00    +0.000 OA
ATOM      2  N   UNL     1      33.243   8.753  22.260  0.00  0.00    +0.000 N 
ATOM      3  C   UNL     1      31.880   8.899  22.130  0.00  0.00    +0.000 C 
ATOM      4  H   UNL     1      33.679   7.871  22.484  0.00  0.00    +0.000 HD
ATOM      5  C   UNL     1      34.151   9.772  22.102  0.00  0.00    +0.000 A 
ATOM      6  N   UNL     1      35.453   9.506  22.257  0.00  0.00    +0.000 NA
ATOM      7  N   UNL     1      36.049  10.692  22.038  0.00  0.00    +0.000 N 
ATOM      8  C   UNL     1      35.177  11.699  21.751  0.00  0.00    +0.000 A 
ATOM      9  H   UNL     1      37.060  10.746  22.101  0.00  0.00    +0.000 HD
ATOM     10  C   UNL     1      33.927  11.135  21.785  0.00  0.00    +0.000 A 
ENDROOT
BRANCH   3  11
ATOM     11  C   UNL     1      31.074   7.670  22.338  0.00  0.00    +0.000 A 
ATOM     12  C   UNL     1      29.874   7.771  23.040  0.00  0.00    +0.000 A 
ATOM     13  C   UNL     1      29.091   6.639  23.254  0.00  0.00    +0.000 A 
ATOM     14  C   UNL     1      29.493   5.381  22.788  0.00  0.00    +0.000 A 
ATOM     15  C   UNL     1      30.693   5.301  22.067  0.00  0.00    +0.000 A 
ATOM     16  C   UNL     1      31.481   6.430  21.849  0.00  0.00    +0.000 A 
BRANCH  14  17
ATOM     17  N   UNL     1      28.675   4.240  22.967  0.00  0.00    +0.000 N 
ATOM     18  C   UNL     1      29.244   3.073  23.664  0.00  0.00    +0.000 C 
ATOM     19  C   UNL     1      29.346   1.677  23.392  0.00  0.00    +0.000 C 
ATOM     20  N   UNL     1      28.784   1.223  22.160  0.00  0.00    +0.000 N 
ATOM     21  C   UNL     1      30.028   0.727  24.310  0.00  0.00    +0.000 C 
ATOM     22  C   UNL     1      28.173   2.191  21.309  0.00  0.00    +0.000 C 
ATOM     23  H   UNL     1      28.840   0.253  21.891  0.00  0.00    +0.000 HD
ATOM     24  C   UNL     1      28.177   3.541  21.770  0.00  0.00    +0.000 C 
ATOM     25  C   UNL     1      27.607   1.797  19.992  0.00  0.00    +0.000 C 
ENDBRANCH  14  17
ENDBRANCH   3  11
BRANCH   8  26
ATOM     26  C   UNL     1      35.537  13.041  21.478  0.00  0.00    +0.000 C 
ATOM     27  C   UNL     1      35.923  14.494  21.181  0.00  0.00    +0.000 C 
BRANCH  27  28
ATOM     28  C   UNL     1      36.273  15.846  20.903  0.00  0.00    +0.000 A 
ATOM     29  C   UNL     1      37.394  16.128  20.127  0.00  0.00    +0.000 A 
ATOM     30  C   UNL     1      37.740  17.452  19.847  0.00  0.00    +0.000 A 
ATOM     31  C   UNL     1      36.947  18.487  20.349  0.00  0.00    +0.000 A 
ATOM     32  C   UNL     1      35.825  18.210  21.131  0.00  0.00    +0.000 A 
ATOM     33  C   UNL     1      35.490  16.882  21.404  0.00  0.00    +0.000 A 
BRANCH  30  34
ATOM     34  O   UNL     1      38.816  17.842  19.089  0.00  0.00    +0.000 OA
ATOM     35  C   UNL     1      38.987  19.225  18.955  0.00  0.00    +0.000 C 
ENDBRANCH  30  34
BRANCH  32  36
ATOM     36  O   UNL     1      35.121  19.305  21.569  0.00  0.00    +0.000 OA
ATOM     37  C   UNL     1      35.648  20.548  21.194  0.00  0.00    +0.000 C 
ENDBRANCH  32  36
ENDBRANCH  27  28
ENDBRANCH   8  26
TORSDOF 6
ENDMDL
MODEL 5
REMARK VINA RESULT:      -6.8     11.083     15.881
REMARK  Name = AZD4547.pdbqt.pdb
REMARK  6 active torsions:
REMARK  status: ('A' for Active; 'I' for Inactive)
REMARK    1  A    between atoms: C_3  and  C_23
REMARK    2  A    between atoms: C_8  and  C_11
REMARK    3  A    between atoms: C_12  and  C_13
REMARK    4  A    between atoms: C_15  and  O_19
REMARK    5  A    between atoms: C_17  and  O_21
REMARK    6  A    between atoms: C_26  and  N_29
REMARK                            x       y       z     vdW  Elec       q    Type
REMARK                         _______ _______ _______ _____ _____    ______ ____
ROOT
ATOM      1  O   UNL     1      31.302  10.055  21.914  0.00  0.00    +0.000 OA
ATOM      2  N   UNL     1      33.261   8.870  22.262  0.00  0.00    +0.000 N 
ATOM      3  C   UNL     1      31.895   9.012  22.165  0.00  0.00    +0.000 C 
ATOM      4  H   UNL     1      33.704   7.990  22.473  0.00  0.00    +0.000 HD
ATOM      5  C   UNL     1      34.162   9.893  22.083  0.00  0.00    +0.000 A 
ATOM      6  N   UNL     1      35.467   9.630  22.206  0.00  0.00    +0.000 NA
ATOM      7  N   UNL     1      36.054  10.819  21.975  0.00  0.00    +0.000 N 
ATOM      8  C   UNL     1      35.173  11.823  21.710  0.00  0.00    +0.000 A 
ATOM      9  H   UNL     1      37.067  10.875  22.014  0.00  0.00    +0.000 HD
ATOM     10  C   UNL     1      33.925  11.254  21.774  0.00  0.00    +0.000 A 
ENDROOT
BRANCH   3  11
ATOM     11  C   UNL     1      31.097   7.780  22.389  0.00  0.00    +0.000 A 
ATOM     12  C   UNL     1      29.938   7.868  23.158  0.00  0.00    +0.000 A 
ATOM     13  C   UNL     1      29.165   6.733  23.390  0.00  0.00    +0.000 A 
ATOM     14  C   UNL     1      29.537   5.484  22.876  0.00  0.00    +0.000 A 
ATOM     15  C   UNL     1      30.696   5.418  22.090  0.00  0.00    +0.000 A 
ATOM     16  C   UNL     1      31.474   6.551  21.853  0.00  0.00    +0.000 A 
BRANCH  14  17
ATOM     17  N   UNL     1      28.727   4.342  23.075  0.00  0.00    +0.000 N 
ATOM     18  C   UNL     1      29.182   3.055  22.520  0.00  0.00    +0.000 C 
ATOM     19  C   UNL     1      28.607   2.042  21.698  0.00  0.00    +0.000 C 
ATOM     20  N   UNL     1      27.262   2.257  21.265  0.00  0.00    +0.000 N 
ATOM     21  C   UNL     1      29.356   0.831  21.269  0.00  0.00    +0.000 C 
ATOM     22  C   UNL     1      26.610   3.455  21.685  0.00  0.00    +0.000 C 
ATOM     23  H   UNL     1      26.799   1.594  20.663  0.00  0.00    +0.000 HD
ATOM     24  C   UNL     1      27.367   4.339  22.509  0.00  0.00    +0.000 C 
ATOM     25  C   UNL     1      25.228   3.765  21.235  0.00  0.00    +0.000 C 
ENDBRANCH  14  17
ENDBRANCH   3  11
BRANCH   8  26
ATOM     26  C   UNL     1      35.522  13.166  21.431  0.00  0.00    +0.000 C 
ATOM     27  C   UNL     1      35.899  14.621  21.132  0.00  0.00    +0.000 C 
BRANCH  27  28
ATOM     28  C   UNL     1      36.244  15.977  20.862  0.00  0.00    +0.000 A 
ATOM     29  C   UNL     1      35.467  17.008  21.383  0.00  0.00    +0.000 A 
ATOM     30  C   UNL     1      35.804  18.339  21.126  0.00  0.00    +0.000 A 
ATOM     31  C   UNL     1      36.928  18.622  20.347  0.00  0.00    +0.000 A 
ATOM     32  C   UNL     1      37.706  17.592  19.818  0.00  0.00    +0.000 A 
ATOM     33  C   UNL     1      37.359  16.266  20.082  0.00  0.00    +0.000 A 
BRANCH  30  34
ATOM     34  O   UNL     1      35.115  19.430  21.594  0.00  0.00    +0.000 OA
ATOM     35  C   UNL     1      33.952  19.142  22.317  0.00  0.00    +0.000 C 
ENDBRANCH  30  34
BRANCH  32  36
ATOM     36  O   UNL     1      38.786  17.989  19.068  0.00  0.00    +0.000 OA
ATOM     37  C   UNL     1      38.963  19.374  18.953  0.00  0.00    +0.000 C 
ENDBRANCH  32  36
ENDBRANCH  27  28
ENDBRANCH   8  26
TORSDOF 6
ENDMDL
MODEL 6
REMARK VINA RESULT:      -6.7     22.444     26.673
REMARK  Name = AZD4547.pdbqt.pdb
REMARK  6 active torsions:
REMARK  status: ('A' for Active; 'I' for Inactive)
REMARK    1  A    between atoms: C_3  and  C_23
REMARK    2  A    between atoms: C_8  and  C_11
REMARK    3  A    between atoms: C_12  and  C_13
REMARK    4  A    between atoms: C_15  and  O_19
REMARK    5  A    between atoms: C_17  and  O_21
REMARK    6  A    between atoms: C_26  and  N_29
REMARK                            x       y       z     vdW  Elec       q    Type
REMARK                         _______ _______ _______ _____ _____    ______ ____
ROOT
ATOM      1  O   UNL     1      34.345  15.887   2.148  0.00  0.00    +0.000 OA
ATOM      2  N   UNL     1      32.890  17.612   2.663  0.00  0.00    +0.000 N 
ATOM      3  C   UNL     1      33.225  16.298   2.430  0.00  0.00    +0.000 C 
ATOM      4  H   UNL     1      31.951  17.904   2.890  0.00  0.00    +0.000 HD
ATOM      5  C   UNL     1      33.778  18.660   2.618  0.00  0.00    +0.000 A 
ATOM      6  N   UNL     1      33.330  19.896   2.862  0.00  0.00    +0.000 NA
ATOM      7  N   UNL     1      34.429  20.663   2.739  0.00  0.00    +0.000 N 
ATOM      8  C   UNL     1      35.555  19.962   2.429  0.00  0.00    +0.000 A 
ATOM      9  H   UNL     1      34.341  21.664   2.882  0.00  0.00    +0.000 HD
ATOM     10  C   UNL     1      35.167  18.648   2.340  0.00  0.00    +0.000 A 
ENDROOT
BRANCH   3  11
ATOM     11  C   UNL     1      32.115  15.317   2.533  0.00  0.00    +0.000 A 
ATOM     12  C   UNL     1      31.380  15.265   3.716  0.00  0.00    +0.000 A 
ATOM     13  C   UNL     1      30.332  14.357   3.849  0.00  0.00    +0.000 A 
ATOM     14  C   UNL     1      30.003  13.473   2.813  0.00  0.00    +0.000 A 
ATOM     15  C   UNL     1      30.740  13.552   1.624  0.00  0.00    +0.000 A 
ATOM     16  C   UNL     1      31.791  14.459   1.484  0.00  0.00    +0.000 A 
BRANCH  14  17
ATOM     17  N   UNL     1      28.909  12.583   2.933  0.00  0.00    +0.000 N 
ATOM     18  C   UNL     1      28.884  11.654   4.076  0.00  0.00    +0.000 C 
ATOM     19  C   UNL     1      28.711  10.248   4.240  0.00  0.00    +0.000 C 
ATOM     20  N   UNL     1      28.510   9.486   3.049  0.00  0.00    +0.000 N 
ATOM     21  C   UNL     1      28.768   9.580   5.567  0.00  0.00    +0.000 C 
ATOM     22  C   UNL     1      28.499  10.183   1.804  0.00  0.00    +0.000 C 
ATOM     23  H   UNL     1      28.404   8.484   3.087  0.00  0.00    +0.000 HD
ATOM     24  C   UNL     1      28.691  11.595   1.862  0.00  0.00    +0.000 C 
ATOM     25  C   UNL     1      28.340   9.447   0.523  0.00  0.00    +0.000 C 
ENDBRANCH  14  17
ENDBRANCH   3  11
BRANCH   8  26
ATOM     26  C   UNL     1      36.843  20.521   2.246  0.00  0.00    +0.000 C 
ATOM     27  C   UNL     1      38.239  21.122   2.049  0.00  0.00    +0.000 C 
BRANCH  27  28
ATOM     28  C   UNL     1      39.540  21.672   1.868  0.00  0.00    +0.000 A 
ATOM     29  C   UNL     1      39.788  22.996   2.218  0.00  0.00    +0.000 A 
ATOM     30  C   UNL     1      41.063  23.540   2.048  0.00  0.00    +0.000 A 
ATOM     31  C   UNL     1      42.084  22.741   1.528  0.00  0.00    +0.000 A 
ATOM     32  C   UNL     1      41.839  21.414   1.170  0.00  0.00    +0.000 A 
ATOM     33  C   UNL     1      40.560  20.883   1.345  0.00  0.00    +0.000 A 
BRANCH  30  34
ATOM     34  O   UNL     1      41.420  24.827   2.366  0.00  0.00    +0.000 OA
ATOM     35  C   UNL     1      42.748  25.000   2.772  0.00  0.00    +0.000 C 
ENDBRANCH  30  34
BRANCH  32  36
ATOM     36  O   UNL     1      42.916  20.725   0.670  0.00  0.00    +0.000 OA
ATOM     37  C   UNL     1      43.830  20.261   1.627  0.00  0.00    +0.000 C 
ENDBRANCH  32  36
ENDBRANCH  27  28
ENDBRANCH   8  26
TORSDOF 6
ENDMDL
MODEL 7
REMARK VINA RESULT:      -6.5     13.340     18.359
REMARK  Name = AZD4547.pdbqt.pdb
REMARK  6 active torsions:
REMARK  status: ('A' for Active; 'I' for Inactive)
REMARK    1  A    between atoms: C_3  and  C_23
REMARK    2  A    between atoms: C_8  and  C_11
REMARK    3  A    between atoms: C_12  and  C_13
REMARK    4  A    between atoms: C_15  and  O_19
REMARK    5  A    between atoms: C_17  and  O_21
REMARK    6  A    between atoms: C_26  and  N_29
REMARK                            x       y       z     vdW  Elec       q    Type
REMARK                         _______ _______ _______ _____ _____    ______ ____
ROOT
ATOM      1  O   UNL     1      35.376  16.828  21.427  0.00  0.00    +0.000 OA
ATOM      2  N   UNL     1      37.043  15.992  20.055  0.00  0.00    +0.000 N 
ATOM      3  C   UNL     1      35.918  15.896  20.843  0.00  0.00    +0.000 C 
ATOM      4  H   UNL     1      37.456  15.194  19.596  0.00  0.00    +0.000 HD
ATOM      5  C   UNL     1      37.720  17.161  19.805  0.00  0.00    +0.000 A 
ATOM      6  N   UNL     1      38.804  17.124  19.023  0.00  0.00    +0.000 NA
ATOM      7  N   UNL     1      39.214  18.406  18.986  0.00  0.00    +0.000 N 
ATOM      8  C   UNL     1      38.432  19.253  19.713  0.00  0.00    +0.000 A 
ATOM      9  H   UNL     1      40.039  18.636  18.442  0.00  0.00    +0.000 HD
ATOM     10  C   UNL     1      37.445  18.473  20.264  0.00  0.00    +0.000 A 
ENDROOT
BRANCH   3  11
ATOM     11  C   UNL     1      35.336  14.538  20.982  0.00  0.00    +0.000 A 
ATOM     12  C   UNL     1      36.150  13.436  20.725  0.00  0.00    +0.000 A 
ATOM     13  C   UNL     1      35.637  12.146  20.845  0.00  0.00    +0.000 A 
ATOM     14  C   UNL     1      34.302  11.926  21.207  0.00  0.00    +0.000 A 
ATOM     15  C   UNL     1      33.503  13.046  21.478  0.00  0.00    +0.000 A 
ATOM     16  C   UNL     1      34.010  14.340  21.361  0.00  0.00    +0.000 A 
BRANCH  14  17
ATOM     17  N   UNL     1      33.795  10.616  21.371  0.00  0.00    +0.000 N 
ATOM     18  C   UNL     1      32.477  10.448  22.007  0.00  0.00    +0.000 C 
ATOM     19  C   UNL     1      31.958   9.670  23.083  0.00  0.00    +0.000 C 
ATOM     20  N   UNL     1      32.884   8.820  23.761  0.00  0.00    +0.000 N 
ATOM     21  C   UNL     1      30.539   9.745  23.520  0.00  0.00    +0.000 C 
ATOM     22  C   UNL     1      34.239   8.818  23.313  0.00  0.00    +0.000 C 
ATOM     23  H   UNL     1      32.594   8.258  24.546  0.00  0.00    +0.000 HD
ATOM     24  C   UNL     1      34.550   9.674  22.216  0.00  0.00    +0.000 C 
ATOM     25  C   UNL     1      35.266   7.992  24.001  0.00  0.00    +0.000 C 
ENDBRANCH  14  17
ENDBRANCH   3  11
BRANCH   8  26
ATOM     26  C   UNL     1      38.636  20.647  19.843  0.00  0.00    +0.000 C 
ATOM     27  C   UNL     1      38.855  22.158  19.980  0.00  0.00    +0.000 C 
BRANCH  27  28
ATOM     28  C   UNL     1      39.054  23.563  20.099  0.00  0.00    +0.000 A 
ATOM     29  C   UNL     1      37.983  24.390  20.428  0.00  0.00    +0.000 A 
ATOM     30  C   UNL     1      38.173  25.768  20.551  0.00  0.00    +0.000 A 
ATOM     31  C   UNL     1      39.446  26.305  20.346  0.00  0.00    +0.000 A 
ATOM     32  C   UNL     1      40.522  25.481  20.011  0.00  0.00    +0.000 A 
ATOM     33  C   UNL     1      40.319  24.105  19.891  0.00  0.00    +0.000 A 
BRANCH  30  34
ATOM     34  O   UNL     1      37.193  26.672  20.878  0.00  0.00    +0.000 OA
ATOM     35  C   UNL     1      37.601  27.732  21.696  0.00  0.00    +0.000 C 
ENDBRANCH  30  34
BRANCH  32  36
ATOM     36  O   UNL     1      41.725  26.118  19.833  0.00  0.00    +0.000 OA
ATOM     37  C   UNL     1      42.775  25.655  20.639  0.00  0.00    +0.000 C 
ENDBRANCH  32  36
ENDBRANCH  27  28
ENDBRANCH   8  26
TORSDOF 6
ENDMDL
MODEL 8
REMARK VINA RESULT:      -6.5     13.344     18.340
REMARK  Name = AZD4547.pdbqt.pdb
REMARK  6 active torsions:
REMARK  status: ('A' for Active; 'I' for Inactive)
REMARK    1  A    between atoms: C_3  and  C_23
REMARK    2  A    between atoms: C_8  and  C_11
REMARK    3  A    between atoms: C_12  and  C_13
REMARK    4  A    between atoms: C_15  and  O_19
REMARK    5  A    between atoms: C_17  and  O_21
REMARK    6  A    between atoms: C_26  and  N_29
REMARK                            x       y       z     vdW  Elec       q    Type
REMARK                         _______ _______ _______ _____ _____    ______ ____
ROOT
ATOM      1  O   UNL     1      35.472  16.834  21.464  0.00  0.00    +0.000 OA
ATOM      2  N   UNL     1      37.095  16.027  20.023  0.00  0.00    +0.000 N 
ATOM      3  C   UNL     1      35.998  15.914  20.847  0.00  0.00    +0.000 C 
ATOM      4  H   UNL     1      37.495  15.239  19.537  0.00  0.00    +0.000 HD
ATOM      5  C   UNL     1      37.758  17.203  19.769  0.00  0.00    +0.000 A 
ATOM      6  N   UNL     1      38.814  17.184  18.949  0.00  0.00    +0.000 NA
ATOM      7  N   UNL     1      39.218  18.468  18.919  0.00  0.00    +0.000 N 
ATOM      8  C   UNL     1      38.458  19.299  19.686  0.00  0.00    +0.000 A 
ATOM      9  H   UNL     1      40.022  18.710  18.351  0.00  0.00    +0.000 HD
ATOM     10  C   UNL     1      37.494  18.506  20.258  0.00  0.00    +0.000 A 
ENDROOT
BRANCH   3  11
ATOM     11  C   UNL     1      35.426  14.551  20.984  0.00  0.00    +0.000 A 
ATOM     12  C   UNL     1      36.253  13.455  20.741  0.00  0.00    +0.000 A 
ATOM     13  C   UNL     1      35.751  12.161  20.859  0.00  0.00    +0.000 A 
ATOM     14  C   UNL     1      34.413  11.931  21.206  0.00  0.00    +0.000 A 
ATOM     15  C   UNL     1      33.602  13.044  21.464  0.00  0.00    +0.000 A 
ATOM     16  C   UNL     1      34.098  14.342  21.348  0.00  0.00    +0.000 A 
BRANCH  14  17
ATOM     17  N   UNL     1      33.917  10.616  21.369  0.00  0.00    +0.000 N 
ATOM     18  C   UNL     1      32.588  10.439  21.981  0.00  0.00    +0.000 C 
ATOM     19  C   UNL     1      32.056   9.663  23.052  0.00  0.00    +0.000 C 
ATOM     20  N   UNL     1      32.978   8.826  23.753  0.00  0.00    +0.000 N 
ATOM     21  C   UNL     1      30.629   9.727  23.461  0.00  0.00    +0.000 C 
ATOM     22  C   UNL     1      34.341   8.835  23.331  0.00  0.00    +0.000 C 
ATOM     23  H   UNL     1      32.678   8.266  24.536  0.00  0.00    +0.000 HD
ATOM     24  C   UNL     1      34.665   9.687  22.234  0.00  0.00    +0.000 C 
ATOM     25  C   UNL     1      35.362   8.024  24.044  0.00  0.00    +0.000 C 
ENDBRANCH  14  17
ENDBRANCH   3  11
BRANCH   8  26
ATOM     26  C   UNL     1      38.661  20.692  19.831  0.00  0.00    +0.000 C 
ATOM     27  C   UNL     1      38.878  22.202  19.984  0.00  0.00    +0.000 C 
BRANCH  27  28
ATOM     28  C   UNL     1      39.075  23.606  20.119  0.00  0.00    +0.000 A 
ATOM     29  C   UNL     1      40.349  24.146  19.968  0.00  0.00    +0.000 A 
ATOM     30  C   UNL     1      40.547  25.523  20.094  0.00  0.00    +0.000 A 
ATOM     31  C   UNL     1      39.455  26.349  20.368  0.00  0.00    +0.000 A 
ATOM     32  C   UNL     1      38.176  25.812  20.526  0.00  0.00    +0.000 A 
ATOM     33  C   UNL     1      37.992  24.434  20.397  0.00  0.00    +0.000 A 
BRANCH  30  34
ATOM     34  O   UNL     1      41.755  26.161  19.958  0.00  0.00    +0.000 OA
ATOM     35  C   UNL     1      42.796  25.652  20.743  0.00  0.00    +0.000 C 
ENDBRANCH  30  34
BRANCH  32  36
ATOM     36  O   UNL     1      37.180  26.718  20.792  0.00  0.00    +0.000 OA
ATOM     37  C   UNL     1      36.102  26.708  19.897  0.00  0.00    +0.000 C 
ENDBRANCH  32  36
ENDBRANCH  27  28
ENDBRANCH   8  26
TORSDOF 6
ENDMDL
MODEL 9
REMARK VINA RESULT:      -6.5     22.804     24.538
REMARK  Name = AZD4547.pdbqt.pdb
REMARK  6 active torsions:
REMARK  status: ('A' for Active; 'I' for Inactive)
REMARK    1  A    between atoms: C_3  and  C_23
REMARK    2  A    between atoms: C_8  and  C_11
REMARK    3  A    between atoms: C_12  and  C_13
REMARK    4  A    between atoms: C_15  and  O_19
REMARK    5  A    between atoms: C_17  and  O_21
REMARK    6  A    between atoms: C_26  and  N_29
REMARK                            x       y       z     vdW  Elec       q    Type
REMARK                         _______ _______ _______ _____ _____    ______ ____
ROOT
ATOM      1  O   UNL     1      34.226  16.071   1.404  0.00  0.00    +0.000 OA
ATOM      2  N   UNL     1      33.217  17.286   3.097  0.00  0.00    +0.000 N 
ATOM      3  C   UNL     1      34.129  17.085   2.085  0.00  0.00    +0.000 C 
ATOM      4  H   UNL     1      33.177  18.139   3.635  0.00  0.00    +0.000 HD
ATOM      5  C   UNL     1      32.273  16.366   3.486  0.00  0.00    +0.000 A 
ATOM      6  N   UNL     1      31.442  16.678   4.486  0.00  0.00    +0.000 NA
ATOM      7  N   UNL     1      30.665  15.586   4.607  0.00  0.00    +0.000 N 
ATOM      8  C   UNL     1      30.970  14.595   3.722  0.00  0.00    +0.000 A 
ATOM      9  H   UNL     1      29.941  15.582   5.318  0.00  0.00    +0.000 HD
ATOM     10  C   UNL     1      32.017  15.070   2.973  0.00  0.00    +0.000 A 
ENDROOT
BRANCH   3  11
ATOM     11  C   UNL     1      35.062  18.209   1.821  0.00  0.00    +0.000 A 
ATOM     12  C   UNL     1      35.416  18.484   0.501  0.00  0.00    +0.000 A 
ATOM     13  C   UNL     1      36.291  19.530   0.215  0.00  0.00    +0.000 A 
ATOM     14  C   UNL     1      36.842  20.314   1.237  0.00  0.00    +0.000 A 
ATOM     15  C   UNL     1      36.460  20.035   2.556  0.00  0.00    +0.000 A 
ATOM     16  C   UNL     1      35.586  18.989   2.849  0.00  0.00    +0.000 A 
BRANCH  14  17
ATOM     17  N   UNL     1      37.694  21.404   0.942  0.00  0.00    +0.000 N 
ATOM     18  C   UNL     1      39.143  21.155   0.846  0.00  0.00    +0.000 C 
ATOM     19  C   UNL     1      40.314  21.733   1.417  0.00  0.00    +0.000 C 
ATOM     20  N   UNL     1      40.115  22.826   2.314  0.00  0.00    +0.000 N 
ATOM     21  C   UNL     1      41.682  21.222   1.138  0.00  0.00    +0.000 C 
ATOM     22  C   UNL     1      38.774  23.247   2.565  0.00  0.00    +0.000 C 
ATOM     23  H   UNL     1      40.895  23.270   2.774  0.00  0.00    +0.000 HD
ATOM     24  C   UNL     1      37.743  22.531   1.889  0.00  0.00    +0.000 C 
ATOM     25  C   UNL     1      38.490  24.349   3.522  0.00  0.00    +0.000 C 
ENDBRANCH  14  17
ENDBRANCH   3  11
BRANCH   8  26
ATOM     26  C   UNL     1      30.309  13.347   3.632  0.00  0.00    +0.000 C 
ATOM     27  C   UNL     1      29.591  11.997   3.532  0.00  0.00    +0.000 C 
BRANCH  27  28
ATOM     28  C   UNL     1      28.918  10.745   3.433  0.00  0.00    +0.000 A 
ATOM     29  C   UNL     1      28.805  10.113   2.198  0.00  0.00    +0.000 A 
ATOM     30  C   UNL     1      28.150   8.884   2.095  0.00  0.00    +0.000 A 
ATOM     31  C   UNL     1      27.615   8.296   3.244  0.00  0.00    +0.000 A 
ATOM     32  C   UNL     1      27.721   8.928   4.483  0.00  0.00    +0.000 A 
ATOM     33  C   UNL     1      28.378  10.157   4.573  0.00  0.00    +0.000 A 
BRANCH  30  34
ATOM     34  O   UNL     1      27.989   8.172   0.933  0.00  0.00    +0.000 OA
ATOM     35  C   UNL     1      29.067   8.225   0.041  0.00  0.00    +0.000 C 
ENDBRANCH  30  34
BRANCH  32  36
ATOM     36  O   UNL     1      27.159   8.257   5.542  0.00  0.00    +0.000 OA
ATOM     37  C   UNL     1      26.073   7.431   5.222  0.00  0.00    +0.000 C 
ENDBRANCH  32  36
ENDBRANCH  27  28
ENDBRANCH   8  26
TORSDOF 6
ENDMDL
