MODEL 1
REMARK VINA RESULT:      -6.6      0.000      0.000
REMARK  Name = Belinostat.pdbqt.pdb
REMARK  6 active torsions:
REMARK  status: ('A' for Active; 'I' for Inactive)
REMARK    1  A    between atoms: C_1  and  S_7
REMARK    2  A    between atoms: C_3  and  C_18
REMARK    3  A    between atoms: S_7  and  N_10
REMARK    4  A    between atoms: N_10  and  C_12
REMARK    5  A    between atoms: C_19  and  C_20
REMARK    6  A    between atoms: N_22  and  O_24
REMARK                            x       y       z     vdW  Elec       q    Type
REMARK                         _______ _______ _______ _____ _____    ______ ____
ROOT
ATOM      1  C   UNL     1      36.771  18.536  19.598  0.00  0.00    +0.000 A 
ATOM      2  C   UNL     1      36.268  17.323  20.054  0.00  0.00    +0.000 A 
ATOM      3  C   UNL     1      37.100  16.208  20.065  0.00  0.00    +0.000 A 
ATOM      4  C   UNL     1      38.092  18.664  19.181  0.00  0.00    +0.000 A 
ATOM      5  C   UNL     1      38.423  16.316  19.636  0.00  0.00    +0.000 A 
ATOM      6  C   UNL     1      38.918  17.544  19.196  0.00  0.00    +0.000 A 
ENDROOT
BRANCH   1   7
ATOM      7  S   UNL     1      35.742  19.958  19.618  0.00  0.00    +0.000 S 
ATOM      8  O   UNL     1      34.439  19.533  20.083  0.00  0.00    +0.000 OA
ATOM      9  O   UNL     1      35.897  20.647  18.355  0.00  0.00    +0.000 OA
BRANCH   7  10
ATOM     10  N   UNL     1      36.399  20.895  20.841  0.00  0.00    +0.000 N 
ATOM     11  H   UNL     1      36.516  20.409  21.729  0.00  0.00    +0.000 HD
BRANCH  10  12
ATOM     12  C   UNL     1      37.114  22.102  20.602  0.00  0.00    +0.000 A 
ATOM     13  C   UNL     1      36.495  23.349  20.549  0.00  0.00    +0.000 A 
ATOM     14  C   UNL     1      37.252  24.508  20.394  0.00  0.00    +0.000 A 
ATOM     15  C   UNL     1      38.640  24.425  20.319  0.00  0.00    +0.000 A 
ATOM     16  C   UNL     1      39.268  23.186  20.408  0.00  0.00    +0.000 A 
ATOM     17  C   UNL     1      38.507  22.030  20.562  0.00  0.00    +0.000 A 
ENDBRANCH  10  12
ENDBRANCH   7  10
ENDBRANCH   1   7
BRANCH   3  18
ATOM     18  C   UNL     1      36.597  14.952  20.517  0.00  0.00    +0.000 C 
ATOM     19  C   UNL     1      36.171  13.895  20.896  0.00  0.00    +0.000 C 
BRANCH  19  20
ATOM     20  C   UNL     1      35.660  12.626  21.350  0.00  0.00    +0.000 C 
ATOM     21  O   UNL     1      35.045  11.893  20.583  0.00  0.00    +0.000 OA
ATOM     22  N   UNL     1      35.913  12.311  22.655  0.00  0.00    +0.000 N 
ATOM     23  H   UNL     1      36.469  12.879  23.285  0.00  0.00    +0.000 HD
BRANCH  22  24
ATOM     24  O   UNL     1      35.469  11.055  23.123  0.00  0.00    +0.000 OA
ATOM     25  H   UNL     1      35.028  10.674  22.333  0.00  0.00    +0.000 HD
ENDBRANCH  22  24
ENDBRANCH  19  20
ENDBRANCH   3  18
TORSDOF 6
ENDMDL
MODEL 2
REMARK VINA RESULT:      -6.6     21.043     22.854
REMARK  Name = Belinostat.pdbqt.pdb
REMARK  6 active torsions:
REMARK  status: ('A' for Active; 'I' for Inactive)
REMARK    1  A    between atoms: C_1  and  S_7
REMARK    2  A    between atoms: C_3  and  C_18
REMARK    3  A    between atoms: S_7  and  N_10
REMARK    4  A    between atoms: N_10  and  C_12
REMARK    5  A    between atoms: C_19  and  C_20
REMARK    6  A    between atoms: N_22  and  O_24
REMARK                            x       y       z     vdW  Elec       q    Type
REMARK                         _______ _______ _______ _____ _____    ______ ____
ROOT
ATOM      1  C   UNL     1      51.036   7.625   8.928  0.00  0.00    +0.000 A 
ATOM      2  C   UNL     1      50.652   6.299   9.090  0.00  0.00    +0.000 A 
ATOM      3  C   UNL     1      50.877   5.675  10.313  0.00  0.00    +0.000 A 
ATOM      4  C   UNL     1      51.612   8.347   9.968  0.00  0.00    +0.000 A 
ATOM      5  C   UNL     1      51.468   6.380  11.362  0.00  0.00    +0.000 A 
ATOM      6  C   UNL     1      51.833   7.716  11.189  0.00  0.00    +0.000 A 
ENDROOT
BRANCH   1   7
ATOM      7  S   UNL     1      50.719   8.434   7.402  0.00  0.00    +0.000 S 
ATOM      8  O   UNL     1      50.246   9.764   7.717  0.00  0.00    +0.000 OA
ATOM      9  O   UNL     1      49.942   7.541   6.570  0.00  0.00    +0.000 OA
BRANCH   7  10
ATOM     10  N   UNL     1      52.245   8.618   6.736  0.00  0.00    +0.000 N 
ATOM     11  H   UNL     1      52.908   9.114   7.330  0.00  0.00    +0.000 HD
BRANCH  10  12
ATOM     12  C   UNL     1      52.727   7.828   5.655  0.00  0.00    +0.000 A 
ATOM     13  C   UNL     1      53.138   8.377   4.443  0.00  0.00    +0.000 A 
ATOM     14  C   UNL     1      53.679   7.567   3.448  0.00  0.00    +0.000 A 
ATOM     15  C   UNL     1      53.836   6.202   3.673  0.00  0.00    +0.000 A 
ATOM     16  C   UNL     1      53.462   5.652   4.895  0.00  0.00    +0.000 A 
ATOM     17  C   UNL     1      52.921   6.466   5.887  0.00  0.00    +0.000 A 
ENDBRANCH  10  12
ENDBRANCH   7  10
ENDBRANCH   1   7
BRANCH   3  18
ATOM     18  C   UNL     1      50.502   4.311  10.494  0.00  0.00    +0.000 C 
ATOM     19  C   UNL     1      50.185   3.163  10.649  0.00  0.00    +0.000 C 
BRANCH  19  20
ATOM     20  C   UNL     1      49.803   1.785  10.835  0.00  0.00    +0.000 C 
ATOM     21  O   UNL     1      50.541   0.880  10.463  0.00  0.00    +0.000 OA
ATOM     22  N   UNL     1      48.599   1.575  11.446  0.00  0.00    +0.000 N 
ATOM     23  H   UNL     1      48.005   2.310  11.811  0.00  0.00    +0.000 HD
BRANCH  22  24
ATOM     24  O   UNL     1      48.214   0.238  11.689  0.00  0.00    +0.000 OA
ATOM     25  H   UNL     1      47.761  -0.011  10.855  0.00  0.00    +0.000 HD
ENDBRANCH  22  24
ENDBRANCH  19  20
ENDBRANCH   3  18
TORSDOF 6
ENDMDL
MODEL 3
REMARK VINA RESULT:      -6.1      2.808      4.032
REMARK  Name = Belinostat.pdbqt.pdb
REMARK  6 active torsions:
REMARK  status: ('A' for Active; 'I' for Inactive)
REMARK    1  A    between atoms: C_1  and  S_7
REMARK    2  A    between atoms: C_3  and  C_18
REMARK    3  A    between atoms: S_7  and  N_10
REMARK    4  A    between atoms: N_10  and  C_12
REMARK    5  A    between atoms: C_19  and  C_20
REMARK    6  A    between atoms: N_22  and  O_24
REMARK                            x       y       z     vdW  Elec       q    Type
REMARK                         _______ _______ _______ _____ _____    ______ ____
ROOT
ATOM      1  C   UNL     1      36.817  18.482  19.696  0.00  0.00    +0.000 A 
ATOM      2  C   UNL     1      36.246  17.336  20.237  0.00  0.00    +0.000 A 
ATOM      3  C   UNL     1      36.973  16.150  20.226  0.00  0.00    +0.000 A 
ATOM      4  C   UNL     1      38.106  18.474  19.173  0.00  0.00    +0.000 A 
ATOM      5  C   UNL     1      38.261  16.121  19.692  0.00  0.00    +0.000 A 
ATOM      6  C   UNL     1      38.827  17.284  19.167  0.00  0.00    +0.000 A 
ENDROOT
BRANCH   1   7
ATOM      7  S   UNL     1      35.924  19.993  19.741  0.00  0.00    +0.000 S 
ATOM      8  O   UNL     1      35.846  20.480  18.380  0.00  0.00    +0.000 OA
ATOM      9  O   UNL     1      36.475  20.813  20.798  0.00  0.00    +0.000 OA
BRANCH   7  10
ATOM     10  N   UNL     1      34.375  19.517  20.163  0.00  0.00    +0.000 N 
ATOM     11  H   UNL     1      34.168  19.587  21.158  0.00  0.00    +0.000 HD
BRANCH  10  12
ATOM     12  C   UNL     1      33.305  19.421  19.229  0.00  0.00    +0.000 A 
ATOM     13  C   UNL     1      32.590  20.531  18.784  0.00  0.00    +0.000 A 
ATOM     14  C   UNL     1      31.607  20.391  17.807  0.00  0.00    +0.000 A 
ATOM     15  C   UNL     1      31.353  19.141  17.251  0.00  0.00    +0.000 A 
ATOM     16  C   UNL     1      32.089  18.034  17.665  0.00  0.00    +0.000 A 
ATOM     17  C   UNL     1      33.070  18.177  18.642  0.00  0.00    +0.000 A 
ENDBRANCH  10  12
ENDBRANCH   7  10
ENDBRANCH   1   7
BRANCH   3  18
ATOM     18  C   UNL     1      36.398  14.960  20.765  0.00  0.00    +0.000 C 
ATOM     19  C   UNL     1      35.912  13.961  21.219  0.00  0.00    +0.000 C 
BRANCH  19  20
ATOM     20  C   UNL     1      35.328  12.761  21.766  0.00  0.00    +0.000 C 
ATOM     21  O   UNL     1      34.313  12.820  22.451  0.00  0.00    +0.000 OA
ATOM     22  N   UNL     1      35.968  11.592  21.462  0.00  0.00    +0.000 N 
ATOM     23  H   UNL     1      36.773  11.521  20.850  0.00  0.00    +0.000 HD
BRANCH  22  24
ATOM     24  O   UNL     1      35.397  10.392  21.939  0.00  0.00    +0.000 OA
ATOM     25  H   UNL     1      34.868  10.084  21.172  0.00  0.00    +0.000 HD
ENDBRANCH  22  24
ENDBRANCH  19  20
ENDBRANCH   3  18
TORSDOF 6
ENDMDL
MODEL 4
REMARK VINA RESULT:      -6.0     21.837     24.735
REMARK  Name = Belinostat.pdbqt.pdb
REMARK  6 active torsions:
REMARK  status: ('A' for Active; 'I' for Inactive)
REMARK    1  A    between atoms: C_1  and  S_7
REMARK    2  A    between atoms: C_3  and  C_18
REMARK    3  A    between atoms: S_7  and  N_10
REMARK    4  A    between atoms: N_10  and  C_12
REMARK    5  A    between atoms: C_19  and  C_20
REMARK    6  A    between atoms: N_22  and  O_24
REMARK                            x       y       z     vdW  Elec       q    Type
REMARK                         _______ _______ _______ _____ _____    ______ ____
ROOT
ATOM      1  C   UNL     1      50.188   1.999   9.863  0.00  0.00    +0.000 A 
ATOM      2  C   UNL     1      50.204   3.327   9.452  0.00  0.00    +0.000 A 
ATOM      3  C   UNL     1      50.777   4.284  10.284  0.00  0.00    +0.000 A 
ATOM      4  C   UNL     1      50.757   1.605  11.069  0.00  0.00    +0.000 A 
ATOM      5  C   UNL     1      51.338   3.908  11.504  0.00  0.00    +0.000 A 
ATOM      6  C   UNL     1      51.329   2.568  11.895  0.00  0.00    +0.000 A 
ENDROOT
BRANCH   1   7
ATOM      7  S   UNL     1      49.505   0.778   8.803  0.00  0.00    +0.000 S 
ATOM      8  O   UNL     1      48.164   0.507   9.276  0.00  0.00    +0.000 OA
ATOM      9  O   UNL     1      50.474  -0.286   8.655  0.00  0.00    +0.000 OA
BRANCH   7  10
ATOM     10  N   UNL     1      49.339   1.579   7.342  0.00  0.00    +0.000 N 
ATOM     11  H   UNL     1      48.733   2.398   7.376  0.00  0.00    +0.000 HD
BRANCH  10  12
ATOM     12  C   UNL     1      50.247   1.424   6.257  0.00  0.00    +0.000 A 
ATOM     13  C   UNL     1      50.144   0.389   5.330  0.00  0.00    +0.000 A 
ATOM     14  C   UNL     1      51.010   0.329   4.240  0.00  0.00    +0.000 A 
ATOM     15  C   UNL     1      51.966   1.324   4.058  0.00  0.00    +0.000 A 
ATOM     16  C   UNL     1      52.050   2.380   4.961  0.00  0.00    +0.000 A 
ATOM     17  C   UNL     1      51.184   2.436   6.049  0.00  0.00    +0.000 A 
ENDBRANCH  10  12
ENDBRANCH   7  10
ENDBRANCH   1   7
BRANCH   3  18
ATOM     18  C   UNL     1      50.789   5.654   9.886  0.00  0.00    +0.000 C 
ATOM     19  C   UNL     1      50.803   6.807   9.549  0.00  0.00    +0.000 C 
BRANCH  19  20
ATOM     20  C   UNL     1      50.820   8.191   9.145  0.00  0.00    +0.000 C 
ATOM     21  O   UNL     1      51.247   9.055   9.902  0.00  0.00    +0.000 OA
ATOM     22  N   UNL     1      50.346   8.453   7.890  0.00  0.00    +0.000 N 
ATOM     23  H   UNL     1      50.043   7.745   7.231  0.00  0.00    +0.000 HD
BRANCH  22  24
ATOM     24  O   UNL     1      50.392   9.791   7.441  0.00  0.00    +0.000 OA
ATOM     25  H   UNL     1      50.900  10.240   8.151  0.00  0.00    +0.000 HD
ENDBRANCH  22  24
ENDBRANCH  19  20
ENDBRANCH   3  18
TORSDOF 6
ENDMDL
MODEL 5
REMARK VINA RESULT:      -6.0     17.153     21.047
REMARK  Name = Belinostat.pdbqt.pdb
REMARK  6 active torsions:
REMARK  status: ('A' for Active; 'I' for Inactive)
REMARK    1  A    between atoms: C_1  and  S_7
REMARK    2  A    between atoms: C_3  and  C_18
REMARK    3  A    between atoms: S_7  and  N_10
REMARK    4  A    between atoms: N_10  and  C_12
REMARK    5  A    between atoms: C_19  and  C_20
REMARK    6  A    between atoms: N_22  and  O_24
REMARK                            x       y       z     vdW  Elec       q    Type
REMARK                         _______ _______ _______ _____ _____    ______ ____
ROOT
ATOM      1  C   UNL     1      42.722  -0.624  17.533  0.00  0.00    +0.000 A 
ATOM      2  C   UNL     1      42.782   0.377  18.497  0.00  0.00    +0.000 A 
ATOM      3  C   UNL     1      43.485   0.140  19.674  0.00  0.00    +0.000 A 
ATOM      4  C   UNL     1      43.374  -1.841  17.708  0.00  0.00    +0.000 A 
ATOM      5  C   UNL     1      44.131  -1.081  19.871  0.00  0.00    +0.000 A 
ATOM      6  C   UNL     1      44.076  -2.069  18.888  0.00  0.00    +0.000 A 
ENDROOT
BRANCH   1   7
ATOM      7  S   UNL     1      41.872  -0.321  16.027  0.00  0.00    +0.000 S 
ATOM      8  O   UNL     1      41.769   1.115  15.879  0.00  0.00    +0.000 OA
ATOM      9  O   UNL     1      40.696  -1.162  15.995  0.00  0.00    +0.000 OA
BRANCH   7  10
ATOM     10  N   UNL     1      42.954  -0.841  14.859  0.00  0.00    +0.000 N 
ATOM     11  H   UNL     1      43.919  -0.555  15.020  0.00  0.00    +0.000 HD
BRANCH  10  12
ATOM     12  C   UNL     1      42.679  -1.909  13.960  0.00  0.00    +0.000 A 
ATOM     13  C   UNL     1      43.080  -3.222  14.202  0.00  0.00    +0.000 A 
ATOM     14  C   UNL     1      42.714  -4.244  13.330  0.00  0.00    +0.000 A 
ATOM     15  C   UNL     1      41.920  -3.961  12.223  0.00  0.00    +0.000 A 
ATOM     16  C   UNL     1      41.486  -2.658  11.994  0.00  0.00    +0.000 A 
ATOM     17  C   UNL     1      41.855  -1.639  12.868  0.00  0.00    +0.000 A 
ENDBRANCH  10  12
ENDBRANCH   7  10
ENDBRANCH   1   7
BRANCH   3  18
ATOM     18  C   UNL     1      43.544   1.149  20.680  0.00  0.00    +0.000 C 
ATOM     19  C   UNL     1      43.593   1.997  21.529  0.00  0.00    +0.000 C 
BRANCH  19  20
ATOM     20  C   UNL     1      43.652   3.015  22.548  0.00  0.00    +0.000 C 
ATOM     21  O   UNL     1      44.263   2.815  23.592  0.00  0.00    +0.000 OA
ATOM     22  N   UNL     1      43.002   4.183  22.265  0.00  0.00    +0.000 N 
ATOM     23  H   UNL     1      42.542   4.386  21.385  0.00  0.00    +0.000 HD
BRANCH  22  24
ATOM     24  O   UNL     1      43.078   5.221  23.220  0.00  0.00    +0.000 OA
ATOM     25  H   UNL     1      42.553   5.938  22.802  0.00  0.00    +0.000 HD
ENDBRANCH  22  24
ENDBRANCH  19  20
ENDBRANCH   3  18
TORSDOF 6
ENDMDL
MODEL 6
REMARK VINA RESULT:      -5.9     22.677     24.907
REMARK  Name = Belinostat.pdbqt.pdb
REMARK  6 active torsions:
REMARK  status: ('A' for Active; 'I' for Inactive)
REMARK    1  A    between atoms: C_1  and  S_7
REMARK    2  A    between atoms: C_3  and  C_18
REMARK    3  A    between atoms: S_7  and  N_10
REMARK    4  A    between atoms: N_10  and  C_12
REMARK    5  A    between atoms: C_19  and  C_20
REMARK    6  A    between atoms: N_22  and  O_24
REMARK                            x       y       z     vdW  Elec       q    Type
REMARK                         _______ _______ _______ _____ _____    ______ ____
ROOT
ATOM      1  C   UNL     1      50.098   1.278   8.818  0.00  0.00    +0.000 A 
ATOM      2  C   UNL     1      50.100  -0.101   8.638  0.00  0.00    +0.000 A 
ATOM      3  C   UNL     1      50.206  -0.614   7.349  0.00  0.00    +0.000 A 
ATOM      4  C   UNL     1      50.230   2.151   7.743  0.00  0.00    +0.000 A 
ATOM      5  C   UNL     1      50.323   0.248   6.259  0.00  0.00    +0.000 A 
ATOM      6  C   UNL     1      50.336   1.629   6.457  0.00  0.00    +0.000 A 
ENDROOT
BRANCH   1   7
ATOM      7  S   UNL     1      50.006   1.935  10.443  0.00  0.00    +0.000 S 
ATOM      8  O   UNL     1      51.364   2.175  10.882  0.00  0.00    +0.000 OA
ATOM      9  O   UNL     1      49.106   1.107  11.216  0.00  0.00    +0.000 OA
BRANCH   7  10
ATOM     10  N   UNL     1      49.310   3.441  10.214  0.00  0.00    +0.000 N 
ATOM     11  H   UNL     1      48.305   3.421  10.043  0.00  0.00    +0.000 HD
BRANCH  10  12
ATOM     12  C   UNL     1      49.927   4.658  10.620  0.00  0.00    +0.000 A 
ATOM     13  C   UNL     1      50.074   5.020  11.958  0.00  0.00    +0.000 A 
ATOM     14  C   UNL     1      50.759   6.182  12.303  0.00  0.00    +0.000 A 
ATOM     15  C   UNL     1      51.325   6.975  11.310  0.00  0.00    +0.000 A 
ATOM     16  C   UNL     1      51.213   6.601   9.973  0.00  0.00    +0.000 A 
ATOM     17  C   UNL     1      50.527   5.439   9.632  0.00  0.00    +0.000 A 
ENDBRANCH  10  12
ENDBRANCH   7  10
ENDBRANCH   1   7
BRANCH   3  18
ATOM     18  C   UNL     1      50.195  -2.025   7.145  0.00  0.00    +0.000 C 
ATOM     19  C   UNL     1      50.185  -3.213   6.969  0.00  0.00    +0.000 C 
BRANCH  19  20
ATOM     20  C   UNL     1      50.173  -4.640   6.758  0.00  0.00    +0.000 C 
ATOM     21  O   UNL     1      50.242  -5.101   5.624  0.00  0.00    +0.000 OA
ATOM     22  N   UNL     1      50.091  -5.410   7.883  0.00  0.00    +0.000 N 
ATOM     23  H   UNL     1      50.092  -5.047   8.829  0.00  0.00    +0.000 HD
BRANCH  22  24
ATOM     24  O   UNL     1      50.126  -6.812   7.719  0.00  0.00    +0.000 OA
ATOM     25  H   UNL     1      49.365  -7.112   8.262  0.00  0.00    +0.000 HD
ENDBRANCH  22  24
ENDBRANCH  19  20
ENDBRANCH   3  18
TORSDOF 6
ENDMDL
MODEL 7
REMARK VINA RESULT:      -5.9     21.019     23.275
REMARK  Name = Belinostat.pdbqt.pdb
REMARK  6 active torsions:
REMARK  status: ('A' for Active; 'I' for Inactive)
REMARK    1  A    between atoms: C_1  and  S_7
REMARK    2  A    between atoms: C_3  and  C_18
REMARK    3  A    between atoms: S_7  and  N_10
REMARK    4  A    between atoms: N_10  and  C_12
REMARK    5  A    between atoms: C_19  and  C_20
REMARK    6  A    between atoms: N_22  and  O_24
REMARK                            x       y       z     vdW  Elec       q    Type
REMARK                         _______ _______ _______ _____ _____    ______ ____
ROOT
ATOM      1  C   UNL     1      50.484   5.433  10.357  0.00  0.00    +0.000 A 
ATOM      2  C   UNL     1      51.302   5.953  11.354  0.00  0.00    +0.000 A 
ATOM      3  C   UNL     1      51.979   7.145  11.117  0.00  0.00    +0.000 A 
ATOM      4  C   UNL     1      50.306   6.092   9.145  0.00  0.00    +0.000 A 
ATOM      5  C   UNL     1      51.824   7.811   9.902  0.00  0.00    +0.000 A 
ATOM      6  C   UNL     1      50.986   7.285   8.917  0.00  0.00    +0.000 A 
ENDROOT
BRANCH   1   7
ATOM      7  S   UNL     1      49.593   3.951  10.660  0.00  0.00    +0.000 S 
ATOM      8  O   UNL     1      48.282   4.334  11.139  0.00  0.00    +0.000 OA
ATOM      9  O   UNL     1      50.439   3.063  11.427  0.00  0.00    +0.000 OA
BRANCH   7  10
ATOM     10  N   UNL     1      49.369   3.312   9.128  0.00  0.00    +0.000 N 
ATOM     11  H   UNL     1      49.441   3.993   8.372  0.00  0.00    +0.000 HD
BRANCH  10  12
ATOM     12  C   UNL     1      49.482   1.924   8.835  0.00  0.00    +0.000 A 
ATOM     13  C   UNL     1      48.745   0.949   9.504  0.00  0.00    +0.000 A 
ATOM     14  C   UNL     1      48.833  -0.388   9.122  0.00  0.00    +0.000 A 
ATOM     15  C   UNL     1      49.641  -0.751   8.049  0.00  0.00    +0.000 A 
ATOM     16  C   UNL     1      50.352   0.222   7.353  0.00  0.00    +0.000 A 
ATOM     17  C   UNL     1      50.262   1.557   7.738  0.00  0.00    +0.000 A 
ENDBRANCH  10  12
ENDBRANCH   7  10
ENDBRANCH   1   7
BRANCH   3  18
ATOM     18  C   UNL     1      52.834   7.687  12.123  0.00  0.00    +0.000 C 
ATOM     19  C   UNL     1      53.554   8.146  12.968  0.00  0.00    +0.000 C 
BRANCH  19  20
ATOM     20  C   UNL     1      54.417   8.697  13.982  0.00  0.00    +0.000 C 
ATOM     21  O   UNL     1      55.190   7.974  14.601  0.00  0.00    +0.000 OA
ATOM     22  N   UNL     1      54.316  10.045  14.185  0.00  0.00    +0.000 N 
ATOM     23  H   UNL     1      53.725  10.664  13.643  0.00  0.00    +0.000 HD
BRANCH  22  24
ATOM     24  O   UNL     1      55.181  10.628  15.137  0.00  0.00    +0.000 OA
ATOM     25  H   UNL     1      55.323   9.897  15.777  0.00  0.00    +0.000 HD
ENDBRANCH  22  24
ENDBRANCH  19  20
ENDBRANCH   3  18
TORSDOF 6
ENDMDL
MODEL 8
REMARK VINA RESULT:      -5.8     22.023     26.121
REMARK  Name = Belinostat.pdbqt.pdb
REMARK  6 active torsions:
REMARK  status: ('A' for Active; 'I' for Inactive)
REMARK    1  A    between atoms: C_1  and  S_7
REMARK    2  A    between atoms: C_3  and  C_18
REMARK    3  A    between atoms: S_7  and  N_10
REMARK    4  A    between atoms: N_10  and  C_12
REMARK    5  A    between atoms: C_19  and  C_20
REMARK    6  A    between atoms: N_22  and  O_24
REMARK                            x       y       z     vdW  Elec       q    Type
REMARK                         _______ _______ _______ _____ _____    ______ ____
ROOT
ATOM      1  C   UNL     1      44.144  -5.277  14.845  0.00  0.00    +0.000 A 
ATOM      2  C   UNL     1      45.056  -5.768  13.917  0.00  0.00    +0.000 A 
ATOM      3  C   UNL     1      44.894  -7.060  13.429  0.00  0.00    +0.000 A 
ATOM      4  C   UNL     1      43.060  -6.038  15.271  0.00  0.00    +0.000 A 
ATOM      5  C   UNL     1      43.822  -7.843  13.858  0.00  0.00    +0.000 A 
ATOM      6  C   UNL     1      42.905  -7.330  14.777  0.00  0.00    +0.000 A 
ENDROOT
BRANCH   1   7
ATOM      7  S   UNL     1      44.316  -3.633  15.437  0.00  0.00    +0.000 S 
ATOM      8  O   UNL     1      45.677  -3.492  15.907  0.00  0.00    +0.000 OA
ATOM      9  O   UNL     1      43.192  -3.344  16.301  0.00  0.00    +0.000 OA
BRANCH   7  10
ATOM     10  N   UNL     1      44.196  -2.706  14.047  0.00  0.00    +0.000 N 
ATOM     11  H   UNL     1      45.042  -2.684  13.479  0.00  0.00    +0.000 HD
BRANCH  10  12
ATOM     12  C   UNL     1      42.954  -2.320  13.469  0.00  0.00    +0.000 A 
ATOM     13  C   UNL     1      42.242  -3.140  12.596  0.00  0.00    +0.000 A 
ATOM     14  C   UNL     1      40.991  -2.749  12.123  0.00  0.00    +0.000 A 
ATOM     15  C   UNL     1      40.434  -1.545  12.546  0.00  0.00    +0.000 A 
ATOM     16  C   UNL     1      41.124  -0.739  13.447  0.00  0.00    +0.000 A 
ATOM     17  C   UNL     1      42.375  -1.133  13.916  0.00  0.00    +0.000 A 
ENDBRANCH  10  12
ENDBRANCH   7  10
ENDBRANCH   1   7
BRANCH   3  18
ATOM     18  C   UNL     1      45.829  -7.586  12.488  0.00  0.00    +0.000 C 
ATOM     19  C   UNL     1      46.616  -8.025  11.694  0.00  0.00    +0.000 C 
BRANCH  19  20
ATOM     20  C   UNL     1      47.562  -8.551  10.742  0.00  0.00    +0.000 C 
ATOM     21  O   UNL     1      47.173  -9.143   9.742  0.00  0.00    +0.000 OA
ATOM     22  N   UNL     1      48.881  -8.337  11.028  0.00  0.00    +0.000 N 
ATOM     23  H   UNL     1      49.217  -7.800  11.819  0.00  0.00    +0.000 HD
BRANCH  22  24
ATOM     24  O   UNL     1      49.835  -8.796  10.093  0.00  0.00    +0.000 OA
ATOM     25  H   UNL     1      49.417  -9.612   9.742  0.00  0.00    +0.000 HD
ENDBRANCH  22  24
ENDBRANCH  19  20
ENDBRANCH   3  18
TORSDOF 6
ENDMDL
MODEL 9
REMARK VINA RESULT:      -5.7     21.279     22.927
REMARK  Name = Belinostat.pdbqt.pdb
REMARK  6 active torsions:
REMARK  status: ('A' for Active; 'I' for Inactive)
REMARK    1  A    between atoms: C_1  and  S_7
REMARK    2  A    between atoms: C_3  and  C_18
REMARK    3  A    between atoms: S_7  and  N_10
REMARK    4  A    between atoms: N_10  and  C_12
REMARK    5  A    between atoms: C_19  and  C_20
REMARK    6  A    between atoms: N_22  and  O_24
REMARK                            x       y       z     vdW  Elec       q    Type
REMARK                         _______ _______ _______ _____ _____    ______ ____
ROOT
ATOM      1  C   UNL     1      50.895   3.386  11.189  0.00  0.00    +0.000 A 
ATOM      2  C   UNL     1      51.305   2.944  12.442  0.00  0.00    +0.000 A 
ATOM      3  C   UNL     1      51.812   1.654  12.570  0.00  0.00    +0.000 A 
ATOM      4  C   UNL     1      51.008   2.579  10.061  0.00  0.00    +0.000 A 
ATOM      5  C   UNL     1      51.917   0.827  11.452  0.00  0.00    +0.000 A 
ATOM      6  C   UNL     1      51.516   1.291  10.198  0.00  0.00    +0.000 A 
ENDROOT
BRANCH   1   7
ATOM      7  S   UNL     1      50.293   5.025  11.008  0.00  0.00    +0.000 S 
ATOM      8  O   UNL     1      50.147   5.573  12.339  0.00  0.00    +0.000 OA
ATOM      9  O   UNL     1      49.179   4.998  10.084  0.00  0.00    +0.000 OA
BRANCH   7  10
ATOM     10  N   UNL     1      51.577   5.835  10.300  0.00  0.00    +0.000 N 
ATOM     11  H   UNL     1      52.495   5.542  10.632  0.00  0.00    +0.000 HD
BRANCH  10  12
ATOM     12  C   UNL     1      51.469   6.551   9.075  0.00  0.00    +0.000 A 
ATOM     13  C   UNL     1      51.495   5.926   7.830  0.00  0.00    +0.000 A 
ATOM     14  C   UNL     1      51.303   6.665   6.665  0.00  0.00    +0.000 A 
ATOM     15  C   UNL     1      51.056   8.033   6.743  0.00  0.00    +0.000 A 
ATOM     16  C   UNL     1      50.992   8.657   7.985  0.00  0.00    +0.000 A 
ATOM     17  C   UNL     1      51.186   7.915   9.148  0.00  0.00    +0.000 A 
ENDBRANCH  10  12
ENDBRANCH   7  10
ENDBRANCH   1   7
BRANCH   3  18
ATOM     18  C   UNL     1      52.224   1.179  13.850  0.00  0.00    +0.000 C 
ATOM     19  C   UNL     1      52.574   0.776  14.926  0.00  0.00    +0.000 C 
BRANCH  19  20
ATOM     20  C   UNL     1      52.994   0.293  16.218  0.00  0.00    +0.000 C 
ATOM     21  O   UNL     1      52.712   0.914  17.236  0.00  0.00    +0.000 OA
ATOM     22  N   UNL     1      53.700  -0.877  16.218  0.00  0.00    +0.000 N 
ATOM     23  H   UNL     1      53.892  -1.432  15.392  0.00  0.00    +0.000 HD
BRANCH  22  24
ATOM     24  O   UNL     1      54.087  -1.406  17.469  0.00  0.00    +0.000 OA
ATOM     25  H   UNL     1      53.378  -2.059  17.656  0.00  0.00    +0.000 HD
ENDBRANCH  22  24
ENDBRANCH  19  20
ENDBRANCH   3  18
TORSDOF 6
ENDMDL
