MODEL 1
REMARK VINA RESULT:      -8.8      0.000      0.000
REMARK  Name = Benzo[a]pyrene.pdbqt.pdb
REMARK  0 active torsions:
REMARK  status: ('A' for Active; 'I' for Inactive)
REMARK                            x       y       z     vdW  Elec       q    Type
REMARK                         _______ _______ _______ _____ _____    ______ ____
ROOT
ATOM      1  C   UNL     1      36.220  17.132  20.691  0.00  0.00    +0.000 A 
ATOM      2  C   UNL     1      36.925  18.276  20.257  0.00  0.00    +0.000 A 
ATOM      3  C   UNL     1      36.703  15.838  20.392  0.00  0.00    +0.000 A 
ATOM      4  C   UNL     1      35.027  17.298  21.426  0.00  0.00    +0.000 A 
ATOM      5  C   UNL     1      35.975  14.708  20.839  0.00  0.00    +0.000 A 
ATOM      6  C   UNL     1      38.118  18.133  19.521  0.00  0.00    +0.000 A 
ATOM      7  C   UNL     1      36.438  19.566  20.558  0.00  0.00    +0.000 A 
ATOM      8  C   UNL     1      34.782  14.896  21.575  0.00  0.00    +0.000 A 
ATOM      9  C   UNL     1      34.323  16.179  21.859  0.00  0.00    +0.000 A 
ATOM     10  C   UNL     1      37.896  15.732  19.656  0.00  0.00    +0.000 A 
ATOM     11  C   UNL     1      34.558  18.578  21.716  0.00  0.00    +0.000 A 
ATOM     12  C   UNL     1      38.596  16.859  19.226  0.00  0.00    +0.000 A 
ATOM     13  C   UNL     1      35.257  19.705  21.286  0.00  0.00    +0.000 A 
ATOM     14  C   UNL     1      38.808  19.268  19.097  0.00  0.00    +0.000 A 
ATOM     15  C   UNL     1      37.142  20.688  20.125  0.00  0.00    +0.000 A 
ATOM     16  C   UNL     1      36.389  13.390  20.583  0.00  0.00    +0.000 A 
ATOM     17  C   UNL     1      34.050  13.798  22.025  0.00  0.00    +0.000 A 
ATOM     18  C   UNL     1      38.323  20.540  19.397  0.00  0.00    +0.000 A 
ATOM     19  C   UNL     1      35.653  12.297  21.036  0.00  0.00    +0.000 A 
ATOM     20  C   UNL     1      34.483  12.502  21.757  0.00  0.00    +0.000 A 
ENDROOT
TORSDOF 0
ENDMDL
MODEL 2
REMARK VINA RESULT:      -8.3      1.185      2.924
REMARK  Name = Benzo[a]pyrene.pdbqt.pdb
REMARK  0 active torsions:
REMARK  status: ('A' for Active; 'I' for Inactive)
REMARK                            x       y       z     vdW  Elec       q    Type
REMARK                         _______ _______ _______ _____ _____    ______ ____
ROOT
ATOM      1  C   UNL     1      36.132  16.877  19.990  0.00  0.00    +0.000 A 
ATOM      2  C   UNL     1      36.228  18.240  19.632  0.00  0.00    +0.000 A 
ATOM      3  C   UNL     1      34.881  16.313  20.328  0.00  0.00    +0.000 A 
ATOM      4  C   UNL     1      37.300  16.086  20.004  0.00  0.00    +0.000 A 
ATOM      5  C   UNL     1      34.813  14.944  20.683  0.00  0.00    +0.000 A 
ATOM      6  C   UNL     1      35.074  19.048  19.610  0.00  0.00    +0.000 A 
ATOM      7  C   UNL     1      37.480  18.797  19.294  0.00  0.00    +0.000 A 
ATOM      8  C   UNL     1      35.995  14.169  20.692  0.00  0.00    +0.000 A 
ATOM      9  C   UNL     1      37.218  14.742  20.355  0.00  0.00    +0.000 A 
ATOM     10  C   UNL     1      33.750  17.148  20.297  0.00  0.00    +0.000 A 
ATOM     11  C   UNL     1      38.530  16.651  19.669  0.00  0.00    +0.000 A 
ATOM     12  C   UNL     1      33.841  18.494  19.944  0.00  0.00    +0.000 A 
ATOM     13  C   UNL     1      38.621  17.996  19.316  0.00  0.00    +0.000 A 
ATOM     14  C   UNL     1      35.179  20.392  19.256  0.00  0.00    +0.000 A 
ATOM     15  C   UNL     1      37.564  20.144  18.943  0.00  0.00    +0.000 A 
ATOM     16  C   UNL     1      33.609  14.310  21.032  0.00  0.00    +0.000 A 
ATOM     17  C   UNL     1      35.952  12.818  21.038  0.00  0.00    +0.000 A 
ATOM     18  C   UNL     1      36.418  20.938  18.923  0.00  0.00    +0.000 A 
ATOM     19  C   UNL     1      33.572  12.961  21.377  0.00  0.00    +0.000 A 
ATOM     20  C   UNL     1      34.745  12.215  21.380  0.00  0.00    +0.000 A 
ENDROOT
TORSDOF 0
ENDMDL
MODEL 3
REMARK VINA RESULT:      -8.1      1.493      6.017
REMARK  Name = Benzo[a]pyrene.pdbqt.pdb
REMARK  0 active torsions:
REMARK  status: ('A' for Active; 'I' for Inactive)
REMARK                            x       y       z     vdW  Elec       q    Type
REMARK                         _______ _______ _______ _____ _____    ______ ____
ROOT
ATOM      1  C   UNL     1      35.292  15.926  20.351  0.00  0.00    +0.000 A 
ATOM      2  C   UNL     1      34.085  15.270  20.680  0.00  0.00    +0.000 A 
ATOM      3  C   UNL     1      35.280  17.271  19.918  0.00  0.00    +0.000 A 
ATOM      4  C   UNL     1      36.509  15.221  20.461  0.00  0.00    +0.000 A 
ATOM      5  C   UNL     1      36.505  17.904  19.595  0.00  0.00    +0.000 A 
ATOM      6  C   UNL     1      32.858  15.956  20.577  0.00  0.00    +0.000 A 
ATOM      7  C   UNL     1      34.103  13.927  21.112  0.00  0.00    +0.000 A 
ATOM      8  C   UNL     1      37.714  17.180  19.712  0.00  0.00    +0.000 A 
ATOM      9  C   UNL     1      37.704  15.855  20.141  0.00  0.00    +0.000 A 
ATOM     10  C   UNL     1      34.038  17.924  19.827  0.00  0.00    +0.000 A 
ATOM     11  C   UNL     1      36.511  13.894  20.890  0.00  0.00    +0.000 A 
ATOM     12  C   UNL     1      32.845  17.281  20.151  0.00  0.00    +0.000 A 
ATOM     13  C   UNL     1      35.317  13.250  21.213  0.00  0.00    +0.000 A 
ATOM     14  C   UNL     1      31.671  15.300  20.904  0.00  0.00    +0.000 A 
ATOM     15  C   UNL     1      32.905  13.289  21.434  0.00  0.00    +0.000 A 
ATOM     16  C   UNL     1      36.577  19.237  19.157  0.00  0.00    +0.000 A 
ATOM     17  C   UNL     1      38.931  17.783  19.399  0.00  0.00    +0.000 A 
ATOM     18  C   UNL     1      31.694  13.973  21.330  0.00  0.00    +0.000 A 
ATOM     19  C   UNL     1      37.797  19.834  18.846  0.00  0.00    +0.000 A 
ATOM     20  C   UNL     1      38.974  19.106  18.968  0.00  0.00    +0.000 A 
ENDROOT
TORSDOF 0
ENDMDL
MODEL 4
REMARK VINA RESULT:      -7.6     15.269     18.450
REMARK  Name = Benzo[a]pyrene.pdbqt.pdb
REMARK  0 active torsions:
REMARK  status: ('A' for Active; 'I' for Inactive)
REMARK                            x       y       z     vdW  Elec       q    Type
REMARK                         _______ _______ _______ _____ _____    ______ ____
ROOT
ATOM      1  C   UNL     1      41.034   0.167  15.493  0.00  0.00    +0.000 A 
ATOM      2  C   UNL     1      41.467  -0.539  14.349  0.00  0.00    +0.000 A 
ATOM      3  C   UNL     1      41.629  -0.077  16.751  0.00  0.00    +0.000 A 
ATOM      4  C   UNL     1      39.999   1.118  15.363  0.00  0.00    +0.000 A 
ATOM      5  C   UNL     1      41.174   0.646  17.882  0.00  0.00    +0.000 A 
ATOM      6  C   UNL     1      42.498  -1.493  14.456  0.00  0.00    +0.000 A 
ATOM      7  C   UNL     1      40.869  -0.292  13.095  0.00  0.00    +0.000 A 
ATOM      8  C   UNL     1      40.137   1.594  17.730  0.00  0.00    +0.000 A 
ATOM      9  C   UNL     1      39.564   1.820  16.482  0.00  0.00    +0.000 A 
ATOM     10  C   UNL     1      42.655  -1.035  16.822  0.00  0.00    +0.000 A 
ATOM     11  C   UNL     1      39.418   1.352  14.117  0.00  0.00    +0.000 A 
ATOM     12  C   UNL     1      43.086  -1.734  15.695  0.00  0.00    +0.000 A 
ATOM     13  C   UNL     1      39.849   0.653  12.990  0.00  0.00    +0.000 A 
ATOM     14  C   UNL     1      42.920  -2.185  13.322  0.00  0.00    +0.000 A 
ATOM     15  C   UNL     1      41.305  -0.994  11.972  0.00  0.00    +0.000 A 
ATOM     16  C   UNL     1      41.714   0.461  19.166  0.00  0.00    +0.000 A 
ATOM     17  C   UNL     1      39.674   2.317  18.830  0.00  0.00    +0.000 A 
ATOM     18  C   UNL     1      42.326  -1.937  12.085  0.00  0.00    +0.000 A 
ATOM     19  C   UNL     1      41.248   1.186  20.260  0.00  0.00    +0.000 A 
ATOM     20  C   UNL     1      40.227   2.114  20.092  0.00  0.00    +0.000 A 
ENDROOT
TORSDOF 0
ENDMDL
MODEL 5
REMARK VINA RESULT:      -7.5     15.221     19.289
REMARK  Name = Benzo[a]pyrene.pdbqt.pdb
REMARK  0 active torsions:
REMARK  status: ('A' for Active; 'I' for Inactive)
REMARK                            x       y       z     vdW  Elec       q    Type
REMARK                         _______ _______ _______ _____ _____    ______ ____
ROOT
ATOM      1  C   UNL     1      40.886  -0.813  15.272  0.00  0.00    +0.000 A 
ATOM      2  C   UNL     1      41.217  -1.728  14.248  0.00  0.00    +0.000 A 
ATOM      3  C   UNL     1      40.264   0.417  14.959  0.00  0.00    +0.000 A 
ATOM      4  C   UNL     1      41.183  -1.143  16.612  0.00  0.00    +0.000 A 
ATOM      5  C   UNL     1      39.943   1.315  16.006  0.00  0.00    +0.000 A 
ATOM      6  C   UNL     1      40.929  -1.417  12.904  0.00  0.00    +0.000 A 
ATOM      7  C   UNL     1      41.838  -2.954  14.567  0.00  0.00    +0.000 A 
ATOM      8  C   UNL     1      40.249   0.965  17.341  0.00  0.00    +0.000 A 
ATOM      9  C   UNL     1      40.861  -0.251  17.629  0.00  0.00    +0.000 A 
ATOM     10  C   UNL     1      39.992   0.694  13.608  0.00  0.00    +0.000 A 
ATOM     11  C   UNL     1      41.796  -2.359  16.911  0.00  0.00    +0.000 A 
ATOM     12  C   UNL     1      40.317  -0.206  12.594  0.00  0.00    +0.000 A 
ATOM     13  C   UNL     1      42.122  -3.259  15.897  0.00  0.00    +0.000 A 
ATOM     14  C   UNL     1      41.260  -2.326  11.900  0.00  0.00    +0.000 A 
ATOM     15  C   UNL     1      42.161  -3.849  13.548  0.00  0.00    +0.000 A 
ATOM     16  C   UNL     1      39.325   2.556  15.777  0.00  0.00    +0.000 A 
ATOM     17  C   UNL     1      39.941   1.834  18.387  0.00  0.00    +0.000 A 
ATOM     18  C   UNL     1      41.873  -3.537  12.220  0.00  0.00    +0.000 A 
ATOM     19  C   UNL     1      39.020   3.420  16.826  0.00  0.00    +0.000 A 
ATOM     20  C   UNL     1      39.329   3.059  18.132  0.00  0.00    +0.000 A 
ENDROOT
TORSDOF 0
ENDMDL
MODEL 6
REMARK VINA RESULT:      -7.4     17.007     21.021
REMARK  Name = Benzo[a]pyrene.pdbqt.pdb
REMARK  0 active torsions:
REMARK  status: ('A' for Active; 'I' for Inactive)
REMARK                            x       y       z     vdW  Elec       q    Type
REMARK                         _______ _______ _______ _____ _____    ______ ____
ROOT
ATOM      1  C   UNL     1      41.909  -2.113  14.352  0.00  0.00    +0.000 A 
ATOM      2  C   UNL     1      42.701  -3.282  14.388  0.00  0.00    +0.000 A 
ATOM      3  C   UNL     1      41.905  -1.218  15.445  0.00  0.00    +0.000 A 
ATOM      4  C   UNL     1      41.123  -1.850  13.209  0.00  0.00    +0.000 A 
ATOM      5  C   UNL     1      41.101  -0.052  15.381  0.00  0.00    +0.000 A 
ATOM      6  C   UNL     1      43.493  -3.563  15.519  0.00  0.00    +0.000 A 
ATOM      7  C   UNL     1      42.701  -4.172  13.294  0.00  0.00    +0.000 A 
ATOM      8  C   UNL     1      40.321   0.192  14.228  0.00  0.00    +0.000 A 
ATOM      9  C   UNL     1      40.340  -0.702  13.161  0.00  0.00    +0.000 A 
ATOM     10  C   UNL     1      42.706  -1.529  16.557  0.00  0.00    +0.000 A 
ATOM     11  C   UNL     1      41.134  -2.739  12.135  0.00  0.00    +0.000 A 
ATOM     12  C   UNL     1      43.489  -2.682  16.597  0.00  0.00    +0.000 A 
ATOM     13  C   UNL     1      41.917  -3.892  12.175  0.00  0.00    +0.000 A 
ATOM     14  C   UNL     1      44.271  -4.720  15.547  0.00  0.00    +0.000 A 
ATOM     15  C   UNL     1      43.487  -5.323  13.340  0.00  0.00    +0.000 A 
ATOM     16  C   UNL     1      41.042   0.885  16.426  0.00  0.00    +0.000 A 
ATOM     17  C   UNL     1      39.523   1.332  14.144  0.00  0.00    +0.000 A 
ATOM     18  C   UNL     1      44.268  -5.596  14.462  0.00  0.00    +0.000 A 
ATOM     19  C   UNL     1      40.243   2.023  16.336  0.00  0.00    +0.000 A 
ATOM     20  C   UNL     1      39.483   2.246  15.194  0.00  0.00    +0.000 A 
ENDROOT
TORSDOF 0
ENDMDL
MODEL 7
REMARK VINA RESULT:      -7.2     15.483     19.172
REMARK  Name = Benzo[a]pyrene.pdbqt.pdb
REMARK  0 active torsions:
REMARK  status: ('A' for Active; 'I' for Inactive)
REMARK                            x       y       z     vdW  Elec       q    Type
REMARK                         _______ _______ _______ _____ _____    ______ ____
ROOT
ATOM      1  C   UNL     1      40.964  -0.537  15.623  0.00  0.00    +0.000 A 
ATOM      2  C   UNL     1      40.392   0.677  16.066  0.00  0.00    +0.000 A 
ATOM      3  C   UNL     1      40.859  -0.924  14.267  0.00  0.00    +0.000 A 
ATOM      4  C   UNL     1      41.641  -1.357  16.550  0.00  0.00    +0.000 A 
ATOM      5  C   UNL     1      41.442  -2.146  13.851  0.00  0.00    +0.000 A 
ATOM      6  C   UNL     1      39.712   1.510  15.155  0.00  0.00    +0.000 A 
ATOM      7  C   UNL     1      40.500   1.058  17.419  0.00  0.00    +0.000 A 
ATOM      8  C   UNL     1      42.115  -2.953  14.796  0.00  0.00    +0.000 A 
ATOM      9  C   UNL     1      42.208  -2.554  16.127  0.00  0.00    +0.000 A 
ATOM     10  C   UNL     1      40.174  -0.068  13.387  0.00  0.00    +0.000 A 
ATOM     11  C   UNL     1      41.739  -0.966  17.885  0.00  0.00    +0.000 A 
ATOM     12  C   UNL     1      39.608   1.130  13.820  0.00  0.00    +0.000 A 
ATOM     13  C   UNL     1      41.174   0.232  18.318  0.00  0.00    +0.000 A 
ATOM     14  C   UNL     1      39.151   2.706  15.602  0.00  0.00    +0.000 A 
ATOM     15  C   UNL     1      39.932   2.258  17.846  0.00  0.00    +0.000 A 
ATOM     16  C   UNL     1      41.381  -2.601  12.523  0.00  0.00    +0.000 A 
ATOM     17  C   UNL     1      42.696  -4.160  14.408  0.00  0.00    +0.000 A 
ATOM     18  C   UNL     1      39.261   3.079  16.941  0.00  0.00    +0.000 A 
ATOM     19  C   UNL     1      41.963  -3.807  12.141  0.00  0.00    +0.000 A 
ATOM     20  C   UNL     1      42.621  -4.587  13.085  0.00  0.00    +0.000 A 
ENDROOT
TORSDOF 0
ENDMDL
MODEL 8
REMARK VINA RESULT:      -7.2     16.440     20.079
REMARK  Name = Benzo[a]pyrene.pdbqt.pdb
REMARK  0 active torsions:
REMARK  status: ('A' for Active; 'I' for Inactive)
REMARK                            x       y       z     vdW  Elec       q    Type
REMARK                         _______ _______ _______ _____ _____    ______ ____
ROOT
ATOM      1  C   UNL     1      41.074  -1.152  14.647  0.00  0.00    +0.000 A 
ATOM      2  C   UNL     1      40.717  -0.066  15.477  0.00  0.00    +0.000 A 
ATOM      3  C   UNL     1      41.873  -2.203  15.149  0.00  0.00    +0.000 A 
ATOM      4  C   UNL     1      40.622  -1.173  13.310  0.00  0.00    +0.000 A 
ATOM      5  C   UNL     1      42.216  -3.279  14.294  0.00  0.00    +0.000 A 
ATOM      6  C   UNL     1      41.157  -0.025  16.814  0.00  0.00    +0.000 A 
ATOM      7  C   UNL     1      39.918   0.981  14.970  0.00  0.00    +0.000 A 
ATOM      8  C   UNL     1      41.753  -3.282  12.959  0.00  0.00    +0.000 A 
ATOM      9  C   UNL     1      40.966  -2.236  12.483  0.00  0.00    +0.000 A 
ATOM     10  C   UNL     1      42.295  -2.130  16.488  0.00  0.00    +0.000 A 
ATOM     11  C   UNL     1      39.833  -0.131  12.823  0.00  0.00    +0.000 A 
ATOM     12  C   UNL     1      41.945  -1.060  17.311  0.00  0.00    +0.000 A 
ATOM     13  C   UNL     1      39.483   0.939  13.646  0.00  0.00    +0.000 A 
ATOM     14  C   UNL     1      40.800   1.051  17.626  0.00  0.00    +0.000 A 
ATOM     15  C   UNL     1      39.571   2.048  15.798  0.00  0.00    +0.000 A 
ATOM     16  C   UNL     1      43.007  -4.361  14.718  0.00  0.00    +0.000 A 
ATOM     17  C   UNL     1      42.079  -4.331  12.100  0.00  0.00    +0.000 A 
ATOM     18  C   UNL     1      40.010   2.083  17.121  0.00  0.00    +0.000 A 
ATOM     19  C   UNL     1      43.329  -5.406  13.856  0.00  0.00    +0.000 A 
ATOM     20  C   UNL     1      42.864  -5.391  12.546  0.00  0.00    +0.000 A 
ENDROOT
TORSDOF 0
ENDMDL
MODEL 9
REMARK VINA RESULT:      -7.2     15.330     19.372
REMARK  Name = Benzo[a]pyrene.pdbqt.pdb
REMARK  0 active torsions:
REMARK  status: ('A' for Active; 'I' for Inactive)
REMARK                            x       y       z     vdW  Elec       q    Type
REMARK                         _______ _______ _______ _____ _____    ______ ____
ROOT
ATOM      1  C   UNL     1      40.910  -0.650  14.807  0.00  0.00    +0.000 A 
ATOM      2  C   UNL     1      41.536  -1.844  14.384  0.00  0.00    +0.000 A 
ATOM      3  C   UNL     1      40.926  -0.279  16.171  0.00  0.00    +0.000 A 
ATOM      4  C   UNL     1      40.269   0.165  13.851  0.00  0.00    +0.000 A 
ATOM      5  C   UNL     1      40.289   0.923  16.567  0.00  0.00    +0.000 A 
ATOM      6  C   UNL     1      42.182  -2.673  15.323  0.00  0.00    +0.000 A 
ATOM      7  C   UNL     1      41.518  -2.210  13.022  0.00  0.00    +0.000 A 
ATOM      8  C   UNL     1      39.653   1.726  15.593  0.00  0.00    +0.000 A 
ATOM      9  C   UNL     1      39.649   1.343  14.254  0.00  0.00    +0.000 A 
ATOM     10  C   UNL     1      41.579  -1.130  17.079  0.00  0.00    +0.000 A 
ATOM     11  C   UNL     1      40.259  -0.209  12.508  0.00  0.00    +0.000 A 
ATOM     12  C   UNL     1      42.198  -2.309  16.666  0.00  0.00    +0.000 A 
ATOM     13  C   UNL     1      40.878  -1.388  12.095  0.00  0.00    +0.000 A 
ATOM     14  C   UNL     1      42.798  -3.849  14.896  0.00  0.00    +0.000 A 
ATOM     15  C   UNL     1      42.139  -3.390  12.615  0.00  0.00    +0.000 A 
ATOM     16  C   UNL     1      40.261   1.361  17.901  0.00  0.00    +0.000 A 
ATOM     17  C   UNL     1      39.021   2.914  15.961  0.00  0.00    +0.000 A 
ATOM     18  C   UNL     1      42.776  -4.206  13.549  0.00  0.00    +0.000 A 
ATOM     19  C   UNL     1      39.628   2.548  18.262  0.00  0.00    +0.000 A 
ATOM     20  C   UNL     1      39.007   3.325  17.291  0.00  0.00    +0.000 A 
ENDROOT
TORSDOF 0
ENDMDL
