MODEL 1
REMARK VINA RESULT:      -7.0      0.000      0.000
REMARK  Name = Bicalutamide.pdbqt.pdb
REMARK  8 active torsions:
REMARK  status: ('A' for Active; 'I' for Inactive)
REMARK    1  A    between atoms: C_2  and  N_13
REMARK    2  A    between atoms: C_5  and  C_9
REMARK    3  A    between atoms: C_6  and  C_8
REMARK    4  A    between atoms: C_14  and  C_17
REMARK    5  A    between atoms: C_17  and  O_19
REMARK    6  A    between atoms: C_17  and  C_21
REMARK    7  A    between atoms: C_21  and  S_22
REMARK    8  A    between atoms: S_22  and  C_25
REMARK                            x       y       z     vdW  Elec       q    Type
REMARK                         _______ _______ _______ _____ _____    ______ ____
ROOT
ATOM      1  N   UNL     1      32.527  16.816  19.827  0.00  0.00    +0.000 N 
ATOM      2  C   UNL     1      32.232  17.069  18.490  0.00  0.00    +0.000 C 
ATOM      3  O   UNL     1      32.134  16.202  17.616  0.00  0.00    +0.000 OA
ATOM      4  H   UNL     1      32.478  17.613  20.463  0.00  0.00    +0.000 HD
ENDROOT
BRANCH   1   5
ATOM      5  C   UNL     1      32.801  15.558  20.388  0.00  0.00    +0.000 A 
ATOM      6  C   UNL     1      34.124  15.120  20.386  0.00  0.00    +0.000 A 
ATOM      7  C   UNL     1      31.814  14.738  20.926  0.00  0.00    +0.000 A 
ATOM      8  C   UNL     1      34.479  13.874  20.917  0.00  0.00    +0.000 A 
ATOM      9  C   UNL     1      33.474  13.059  21.459  0.00  0.00    +0.000 A 
ATOM     10  C   UNL     1      32.148  13.495  21.459  0.00  0.00    +0.000 A 
BRANCH   8  11
ATOM     11  C   UNL     1      35.918  13.452  20.890  0.00  0.00    +0.000 C 
ATOM     12  F   UNL     1      36.147  12.374  20.090  0.00  0.00    +0.000 F 
ATOM     13  F   UNL     1      36.737  14.435  20.430  0.00  0.00    +0.000 F 
ATOM     14  F   UNL     1      36.381  13.105  22.120  0.00  0.00    +0.000 F 
ENDBRANCH   8  11
BRANCH   9  16
ATOM     15  N   UNL     1      33.988  10.737  22.489  0.00  0.00    +0.000 NA
ATOM     16  C   UNL     1      33.755  11.772  22.021  0.00  0.00    +0.000 C 
ENDBRANCH   9  16
ENDBRANCH   1   5
BRANCH   2  17
ATOM     17  C   UNL     1      32.063  18.597  18.114  0.00  0.00    +0.000 C 
ATOM     18  C   UNL     1      30.767  19.192  18.735  0.00  0.00    +0.000 C 
BRANCH  17  19
ATOM     19  O   UNL     1      31.961  18.749  16.707  0.00  0.00    +0.000 OA
ATOM     20  H   UNL     1      32.583  19.469  16.491  0.00  0.00    +0.000 HD
ENDBRANCH  17  19
BRANCH  17  21
ATOM     21  C   UNL     1      33.222  19.298  18.573  0.00  0.00    +0.000 C 
BRANCH  21  22
ATOM     22  S   UNL     1      34.477  20.287  19.225  0.00  0.00    +0.000 S 
ATOM     23  O   UNL     1      33.968  20.393  20.569  0.00  0.00    +0.000 OA
ATOM     24  O   UNL     1      34.416  21.318  18.218  0.00  0.00    +0.000 OA
BRANCH  22  25
ATOM     25  C   UNL     1      35.974  19.418  19.168  0.00  0.00    +0.000 A 
ATOM     26  C   UNL     1      35.931  18.031  19.265  0.00  0.00    +0.000 A 
ATOM     27  C   UNL     1      37.123  17.312  19.245  0.00  0.00    +0.000 A 
ATOM     28  C   UNL     1      38.331  17.995  19.134  0.00  0.00    +0.000 A 
ATOM     29  F   UNL     1      39.478  17.302  19.115  0.00  0.00    +0.000 F 
ATOM     30  C   UNL     1      38.370  19.384  19.045  0.00  0.00    +0.000 A 
ATOM     31  C   UNL     1      37.180  20.104  19.065  0.00  0.00    +0.000 A 
ENDBRANCH  22  25
ENDBRANCH  21  22
ENDBRANCH  17  21
ENDBRANCH   2  17
TORSDOF 8
ENDMDL
MODEL 2
REMARK VINA RESULT:      -6.5      4.819      9.246
REMARK  Name = Bicalutamide.pdbqt.pdb
REMARK  8 active torsions:
REMARK  status: ('A' for Active; 'I' for Inactive)
REMARK    1  A    between atoms: C_2  and  N_13
REMARK    2  A    between atoms: C_5  and  C_9
REMARK    3  A    between atoms: C_6  and  C_8
REMARK    4  A    between atoms: C_14  and  C_17
REMARK    5  A    between atoms: C_17  and  O_19
REMARK    6  A    between atoms: C_17  and  C_21
REMARK    7  A    between atoms: C_21  and  S_22
REMARK    8  A    between atoms: S_22  and  C_25
REMARK                            x       y       z     vdW  Elec       q    Type
REMARK                         _______ _______ _______ _____ _____    ______ ____
ROOT
ATOM      1  N   UNL     1      35.055  13.096  21.873  0.00  0.00    +0.000 N 
ATOM      2  C   UNL     1      35.579  12.342  22.920  0.00  0.00    +0.000 C 
ATOM      3  O   UNL     1      36.304  12.790  23.814  0.00  0.00    +0.000 OA
ATOM      4  H   UNL     1      34.389  12.622  21.261  0.00  0.00    +0.000 HD
ENDROOT
BRANCH   1   5
ATOM      5  C   UNL     1      35.294  14.459  21.637  0.00  0.00    +0.000 A 
ATOM      6  C   UNL     1      36.381  14.798  20.832  0.00  0.00    +0.000 A 
ATOM      7  C   UNL     1      34.507  15.471  22.179  0.00  0.00    +0.000 A 
ATOM      8  C   UNL     1      36.692  16.135  20.556  0.00  0.00    +0.000 A 
ATOM      9  C   UNL     1      35.889  17.145  21.107  0.00  0.00    +0.000 A 
ATOM     10  C   UNL     1      34.802  16.806  21.916  0.00  0.00    +0.000 A 
BRANCH   8  11
ATOM     11  C   UNL     1      37.872  16.444  19.682  0.00  0.00    +0.000 C 
ATOM     12  F   UNL     1      38.845  17.150  20.323  0.00  0.00    +0.000 F 
ATOM     13  F   UNL     1      38.478  15.321  19.214  0.00  0.00    +0.000 F 
ATOM     14  F   UNL     1      37.533  17.183  18.594  0.00  0.00    +0.000 F 
ENDBRANCH   8  11
BRANCH   9  16
ATOM     15  N   UNL     1      36.355  19.660  20.694  0.00  0.00    +0.000 NA
ATOM     16  C   UNL     1      36.141  18.534  20.873  0.00  0.00    +0.000 C 
ENDBRANCH   9  16
ENDBRANCH   1   5
BRANCH   2  17
ATOM     17  C   UNL     1      35.221  10.801  22.887  0.00  0.00    +0.000 C 
ATOM     18  C   UNL     1      35.584  10.107  24.231  0.00  0.00    +0.000 C 
BRANCH  17  19
ATOM     19  O   UNL     1      35.957  10.147  21.867  0.00  0.00    +0.000 OA
ATOM     20  H   UNL     1      35.282   9.845  21.230  0.00  0.00    +0.000 HD
ENDBRANCH  17  19
BRANCH  17  21
ATOM     21  C   UNL     1      33.824  10.675  22.605  0.00  0.00    +0.000 C 
BRANCH  21  22
ATOM     22  S   UNL     1      32.112  10.700  22.399  0.00  0.00    +0.000 S 
ATOM     23  O   UNL     1      32.080  11.261  21.072  0.00  0.00    +0.000 OA
ATOM     24  O   UNL     1      31.808  11.408  23.619  0.00  0.00    +0.000 OA
BRANCH  22  25
ATOM     25  C   UNL     1      31.510   9.077  22.428  0.00  0.00    +0.000 A 
ATOM     26  C   UNL     1      30.384   8.809  23.199  0.00  0.00    +0.000 A 
ATOM     27  C   UNL     1      29.894   7.507  23.257  0.00  0.00    +0.000 A 
ATOM     28  C   UNL     1      30.544   6.500  22.548  0.00  0.00    +0.000 A 
ATOM     29  F   UNL     1      30.072   5.247  22.604  0.00  0.00    +0.000 F 
ATOM     30  C   UNL     1      31.675   6.772  21.783  0.00  0.00    +0.000 A 
ATOM     31  C   UNL     1      32.166   8.072  21.724  0.00  0.00    +0.000 A 
ENDBRANCH  22  25
ENDBRANCH  21  22
ENDBRANCH  17  21
ENDBRANCH   2  17
TORSDOF 8
ENDMDL
MODEL 3
REMARK VINA RESULT:      -6.5      4.683      7.859
REMARK  Name = Bicalutamide.pdbqt.pdb
REMARK  8 active torsions:
REMARK  status: ('A' for Active; 'I' for Inactive)
REMARK    1  A    between atoms: C_2  and  N_13
REMARK    2  A    between atoms: C_5  and  C_9
REMARK    3  A    between atoms: C_6  and  C_8
REMARK    4  A    between atoms: C_14  and  C_17
REMARK    5  A    between atoms: C_17  and  O_19
REMARK    6  A    between atoms: C_17  and  C_21
REMARK    7  A    between atoms: C_21  and  S_22
REMARK    8  A    between atoms: S_22  and  C_25
REMARK                            x       y       z     vdW  Elec       q    Type
REMARK                         _______ _______ _______ _____ _____    ______ ____
ROOT
ATOM      1  N   UNL     1      35.055  13.047  21.814  0.00  0.00    +0.000 N 
ATOM      2  C   UNL     1      35.534  12.297  22.885  0.00  0.00    +0.000 C 
ATOM      3  O   UNL     1      36.209  12.752  23.815  0.00  0.00    +0.000 OA
ATOM      4  H   UNL     1      34.425  12.568  21.169  0.00  0.00    +0.000 HD
ENDROOT
BRANCH   1   5
ATOM      5  C   UNL     1      35.292  14.413  21.592  0.00  0.00    +0.000 A 
ATOM      6  C   UNL     1      36.390  14.764  20.808  0.00  0.00    +0.000 A 
ATOM      7  C   UNL     1      34.491  15.417  22.127  0.00  0.00    +0.000 A 
ATOM      8  C   UNL     1      36.699  16.104  20.547  0.00  0.00    +0.000 A 
ATOM      9  C   UNL     1      35.882  17.106  21.092  0.00  0.00    +0.000 A 
ATOM     10  C   UNL     1      34.783  16.756  21.879  0.00  0.00    +0.000 A 
BRANCH   8  11
ATOM     11  C   UNL     1      37.893  16.425  19.697  0.00  0.00    +0.000 C 
ATOM     12  F   UNL     1      37.590  17.190  18.612  0.00  0.00    +0.000 F 
ATOM     13  F   UNL     1      38.845  17.113  20.380  0.00  0.00    +0.000 F 
ATOM     14  F   UNL     1      38.497  15.310  19.207  0.00  0.00    +0.000 F 
ENDBRANCH   8  11
BRANCH   9  16
ATOM     15  N   UNL     1      36.333  19.623  20.679  0.00  0.00    +0.000 NA
ATOM     16  C   UNL     1      36.131  18.498  20.871  0.00  0.00    +0.000 C 
ENDBRANCH   9  16
ENDBRANCH   1   5
BRANCH   2  17
ATOM     17  C   UNL     1      35.195  10.752  22.833  0.00  0.00    +0.000 C 
ATOM     18  C   UNL     1      35.568  10.045  24.166  0.00  0.00    +0.000 C 
BRANCH  17  19
ATOM     19  O   UNL     1      35.937  10.120  21.802  0.00  0.00    +0.000 OA
ATOM     20  H   UNL     1      36.227  10.851  21.224  0.00  0.00    +0.000 HD
ENDBRANCH  17  19
BRANCH  17  21
ATOM     21  C   UNL     1      33.799  10.614  22.551  0.00  0.00    +0.000 C 
BRANCH  21  22
ATOM     22  S   UNL     1      32.100  10.664  22.261  0.00  0.00    +0.000 S 
ATOM     23  O   UNL     1      31.678   9.925  23.424  0.00  0.00    +0.000 OA
ATOM     24  O   UNL     1      32.145  10.154  20.913  0.00  0.00    +0.000 OA
BRANCH  22  25
ATOM     25  C   UNL     1      31.561  12.309  22.311  0.00  0.00    +0.000 A 
ATOM     26  C   UNL     1      31.026  12.859  21.151  0.00  0.00    +0.000 A 
ATOM     27  C   UNL     1      30.607  14.187  21.160  0.00  0.00    +0.000 A 
ATOM     28  C   UNL     1      30.736  14.937  22.326  0.00  0.00    +0.000 A 
ATOM     29  F   UNL     1      30.333  16.215  22.333  0.00  0.00    +0.000 F 
ATOM     30  C   UNL     1      31.278  14.384  23.483  0.00  0.00    +0.000 A 
ATOM     31  C   UNL     1      31.697  13.058  23.476  0.00  0.00    +0.000 A 
ENDBRANCH  22  25
ENDBRANCH  21  22
ENDBRANCH  17  21
ENDBRANCH   2  17
TORSDOF 8
ENDMDL
MODEL 4
REMARK VINA RESULT:      -6.3      4.613      8.941
REMARK  Name = Bicalutamide.pdbqt.pdb
REMARK  8 active torsions:
REMARK  status: ('A' for Active; 'I' for Inactive)
REMARK    1  A    between atoms: C_2  and  N_13
REMARK    2  A    between atoms: C_5  and  C_9
REMARK    3  A    between atoms: C_6  and  C_8
REMARK    4  A    between atoms: C_14  and  C_17
REMARK    5  A    between atoms: C_17  and  O_19
REMARK    6  A    between atoms: C_17  and  C_21
REMARK    7  A    between atoms: C_21  and  S_22
REMARK    8  A    between atoms: S_22  and  C_25
REMARK                            x       y       z     vdW  Elec       q    Type
REMARK                         _______ _______ _______ _____ _____    ______ ____
ROOT
ATOM      1  N   UNL     1      36.379  14.259  21.624  0.00  0.00    +0.000 N 
ATOM      2  C   UNL     1      35.442  13.317  21.208  0.00  0.00    +0.000 C 
ATOM      3  O   UNL     1      34.757  13.411  20.184  0.00  0.00    +0.000 OA
ATOM      4  H   UNL     1      36.948  14.009  22.434  0.00  0.00    +0.000 HD
ENDROOT
BRANCH   1   5
ATOM      5  C   UNL     1      36.665  15.476  20.984  0.00  0.00    +0.000 A 
ATOM      6  C   UNL     1      35.899  16.589  21.331  0.00  0.00    +0.000 A 
ATOM      7  C   UNL     1      37.661  15.610  20.022  0.00  0.00    +0.000 A 
ATOM      8  C   UNL     1      36.116  17.835  20.733  0.00  0.00    +0.000 A 
ATOM      9  C   UNL     1      37.124  17.956  19.765  0.00  0.00    +0.000 A 
ATOM     10  C   UNL     1      37.890  16.842  19.415  0.00  0.00    +0.000 A 
BRANCH   8  11
ATOM     11  C   UNL     1      35.263  19.000  21.143  0.00  0.00    +0.000 C 
ATOM     12  F   UNL     1      34.459  19.457  20.144  0.00  0.00    +0.000 F 
ATOM     13  F   UNL     1      34.434  18.695  22.176  0.00  0.00    +0.000 F 
ATOM     14  F   UNL     1      36.001  20.069  21.542  0.00  0.00    +0.000 F 
ENDBRANCH   8  11
BRANCH   9  16
ATOM     15  N   UNL     1      37.627  20.206  18.583  0.00  0.00    +0.000 NA
ATOM     16  C   UNL     1      37.408  19.196  19.108  0.00  0.00    +0.000 C 
ENDBRANCH   9  16
ENDBRANCH   1   5
BRANCH   2  17
ATOM     17  C   UNL     1      35.255  12.078  22.176  0.00  0.00    +0.000 C 
ATOM     18  C   UNL     1      35.924  12.333  23.556  0.00  0.00    +0.000 C 
BRANCH  17  19
ATOM     19  O   UNL     1      35.866  10.924  21.621  0.00  0.00    +0.000 OA
ATOM     20  H   UNL     1      35.465  10.835  20.735  0.00  0.00    +0.000 HD
ENDBRANCH  17  19
BRANCH  17  21
ATOM     21  C   UNL     1      33.853  11.837  22.321  0.00  0.00    +0.000 C 
BRANCH  21  22
ATOM     22  S   UNL     1      32.214  11.440  22.687  0.00  0.00    +0.000 S 
ATOM     23  O   UNL     1      31.582  12.283  21.705  0.00  0.00    +0.000 OA
ATOM     24  O   UNL     1      32.290  11.709  24.103  0.00  0.00    +0.000 OA
BRANCH  22  25
ATOM     25  C   UNL     1      31.948   9.760  22.363  0.00  0.00    +0.000 A 
ATOM     26  C   UNL     1      30.916   9.117  23.039  0.00  0.00    +0.000 A 
ATOM     27  C   UNL     1      30.697   7.761  22.812  0.00  0.00    +0.000 A 
ATOM     28  C   UNL     1      31.517   7.076  21.920  0.00  0.00    +0.000 A 
ATOM     29  F   UNL     1      31.305   5.771  21.702  0.00  0.00    +0.000 F 
ATOM     30  C   UNL     1      32.553   7.722  21.251  0.00  0.00    +0.000 A 
ATOM     31  C   UNL     1      32.774   9.076  21.476  0.00  0.00    +0.000 A 
ENDBRANCH  22  25
ENDBRANCH  21  22
ENDBRANCH  17  21
ENDBRANCH   2  17
TORSDOF 8
ENDMDL
MODEL 5
REMARK VINA RESULT:      -6.2      4.661      8.703
REMARK  Name = Bicalutamide.pdbqt.pdb
REMARK  8 active torsions:
REMARK  status: ('A' for Active; 'I' for Inactive)
REMARK    1  A    between atoms: C_2  and  N_13
REMARK    2  A    between atoms: C_5  and  C_9
REMARK    3  A    between atoms: C_6  and  C_8
REMARK    4  A    between atoms: C_14  and  C_17
REMARK    5  A    between atoms: C_17  and  O_19
REMARK    6  A    between atoms: C_17  and  C_21
REMARK    7  A    between atoms: C_21  and  S_22
REMARK    8  A    between atoms: S_22  and  C_25
REMARK                            x       y       z     vdW  Elec       q    Type
REMARK                         _______ _______ _______ _____ _____    ______ ____
ROOT
ATOM      1  N   UNL     1      35.120  15.075  22.955  0.00  0.00    +0.000 N 
ATOM      2  C   UNL     1      34.390  13.948  22.589  0.00  0.00    +0.000 C 
ATOM      3  O   UNL     1      34.007  13.701  21.441  0.00  0.00    +0.000 OA
ATOM      4  H   UNL     1      35.460  15.105  23.918  0.00  0.00    +0.000 HD
ENDROOT
BRANCH   1   5
ATOM      5  C   UNL     1      35.499  16.125  22.103  0.00  0.00    +0.000 A 
ATOM      6  C   UNL     1      36.567  15.905  21.235  0.00  0.00    +0.000 A 
ATOM      7  C   UNL     1      34.866  17.365  22.101  0.00  0.00    +0.000 A 
ATOM      8  C   UNL     1      37.012  16.904  20.360  0.00  0.00    +0.000 A 
ATOM      9  C   UNL     1      36.363  18.148  20.367  0.00  0.00    +0.000 A 
ATOM     10  C   UNL     1      35.295  18.370  21.238  0.00  0.00    +0.000 A 
BRANCH   8  11
ATOM     11  C   UNL     1      38.166  16.613  19.446  0.00  0.00    +0.000 C 
ATOM     12  F   UNL     1      39.293  17.308  19.765  0.00  0.00    +0.000 F 
ATOM     13  F   UNL     1      38.522  15.301  19.464  0.00  0.00    +0.000 F 
ATOM     14  F   UNL     1      37.893  16.922  18.151  0.00  0.00    +0.000 F 
ENDBRANCH   8  11
BRANCH   9  16
ATOM     15  N   UNL     1      37.078  20.096  18.817  0.00  0.00    +0.000 NA
ATOM     16  C   UNL     1      36.757  19.219  19.504  0.00  0.00    +0.000 C 
ENDBRANCH   9  16
ENDBRANCH   1   5
BRANCH   2  17
ATOM     17  C   UNL     1      34.019  12.970  23.777  0.00  0.00    +0.000 C 
ATOM     18  C   UNL     1      32.478  12.845  23.947  0.00  0.00    +0.000 C 
BRANCH  17  19
ATOM     19  O   UNL     1      34.536  13.464  25.002  0.00  0.00    +0.000 OA
ATOM     20  H   UNL     1      34.043  14.292  25.161  0.00  0.00    +0.000 HD
ENDBRANCH  17  19
BRANCH  17  21
ATOM     21  C   UNL     1      34.610  11.696  23.505  0.00  0.00    +0.000 C 
BRANCH  21  22
ATOM     22  S   UNL     1      35.305  10.214  22.960  0.00  0.00    +0.000 S 
ATOM     23  O   UNL     1      35.968   9.844  24.185  0.00  0.00    +0.000 OA
ATOM     24  O   UNL     1      35.948  10.754  21.786  0.00  0.00    +0.000 OA
BRANCH  22  25
ATOM     25  C   UNL     1      34.039   9.106  22.550  0.00  0.00    +0.000 A 
ATOM     26  C   UNL     1      34.313   7.744  22.618  0.00  0.00    +0.000 A 
ATOM     27  C   UNL     1      33.318   6.834  22.271  0.00  0.00    +0.000 A 
ATOM     28  C   UNL     1      32.074   7.304  21.859  0.00  0.00    +0.000 A 
ATOM     29  F   UNL     1      31.117   6.428  21.525  0.00  0.00    +0.000 F 
ATOM     30  C   UNL     1      31.807   8.669  21.786  0.00  0.00    +0.000 A 
ATOM     31  C   UNL     1      32.800   9.580  22.132  0.00  0.00    +0.000 A 
ENDBRANCH  22  25
ENDBRANCH  21  22
ENDBRANCH  17  21
ENDBRANCH   2  17
TORSDOF 8
ENDMDL
MODEL 6
REMARK VINA RESULT:      -6.1      4.676      9.039
REMARK  Name = Bicalutamide.pdbqt.pdb
REMARK  8 active torsions:
REMARK  status: ('A' for Active; 'I' for Inactive)
REMARK    1  A    between atoms: C_2  and  N_13
REMARK    2  A    between atoms: C_5  and  C_9
REMARK    3  A    between atoms: C_6  and  C_8
REMARK    4  A    between atoms: C_14  and  C_17
REMARK    5  A    between atoms: C_17  and  O_19
REMARK    6  A    between atoms: C_17  and  C_21
REMARK    7  A    between atoms: C_21  and  S_22
REMARK    8  A    between atoms: S_22  and  C_25
REMARK                            x       y       z     vdW  Elec       q    Type
REMARK                         _______ _______ _______ _____ _____    ______ ____
ROOT
ATOM      1  N   UNL     1      34.924  13.189  21.784  0.00  0.00    +0.000 N 
ATOM      2  C   UNL     1      35.452  12.401  22.803  0.00  0.00    +0.000 C 
ATOM      3  O   UNL     1      36.227  12.807  23.676  0.00  0.00    +0.000 OA
ATOM      4  H   UNL     1      34.218  12.753  21.190  0.00  0.00    +0.000 HD
ENDROOT
BRANCH   1   5
ATOM      5  C   UNL     1      35.213  14.544  21.556  0.00  0.00    +0.000 A 
ATOM      6  C   UNL     1      36.328  14.849  20.775  0.00  0.00    +0.000 A 
ATOM      7  C   UNL     1      34.448  15.581  22.082  0.00  0.00    +0.000 A 
ATOM      8  C   UNL     1      36.688  16.175  20.509  0.00  0.00    +0.000 A 
ATOM      9  C   UNL     1      35.906  17.210  21.043  0.00  0.00    +0.000 A 
ATOM     10  C   UNL     1      34.792  16.906  21.827  0.00  0.00    +0.000 A 
BRANCH   8  11
ATOM     11  C   UNL     1      37.897  16.446  19.662  0.00  0.00    +0.000 C 
ATOM     12  F   UNL     1      38.872  17.131  20.322  0.00  0.00    +0.000 F 
ATOM     13  F   UNL     1      38.483  15.304  19.216  0.00  0.00    +0.000 F 
ATOM     14  F   UNL     1      37.604  17.187  18.561  0.00  0.00    +0.000 F 
ENDBRANCH   8  11
BRANCH   9  16
ATOM     15  N   UNL     1      36.455  19.706  20.619  0.00  0.00    +0.000 NA
ATOM     16  C   UNL     1      36.208  18.591  20.817  0.00  0.00    +0.000 C 
ENDBRANCH   9  16
ENDBRANCH   1   5
BRANCH   2  17
ATOM     17  C   UNL     1      35.029  10.876  22.765  0.00  0.00    +0.000 C 
ATOM     18  C   UNL     1      35.013  10.258  24.192  0.00  0.00    +0.000 C 
BRANCH  17  19
ATOM     19  O   UNL     1      35.955  10.127  21.995  0.00  0.00    +0.000 OA
ATOM     20  H   UNL     1      35.486   9.298  21.783  0.00  0.00    +0.000 HD
ENDBRANCH  17  19
BRANCH  17  21
ATOM     21  C   UNL     1      33.739  10.789  22.153  0.00  0.00    +0.000 C 
BRANCH  21  22
ATOM     22  S   UNL     1      32.106  10.637  21.619  0.00  0.00    +0.000 S 
ATOM     23  O   UNL     1      32.330   9.676  20.568  0.00  0.00    +0.000 OA
ATOM     24  O   UNL     1      31.859  12.046  21.431  0.00  0.00    +0.000 OA
BRANCH  22  25
ATOM     25  C   UNL     1      31.145   9.979  22.901  0.00  0.00    +0.000 A 
ATOM     26  C   UNL     1      31.095   8.596  23.039  0.00  0.00    +0.000 A 
ATOM     27  C   UNL     1      30.311   8.042  24.048  0.00  0.00    +0.000 A 
ATOM     28  C   UNL     1      29.592   8.882  24.893  0.00  0.00    +0.000 A 
ATOM     29  F   UNL     1      28.837   8.349  25.864  0.00  0.00    +0.000 F 
ATOM     30  C   UNL     1      29.640  10.266  24.747  0.00  0.00    +0.000 A 
ATOM     31  C   UNL     1      30.422  10.821  23.740  0.00  0.00    +0.000 A 
ENDBRANCH  22  25
ENDBRANCH  21  22
ENDBRANCH  17  21
ENDBRANCH   2  17
TORSDOF 8
ENDMDL
MODEL 7
REMARK VINA RESULT:      -5.9     21.122     23.303
REMARK  Name = Bicalutamide.pdbqt.pdb
REMARK  8 active torsions:
REMARK  status: ('A' for Active; 'I' for Inactive)
REMARK    1  A    between atoms: C_2  and  N_13
REMARK    2  A    between atoms: C_5  and  C_9
REMARK    3  A    between atoms: C_6  and  C_8
REMARK    4  A    between atoms: C_14  and  C_17
REMARK    5  A    between atoms: C_17  and  O_19
REMARK    6  A    between atoms: C_17  and  C_21
REMARK    7  A    between atoms: C_21  and  S_22
REMARK    8  A    between atoms: S_22  and  C_25
REMARK                            x       y       z     vdW  Elec       q    Type
REMARK                         _______ _______ _______ _____ _____    ______ ____
ROOT
ATOM      1  N   UNL     1      51.900   5.920   9.671  0.00  0.00    +0.000 N 
ATOM      2  C   UNL     1      51.220   6.418   8.563  0.00  0.00    +0.000 C 
ATOM      3  O   UNL     1      50.358   7.302   8.607  0.00  0.00    +0.000 OA
ATOM      4  H   UNL     1      52.659   5.263   9.481  0.00  0.00    +0.000 HD
ENDROOT
BRANCH   1   5
ATOM      5  C   UNL     1      51.693   6.301  11.006  0.00  0.00    +0.000 A 
ATOM      6  C   UNL     1      52.671   7.085  11.618  0.00  0.00    +0.000 A 
ATOM      7  C   UNL     1      50.572   5.920  11.737  0.00  0.00    +0.000 A 
ATOM      8  C   UNL     1      52.543   7.498  12.949  0.00  0.00    +0.000 A 
ATOM      9  C   UNL     1      51.407   7.109  13.673  0.00  0.00    +0.000 A 
ATOM     10  C   UNL     1      50.429   6.322  13.063  0.00  0.00    +0.000 A 
BRANCH   8  11
ATOM     11  C   UNL     1      53.625   8.342  13.558  0.00  0.00    +0.000 C 
ATOM     12  F   UNL     1      54.680   8.549  12.721  0.00  0.00    +0.000 F 
ATOM     13  F   UNL     1      53.181   9.578  13.908  0.00  0.00    +0.000 F 
ATOM     14  F   UNL     1      54.147   7.785  14.682  0.00  0.00    +0.000 F 
ENDBRANCH   8  11
BRANCH   9  16
ATOM     15  N   UNL     1      51.043   7.787  16.147  0.00  0.00    +0.000 NA
ATOM     16  C   UNL     1      51.203   7.491  15.038  0.00  0.00    +0.000 C 
ENDBRANCH   9  16
ENDBRANCH   1   5
BRANCH   2  17
ATOM     17  C   UNL     1      51.588   5.738   7.182  0.00  0.00    +0.000 C 
ATOM     18  C   UNL     1      52.963   6.237   6.654  0.00  0.00    +0.000 C 
BRANCH  17  19
ATOM     19  O   UNL     1      50.619   6.064   6.199  0.00  0.00    +0.000 OA
ATOM     20  H   UNL     1      49.985   5.321   6.222  0.00  0.00    +0.000 HD
ENDBRANCH  17  19
BRANCH  17  21
ATOM     21  C   UNL     1      51.596   4.320   7.374  0.00  0.00    +0.000 C 
BRANCH  21  22
ATOM     22  S   UNL     1      51.657   2.596   7.389  0.00  0.00    +0.000 S 
ATOM     23  O   UNL     1      53.066   2.446   7.126  0.00  0.00    +0.000 OA
ATOM     24  O   UNL     1      50.596   2.384   6.435  0.00  0.00    +0.000 OA
BRANCH  22  25
ATOM     25  C   UNL     1      51.230   2.024   8.966  0.00  0.00    +0.000 A 
ATOM     26  C   UNL     1      52.087   1.124   9.591  0.00  0.00    +0.000 A 
ATOM     27  C   UNL     1      51.753   0.632  10.850  0.00  0.00    +0.000 A 
ATOM     28  C   UNL     1      50.569   1.045  11.455  0.00  0.00    +0.000 A 
ATOM     29  F   UNL     1      50.249   0.571  12.666  0.00  0.00    +0.000 F 
ATOM     30  C   UNL     1      49.711   1.941  10.822  0.00  0.00    +0.000 A 
ATOM     31  C   UNL     1      50.042   2.433   9.564  0.00  0.00    +0.000 A 
ENDBRANCH  22  25
ENDBRANCH  21  22
ENDBRANCH  17  21
ENDBRANCH   2  17
TORSDOF 8
ENDMDL
MODEL 8
REMARK VINA RESULT:      -5.9     18.683     21.649
REMARK  Name = Bicalutamide.pdbqt.pdb
REMARK  8 active torsions:
REMARK  status: ('A' for Active; 'I' for Inactive)
REMARK    1  A    between atoms: C_2  and  N_13
REMARK    2  A    between atoms: C_5  and  C_9
REMARK    3  A    between atoms: C_6  and  C_8
REMARK    4  A    between atoms: C_14  and  C_17
REMARK    5  A    between atoms: C_17  and  O_19
REMARK    6  A    between atoms: C_17  and  C_21
REMARK    7  A    between atoms: C_21  and  S_22
REMARK    8  A    between atoms: S_22  and  C_25
REMARK                            x       y       z     vdW  Elec       q    Type
REMARK                         _______ _______ _______ _____ _____    ______ ____
ROOT
ATOM      1  N   UNL     1      52.133  17.747   9.779  0.00  0.00    +0.000 N 
ATOM      2  C   UNL     1      50.893  17.152   9.563  0.00  0.00    +0.000 C 
ATOM      3  O   UNL     1      50.642  16.362   8.646  0.00  0.00    +0.000 OA
ATOM      4  H   UNL     1      52.230  18.300  10.632  0.00  0.00    +0.000 HD
ENDROOT
BRANCH   1   5
ATOM      5  C   UNL     1      53.276  17.586   8.979  0.00  0.00    +0.000 A 
ATOM      6  C   UNL     1      53.983  16.390   9.089  0.00  0.00    +0.000 A 
ATOM      7  C   UNL     1      53.730  18.566   8.102  0.00  0.00    +0.000 A 
ATOM      8  C   UNL     1      55.138  16.156   8.333  0.00  0.00    +0.000 A 
ATOM      9  C   UNL     1      55.583  17.152   7.451  0.00  0.00    +0.000 A 
ATOM     10  C   UNL     1      54.877  18.351   7.342  0.00  0.00    +0.000 A 
BRANCH   8  11
ATOM     11  C   UNL     1      55.861  14.850   8.490  0.00  0.00    +0.000 C 
ATOM     12  F   UNL     1      55.769  14.049   7.392  0.00  0.00    +0.000 F 
ATOM     13  F   UNL     1      57.191  15.019   8.714  0.00  0.00    +0.000 F 
ATOM     14  F   UNL     1      55.384  14.114   9.527  0.00  0.00    +0.000 F 
ENDBRANCH   8  11
BRANCH   9  16
ATOM     15  N   UNL     1      57.711  16.858   6.002  0.00  0.00    +0.000 NA
ATOM     16  C   UNL     1      56.754  16.990   6.644  0.00  0.00    +0.000 C 
ENDBRANCH   9  16
ENDBRANCH   1   5
BRANCH   2  17
ATOM     17  C   UNL     1      49.751  17.587  10.569  0.00  0.00    +0.000 C 
ATOM     18  C   UNL     1      48.355  17.105  10.083  0.00  0.00    +0.000 C 
BRANCH  17  19
ATOM     19  O   UNL     1      49.695  19.001  10.667  0.00  0.00    +0.000 OA
ATOM     20  H   UNL     1      49.157  19.172  11.463  0.00  0.00    +0.000 HD
ENDBRANCH  17  19
BRANCH  17  21
ATOM     21  C   UNL     1      50.062  17.045  11.855  0.00  0.00    +0.000 C 
BRANCH  21  22
ATOM     22  S   UNL     1      50.629  16.319  13.314  0.00  0.00    +0.000 S 
ATOM     23  O   UNL     1      49.829  15.122  13.264  0.00  0.00    +0.000 OA
ATOM     24  O   UNL     1      50.387  17.456  14.170  0.00  0.00    +0.000 OA
BRANCH  22  25
ATOM     25  C   UNL     1      52.319  15.975  13.161  0.00  0.00    +0.000 A 
ATOM     26  C   UNL     1      53.176  17.024  12.846  0.00  0.00    +0.000 A 
ATOM     27  C   UNL     1      54.536  16.768  12.695  0.00  0.00    +0.000 A 
ATOM     28  C   UNL     1      55.009  15.468  12.857  0.00  0.00    +0.000 A 
ATOM     29  F   UNL     1      56.318  15.222  12.712  0.00  0.00    +0.000 F 
ATOM     30  C   UNL     1      54.146  14.420  13.166  0.00  0.00    +0.000 A 
ATOM     31  C   UNL     1      52.787  14.674  13.317  0.00  0.00    +0.000 A 
ENDBRANCH  22  25
ENDBRANCH  21  22
ENDBRANCH  17  21
ENDBRANCH   2  17
TORSDOF 8
ENDMDL
MODEL 9
REMARK VINA RESULT:      -5.8      5.672      8.991
REMARK  Name = Bicalutamide.pdbqt.pdb
REMARK  8 active torsions:
REMARK  status: ('A' for Active; 'I' for Inactive)
REMARK    1  A    between atoms: C_2  and  N_13
REMARK    2  A    between atoms: C_5  and  C_9
REMARK    3  A    between atoms: C_6  and  C_8
REMARK    4  A    between atoms: C_14  and  C_17
REMARK    5  A    between atoms: C_17  and  O_19
REMARK    6  A    between atoms: C_17  and  C_21
REMARK    7  A    between atoms: C_21  and  S_22
REMARK    8  A    between atoms: S_22  and  C_25
REMARK                            x       y       z     vdW  Elec       q    Type
REMARK                         _______ _______ _______ _____ _____    ______ ____
ROOT
ATOM      1  N   UNL     1      34.783  13.431  22.043  0.00  0.00    +0.000 N 
ATOM      2  C   UNL     1      35.351  12.664  23.057  0.00  0.00    +0.000 C 
ATOM      3  O   UNL     1      36.231  13.059  23.827  0.00  0.00    +0.000 OA
ATOM      4  H   UNL     1      33.994  13.016  21.545  0.00  0.00    +0.000 HD
ENDROOT
BRANCH   1   5
ATOM      5  C   UNL     1      35.141  14.746  21.704  0.00  0.00    +0.000 A 
ATOM      6  C   UNL     1      36.267  14.927  20.902  0.00  0.00    +0.000 A 
ATOM      7  C   UNL     1      34.432  15.860  22.142  0.00  0.00    +0.000 A 
ATOM      8  C   UNL     1      36.695  16.206  20.527  0.00  0.00    +0.000 A 
ATOM      9  C   UNL     1      35.970  17.320  20.975  0.00  0.00    +0.000 A 
ATOM     10  C   UNL     1      34.844  17.141  21.780  0.00  0.00    +0.000 A 
BRANCH   8  11
ATOM     11  C   UNL     1      37.913  16.343  19.662  0.00  0.00    +0.000 C 
ATOM     12  F   UNL     1      38.921  17.037  20.259  0.00  0.00    +0.000 F 
ATOM     13  F   UNL     1      38.444  15.139  19.321  0.00  0.00    +0.000 F 
ATOM     14  F   UNL     1      37.653  16.996  18.498  0.00  0.00    +0.000 F 
ENDBRANCH   8  11
BRANCH   9  16
ATOM     15  N   UNL     1      36.650  19.741  20.348  0.00  0.00    +0.000 NA
ATOM     16  C   UNL     1      36.343  18.660  20.635  0.00  0.00    +0.000 C 
ENDBRANCH   9  16
ENDBRANCH   1   5
BRANCH   2  17
ATOM     17  C   UNL     1      34.821  11.176  23.154  0.00  0.00    +0.000 C 
ATOM     18  C   UNL     1      35.697  10.207  22.310  0.00  0.00    +0.000 C 
BRANCH  17  19
ATOM     19  O   UNL     1      33.498  11.090  22.650  0.00  0.00    +0.000 OA
ATOM     20  H   UNL     1      32.937  11.440  23.368  0.00  0.00    +0.000 HD
ENDBRANCH  17  19
BRANCH  17  21
ATOM     21  C   UNL     1      34.818  10.795  24.533  0.00  0.00    +0.000 C 
BRANCH  21  22
ATOM     22  S   UNL     1      35.032  10.298  26.171  0.00  0.00    +0.000 S 
ATOM     23  O   UNL     1      34.095   9.203  26.170  0.00  0.00    +0.000 OA
ATOM     24  O   UNL     1      34.811  11.592  26.768  0.00  0.00    +0.000 OA
BRANCH  22  25
ATOM     25  C   UNL     1      36.661   9.754  26.393  0.00  0.00    +0.000 A 
ATOM     26  C   UNL     1      37.593  10.660  26.888  0.00  0.00    +0.000 A 
ATOM     27  C   UNL     1      38.914  10.254  27.054  0.00  0.00    +0.000 A 
ATOM     28  C   UNL     1      39.276   8.952  26.717  0.00  0.00    +0.000 A 
ATOM     29  F   UNL     1      40.548   8.561  26.877  0.00  0.00    +0.000 F 
ATOM     30  C   UNL     1      38.341   8.051  26.215  0.00  0.00    +0.000 A 
ATOM     31  C   UNL     1      37.021   8.455  26.048  0.00  0.00    +0.000 A 
ENDBRANCH  22  25
ENDBRANCH  21  22
ENDBRANCH  17  21
ENDBRANCH   2  17
TORSDOF 8
ENDMDL
