MODEL 1
REMARK VINA RESULT:      -6.0      0.000      0.000
REMARK  Name = Bisphenol_A.pdbqt.pdb
REMARK  4 active torsions:
REMARK  status: ('A' for Active; 'I' for Inactive)
REMARK    1  A    between atoms: C_1  and  C_4
REMARK    2  A    between atoms: C_1  and  C_12
REMARK    3  A    between atoms: C_7  and  O_10
REMARK    4  A    between atoms: C_15  and  O_18
REMARK                            x       y       z     vdW  Elec       q    Type
REMARK                         _______ _______ _______ _____ _____    ______ ____
ROOT
ATOM      1  C   UNL     1      39.627  -1.378  14.653  0.00  0.00    +0.000 C 
ATOM      2  C   UNL     1      38.954  -1.484  13.239  0.00  0.00    +0.000 C 
ATOM      3  C   UNL     1      38.820  -2.288  15.646  0.00  0.00    +0.000 C 
ENDROOT
BRANCH   1   4
ATOM      4  C   UNL     1      41.078  -1.857  14.492  0.00  0.00    +0.000 A 
ATOM      5  C   UNL     1      41.458  -2.568  13.339  0.00  0.00    +0.000 A 
ATOM      6  C   UNL     1      42.760  -3.034  13.169  0.00  0.00    +0.000 A 
ATOM      7  C   UNL     1      43.702  -2.795  14.162  0.00  0.00    +0.000 A 
ATOM      8  C   UNL     1      43.359  -2.103  15.318  0.00  0.00    +0.000 A 
ATOM      9  C   UNL     1      42.053  -1.645  15.477  0.00  0.00    +0.000 A 
BRANCH   7  10
ATOM     10  O   UNL     1      44.986  -3.232  14.026  0.00  0.00    +0.000 OA
ATOM     11  H   UNL     1      45.585  -2.471  14.119  0.00  0.00    +0.000 HD
ENDBRANCH   7  10
ENDBRANCH   1   4
BRANCH   1  12
ATOM     12  C   UNL     1      39.563   0.051  15.210  0.00  0.00    +0.000 A 
ATOM     13  C   UNL     1      39.618   1.151  14.333  0.00  0.00    +0.000 A 
ATOM     14  C   UNL     1      39.580   2.460  14.806  0.00  0.00    +0.000 A 
ATOM     15  C   UNL     1      39.491   2.686  16.174  0.00  0.00    +0.000 A 
ATOM     16  C   UNL     1      39.442   1.624  17.070  0.00  0.00    +0.000 A 
ATOM     17  C   UNL     1      39.484   0.319  16.585  0.00  0.00    +0.000 A 
BRANCH  15  18
ATOM     18  O   UNL     1      39.446   3.955  16.671  0.00  0.00    +0.000 OA
ATOM     19  H   UNL     1      40.341   4.206  16.962  0.00  0.00    +0.000 HD
ENDBRANCH  15  18
ENDBRANCH   1  12
TORSDOF 4
ENDMDL
MODEL 2
REMARK VINA RESULT:      -5.7     11.427     13.794
REMARK  Name = Bisphenol_A.pdbqt.pdb
REMARK  4 active torsions:
REMARK  status: ('A' for Active; 'I' for Inactive)
REMARK    1  A    between atoms: C_1  and  C_4
REMARK    2  A    between atoms: C_1  and  C_12
REMARK    3  A    between atoms: C_7  and  O_10
REMARK    4  A    between atoms: C_15  and  O_18
REMARK                            x       y       z     vdW  Elec       q    Type
REMARK                         _______ _______ _______ _____ _____    ______ ____
ROOT
ATOM      1  C   UNL     1      50.860  -1.597   5.895  0.00  0.00    +0.000 C 
ATOM      2  C   UNL     1      50.146  -2.983   5.711  0.00  0.00    +0.000 C 
ATOM      3  C   UNL     1      52.277  -1.859   6.520  0.00  0.00    +0.000 C 
ENDROOT
BRANCH   1   4
ATOM      4  C   UNL     1      50.962  -0.961   4.501  0.00  0.00    +0.000 A 
ATOM      5  C   UNL     1      52.019  -0.081   4.207  0.00  0.00    +0.000 A 
ATOM      6  C   UNL     1      52.132   0.528   2.958  0.00  0.00    +0.000 A 
ATOM      7  C   UNL     1      51.176   0.264   1.985  0.00  0.00    +0.000 A 
ATOM      8  C   UNL     1      50.114  -0.594   2.244  0.00  0.00    +0.000 A 
ATOM      9  C   UNL     1      50.011  -1.194   3.497  0.00  0.00    +0.000 A 
BRANCH   7  10
ATOM     10  O   UNL     1      51.258   0.840   0.752  0.00  0.00    +0.000 OA
ATOM     11  H   UNL     1      52.139   1.242   0.655  0.00  0.00    +0.000 HD
ENDBRANCH   7  10
ENDBRANCH   1   4
BRANCH   1  12
ATOM     12  C   UNL     1      50.103  -0.690   6.876  0.00  0.00    +0.000 A 
ATOM     13  C   UNL     1      49.809   0.639   6.520  0.00  0.00    +0.000 A 
ATOM     14  C   UNL     1      49.139   1.493   7.392  0.00  0.00    +0.000 A 
ATOM     15  C   UNL     1      48.758   1.024   8.643  0.00  0.00    +0.000 A 
ATOM     16  C   UNL     1      49.038  -0.280   9.031  0.00  0.00    +0.000 A 
ATOM     17  C   UNL     1      49.711  -1.125   8.151  0.00  0.00    +0.000 A 
BRANCH  15  18
ATOM     18  O   UNL     1      48.096   1.833   9.520  0.00  0.00    +0.000 OA
ATOM     19  H   UNL     1      47.276   1.385   9.795  0.00  0.00    +0.000 HD
ENDBRANCH  15  18
ENDBRANCH   1  12
TORSDOF 4
ENDMDL
MODEL 3
REMARK VINA RESULT:      -5.6     10.246     13.441
REMARK  Name = Bisphenol_A.pdbqt.pdb
REMARK  4 active torsions:
REMARK  status: ('A' for Active; 'I' for Inactive)
REMARK    1  A    between atoms: C_1  and  C_4
REMARK    2  A    between atoms: C_1  and  C_12
REMARK    3  A    between atoms: C_7  and  O_10
REMARK    4  A    between atoms: C_15  and  O_18
REMARK                            x       y       z     vdW  Elec       q    Type
REMARK                         _______ _______ _______ _____ _____    ______ ____
ROOT
ATOM      1  C   UNL     1      51.255   0.702   6.856  0.00  0.00    +0.000 C 
ATOM      2  C   UNL     1      50.926   2.067   6.155  0.00  0.00    +0.000 C 
ATOM      3  C   UNL     1      52.806   0.635   7.088  0.00  0.00    +0.000 C 
ENDROOT
BRANCH   1   4
ATOM      4  C   UNL     1      50.480   0.686   8.183  0.00  0.00    +0.000 A 
ATOM      5  C   UNL     1      49.074   0.727   8.175  0.00  0.00    +0.000 A 
ATOM      6  C   UNL     1      48.341   0.731   9.360  0.00  0.00    +0.000 A 
ATOM      7  C   UNL     1      49.014   0.701  10.575  0.00  0.00    +0.000 A 
ATOM      8  C   UNL     1      50.402   0.668  10.620  0.00  0.00    +0.000 A 
ATOM      9  C   UNL     1      51.124   0.666   9.429  0.00  0.00    +0.000 A 
BRANCH   7  10
ATOM     10  O   UNL     1      48.327   0.700  11.753  0.00  0.00    +0.000 OA
ATOM     11  H   UNL     1      47.522   0.164  11.643  0.00  0.00    +0.000 HD
ENDBRANCH   7  10
ENDBRANCH   1   4
BRANCH   1  12
ATOM     12  C   UNL     1      50.886  -0.497   5.972  0.00  0.00    +0.000 A 
ATOM     13  C   UNL     1      50.584  -0.302   4.612  0.00  0.00    +0.000 A 
ATOM     14  C   UNL     1      50.229  -1.365   3.786  0.00  0.00    +0.000 A 
ATOM     15  C   UNL     1      50.165  -2.647   4.318  0.00  0.00    +0.000 A 
ATOM     16  C   UNL     1      50.450  -2.876   5.658  0.00  0.00    +0.000 A 
ATOM     17  C   UNL     1      50.802  -1.804   6.476  0.00  0.00    +0.000 A 
BRANCH  15  18
ATOM     18  O   UNL     1      49.826  -3.711   3.536  0.00  0.00    +0.000 OA
ATOM     19  H   UNL     1      50.326  -4.490   3.839  0.00  0.00    +0.000 HD
ENDBRANCH  15  18
ENDBRANCH   1  12
TORSDOF 4
ENDMDL
MODEL 4
REMARK VINA RESULT:      -5.4     10.835     13.717
REMARK  Name = Bisphenol_A.pdbqt.pdb
REMARK  4 active torsions:
REMARK  status: ('A' for Active; 'I' for Inactive)
REMARK    1  A    between atoms: C_1  and  C_4
REMARK    2  A    between atoms: C_1  and  C_12
REMARK    3  A    between atoms: C_7  and  O_10
REMARK    4  A    between atoms: C_15  and  O_18
REMARK                            x       y       z     vdW  Elec       q    Type
REMARK                         _______ _______ _______ _____ _____    ______ ____
ROOT
ATOM      1  C   UNL     1      51.043  -0.991   7.131  0.00  0.00    +0.000 C 
ATOM      2  C   UNL     1      52.491  -1.354   7.615  0.00  0.00    +0.000 C 
ATOM      3  C   UNL     1      50.220  -2.323   7.013  0.00  0.00    +0.000 C 
ENDROOT
BRANCH   1   4
ATOM      4  C   UNL     1      50.446  -0.045   8.183  0.00  0.00    +0.000 A 
ATOM      5  C   UNL     1      51.212   0.336   9.300  0.00  0.00    +0.000 A 
ATOM      6  C   UNL     1      50.695   1.178  10.283  0.00  0.00    +0.000 A 
ATOM      7  C   UNL     1      49.393   1.647  10.160  0.00  0.00    +0.000 A 
ATOM      8  C   UNL     1      48.605   1.285   9.074  0.00  0.00    +0.000 A 
ATOM      9  C   UNL     1      49.132   0.440   8.099  0.00  0.00    +0.000 A 
BRANCH   7  10
ATOM     10  O   UNL     1      48.858   2.476  11.101  0.00  0.00    +0.000 OA
ATOM     11  H   UNL     1      48.877   2.022  11.961  0.00  0.00    +0.000 HD
ENDBRANCH   7  10
ENDBRANCH   1   4
BRANCH   1  12
ATOM     12  C   UNL     1      51.051  -0.350   5.735  0.00  0.00    +0.000 A 
ATOM     13  C   UNL     1      51.685   0.890   5.535  0.00  0.00    +0.000 A 
ATOM     14  C   UNL     1      51.697   1.507   4.287  0.00  0.00    +0.000 A 
ATOM     15  C   UNL     1      51.064   0.887   3.217  0.00  0.00    +0.000 A 
ATOM     16  C   UNL     1      50.422  -0.335   3.379  0.00  0.00    +0.000 A 
ATOM     17  C   UNL     1      50.415  -0.941   4.634  0.00  0.00    +0.000 A 
BRANCH  15  18
ATOM     18  O   UNL     1      51.061   1.461   1.979  0.00  0.00    +0.000 OA
ATOM     19  H   UNL     1      50.556   0.889   1.374  0.00  0.00    +0.000 HD
ENDBRANCH  15  18
ENDBRANCH   1  12
TORSDOF 4
ENDMDL
MODEL 5
REMARK VINA RESULT:      -5.4     12.310     14.221
REMARK  Name = Bisphenol_A.pdbqt.pdb
REMARK  4 active torsions:
REMARK  status: ('A' for Active; 'I' for Inactive)
REMARK    1  A    between atoms: C_1  and  C_4
REMARK    2  A    between atoms: C_1  and  C_12
REMARK    3  A    between atoms: C_7  and  O_10
REMARK    4  A    between atoms: C_15  and  O_18
REMARK                            x       y       z     vdW  Elec       q    Type
REMARK                         _______ _______ _______ _____ _____    ______ ____
ROOT
ATOM      1  C   UNL     1      52.232   4.822   8.945  0.00  0.00    +0.000 C 
ATOM      2  C   UNL     1      53.306   4.399   7.881  0.00  0.00    +0.000 C 
ATOM      3  C   UNL     1      52.921   4.835  10.355  0.00  0.00    +0.000 C 
ENDROOT
BRANCH   1   4
ATOM      4  C   UNL     1      51.732   6.218   8.542  0.00  0.00    +0.000 A 
ATOM      5  C   UNL     1      51.604   7.225   9.516  0.00  0.00    +0.000 A 
ATOM      6  C   UNL     1      51.137   8.496   9.189  0.00  0.00    +0.000 A 
ATOM      7  C   UNL     1      50.785   8.773   7.874  0.00  0.00    +0.000 A 
ATOM      8  C   UNL     1      50.891   7.800   6.888  0.00  0.00    +0.000 A 
ATOM      9  C   UNL     1      51.357   6.531   7.228  0.00  0.00    +0.000 A 
BRANCH   7  10
ATOM     10  O   UNL     1      50.328  10.008   7.519  0.00  0.00    +0.000 OA
ATOM     11  H   UNL     1      50.662  10.658   8.161  0.00  0.00    +0.000 HD
ENDBRANCH   7  10
ENDBRANCH   1   4
BRANCH   1  12
ATOM     12  C   UNL     1      51.079   3.811   9.024  0.00  0.00    +0.000 A 
ATOM     13  C   UNL     1      50.996   2.764   8.087  0.00  0.00    +0.000 A 
ATOM     14  C   UNL     1      49.954   1.841   8.120  0.00  0.00    +0.000 A 
ATOM     15  C   UNL     1      48.973   1.958   9.096  0.00  0.00    +0.000 A 
ATOM     16  C   UNL     1      49.019   2.982  10.033  0.00  0.00    +0.000 A 
ATOM     17  C   UNL     1      50.064   3.902   9.989  0.00  0.00    +0.000 A 
BRANCH  15  18
ATOM     18  O   UNL     1      47.942   1.067   9.160  0.00  0.00    +0.000 OA
ATOM     19  H   UNL     1      47.326   1.253   8.431  0.00  0.00    +0.000 HD
ENDBRANCH  15  18
ENDBRANCH   1  12
TORSDOF 4
ENDMDL
MODEL 6
REMARK VINA RESULT:      -5.3     12.942     14.161
REMARK  Name = Bisphenol_A.pdbqt.pdb
REMARK  4 active torsions:
REMARK  status: ('A' for Active; 'I' for Inactive)
REMARK    1  A    between atoms: C_1  and  C_4
REMARK    2  A    between atoms: C_1  and  C_12
REMARK    3  A    between atoms: C_7  and  O_10
REMARK    4  A    between atoms: C_15  and  O_18
REMARK                            x       y       z     vdW  Elec       q    Type
REMARK                         _______ _______ _______ _____ _____    ______ ____
ROOT
ATOM      1  C   UNL     1      51.164   5.180  10.865  0.00  0.00    +0.000 C 
ATOM      2  C   UNL     1      49.649   4.772  10.849  0.00  0.00    +0.000 C 
ATOM      3  C   UNL     1      52.022   3.873  10.719  0.00  0.00    +0.000 C 
ENDROOT
BRANCH   1   4
ATOM      4  C   UNL     1      51.380   6.138   9.683  0.00  0.00    +0.000 A 
ATOM      5  C   UNL     1      52.667   6.636   9.410  0.00  0.00    +0.000 A 
ATOM      6  C   UNL     1      52.895   7.520   8.357  0.00  0.00    +0.000 A 
ATOM      7  C   UNL     1      51.827   7.922   7.565  0.00  0.00    +0.000 A 
ATOM      8  C   UNL     1      50.542   7.456   7.811  0.00  0.00    +0.000 A 
ATOM      9  C   UNL     1      50.326   6.574   8.868  0.00  0.00    +0.000 A 
BRANCH   7  10
ATOM     10  O   UNL     1      52.016   8.783   6.524  0.00  0.00    +0.000 OA
ATOM     11  H   UNL     1      52.485   9.569   6.853  0.00  0.00    +0.000 HD
ENDBRANCH   7  10
ENDBRANCH   1   4
BRANCH   1  12
ATOM     12  C   UNL     1      51.567   5.828  12.198  0.00  0.00    +0.000 A 
ATOM     13  C   UNL     1      52.686   5.349  12.903  0.00  0.00    +0.000 A 
ATOM     14  C   UNL     1      53.068   5.903  14.123  0.00  0.00    +0.000 A 
ATOM     15  C   UNL     1      52.325   6.948  14.657  0.00  0.00    +0.000 A 
ATOM     16  C   UNL     1      51.210   7.443  13.991  0.00  0.00    +0.000 A 
ATOM     17  C   UNL     1      50.836   6.879  12.773  0.00  0.00    +0.000 A 
BRANCH  15  18
ATOM     18  O   UNL     1      52.674   7.517  15.846  0.00  0.00    +0.000 OA
ATOM     19  H   UNL     1      53.439   8.101  15.697  0.00  0.00    +0.000 HD
ENDBRANCH  15  18
ENDBRANCH   1  12
TORSDOF 4
ENDMDL
MODEL 7
REMARK VINA RESULT:      -5.0     12.001     13.363
REMARK  Name = Bisphenol_A.pdbqt.pdb
REMARK  4 active torsions:
REMARK  status: ('A' for Active; 'I' for Inactive)
REMARK    1  A    between atoms: C_1  and  C_4
REMARK    2  A    between atoms: C_1  and  C_12
REMARK    3  A    between atoms: C_7  and  O_10
REMARK    4  A    between atoms: C_15  and  O_18
REMARK                            x       y       z     vdW  Elec       q    Type
REMARK                         _______ _______ _______ _____ _____    ______ ____
ROOT
ATOM      1  C   UNL     1      52.162   5.318  10.942  0.00  0.00    +0.000 C 
ATOM      2  C   UNL     1      52.105   5.774  12.443  0.00  0.00    +0.000 C 
ATOM      3  C   UNL     1      53.643   4.918  10.611  0.00  0.00    +0.000 C 
ENDROOT
BRANCH   1   4
ATOM      4  C   UNL     1      51.206   4.124  10.804  0.00  0.00    +0.000 A 
ATOM      5  C   UNL     1      49.833   4.345  10.588  0.00  0.00    +0.000 A 
ATOM      6  C   UNL     1      48.935   3.285  10.476  0.00  0.00    +0.000 A 
ATOM      7  C   UNL     1      49.405   1.982  10.584  0.00  0.00    +0.000 A 
ATOM      8  C   UNL     1      50.753   1.727  10.805  0.00  0.00    +0.000 A 
ATOM      9  C   UNL     1      51.641   2.796  10.918  0.00  0.00    +0.000 A 
BRANCH   7  10
ATOM     10  O   UNL     1      48.555   0.922  10.475  0.00  0.00    +0.000 OA
ATOM     11  H   UNL     1      47.920   0.957  11.211  0.00  0.00    +0.000 HD
ENDBRANCH   7  10
ENDBRANCH   1   4
BRANCH   1  12
ATOM     12  C   UNL     1      51.784   6.458   9.985  0.00  0.00    +0.000 A 
ATOM     13  C   UNL     1      51.883   6.269   8.594  0.00  0.00    +0.000 A 
ATOM     14  C   UNL     1      51.565   7.287   7.699  0.00  0.00    +0.000 A 
ATOM     15  C   UNL     1      51.146   8.518   8.190  0.00  0.00    +0.000 A 
ATOM     16  C   UNL     1      51.044   8.742   9.557  0.00  0.00    +0.000 A 
ATOM     17  C   UNL     1      51.367   7.716  10.443  0.00  0.00    +0.000 A 
BRANCH  15  18
ATOM     18  O   UNL     1      50.822   9.534   7.340  0.00  0.00    +0.000 OA
ATOM     19  H   UNL     1      49.900   9.414   7.051  0.00  0.00    +0.000 HD
ENDBRANCH  15  18
ENDBRANCH   1  12
TORSDOF 4
ENDMDL
MODEL 8
REMARK VINA RESULT:      -5.0     23.700     25.448
REMARK  Name = Bisphenol_A.pdbqt.pdb
REMARK  4 active torsions:
REMARK  status: ('A' for Active; 'I' for Inactive)
REMARK    1  A    between atoms: C_1  and  C_4
REMARK    2  A    between atoms: C_1  and  C_12
REMARK    3  A    between atoms: C_7  and  O_10
REMARK    4  A    between atoms: C_15  and  O_18
REMARK                            x       y       z     vdW  Elec       q    Type
REMARK                         _______ _______ _______ _____ _____    ______ ____
ROOT
ATOM      1  C   UNL     1      45.191   0.067 -11.288  0.00  0.00    +0.000 C 
ATOM      2  C   UNL     1      45.197   1.233 -12.339  0.00  0.00    +0.000 C 
ATOM      3  C   UNL     1      44.838  -1.265 -12.040  0.00  0.00    +0.000 C 
ENDROOT
BRANCH   1   4
ATOM      4  C   UNL     1      46.598   0.017 -10.672  0.00  0.00    +0.000 A 
ATOM      5  C   UNL     1      46.750  -0.043  -9.275  0.00  0.00    +0.000 A 
ATOM      6  C   UNL     1      48.011  -0.071  -8.682  0.00  0.00    +0.000 A 
ATOM      7  C   UNL     1      49.142  -0.034  -9.488  0.00  0.00    +0.000 A 
ATOM      8  C   UNL     1      49.028   0.033 -10.871  0.00  0.00    +0.000 A 
ATOM      9  C   UNL     1      47.762   0.063 -11.452  0.00  0.00    +0.000 A 
BRANCH   7  10
ATOM     10  O   UNL     1      50.390  -0.065  -8.941  0.00  0.00    +0.000 OA
ATOM     11  H   UNL     1      51.019   0.310  -9.582  0.00  0.00    +0.000 HD
ENDBRANCH   7  10
ENDBRANCH   1   4
BRANCH   1  12
ATOM     12  C   UNL     1      44.112   0.271 -10.215  0.00  0.00    +0.000 A 
ATOM     13  C   UNL     1      43.349  -0.823  -9.768  0.00  0.00    +0.000 A 
ATOM     14  C   UNL     1      42.351  -0.670  -8.809  0.00  0.00    +0.000 A 
ATOM     15  C   UNL     1      42.100   0.592  -8.285  0.00  0.00    +0.000 A 
ATOM     16  C   UNL     1      42.829   1.696  -8.708  0.00  0.00    +0.000 A 
ATOM     17  C   UNL     1      43.823   1.531  -9.670  0.00  0.00    +0.000 A 
BRANCH  15  18
ATOM     18  O   UNL     1      41.134   0.776  -7.341  0.00  0.00    +0.000 OA
ATOM     19  H   UNL     1      40.491   1.425  -7.678  0.00  0.00    +0.000 HD
ENDBRANCH  15  18
ENDBRANCH   1  12
TORSDOF 4
ENDMDL
MODEL 9
REMARK VINA RESULT:      -4.7     12.645     14.146
REMARK  Name = Bisphenol_A.pdbqt.pdb
REMARK  4 active torsions:
REMARK  status: ('A' for Active; 'I' for Inactive)
REMARK    1  A    between atoms: C_1  and  C_4
REMARK    2  A    between atoms: C_1  and  C_12
REMARK    3  A    between atoms: C_7  and  O_10
REMARK    4  A    between atoms: C_15  and  O_18
REMARK                            x       y       z     vdW  Elec       q    Type
REMARK                         _______ _______ _______ _____ _____    ______ ____
ROOT
ATOM      1  C   UNL     1      52.337   7.329  14.195  0.00  0.00    +0.000 C 
ATOM      2  C   UNL     1      51.244   7.809  15.215  0.00  0.00    +0.000 C 
ATOM      3  C   UNL     1      53.184   8.578  13.765  0.00  0.00    +0.000 C 
ENDROOT
BRANCH   1   4
ATOM      4  C   UNL     1      53.194   6.282  14.922  0.00  0.00    +0.000 A 
ATOM      5  C   UNL     1      53.307   6.318  16.324  0.00  0.00    +0.000 A 
ATOM      6  C   UNL     1      54.091   5.395  17.014  0.00  0.00    +0.000 A 
ATOM      7  C   UNL     1      54.781   4.422  16.301  0.00  0.00    +0.000 A 
ATOM      8  C   UNL     1      54.699   4.363  14.915  0.00  0.00    +0.000 A 
ATOM      9  C   UNL     1      53.914   5.293  14.236  0.00  0.00    +0.000 A 
BRANCH   7  10
ATOM     10  O   UNL     1      55.554   3.502  16.944  0.00  0.00    +0.000 OA
ATOM     11  H   UNL     1      56.285   3.966  17.388  0.00  0.00    +0.000 HD
ENDBRANCH   7  10
ENDBRANCH   1   4
BRANCH   1  12
ATOM     12  C   UNL     1      51.710   6.755  12.916  0.00  0.00    +0.000 A 
ATOM     13  C   UNL     1      52.106   7.246  11.658  0.00  0.00    +0.000 A 
ATOM     14  C   UNL     1      51.546   6.761  10.479  0.00  0.00    +0.000 A 
ATOM     15  C   UNL     1      50.571   5.773  10.547  0.00  0.00    +0.000 A 
ATOM     16  C   UNL     1      50.151   5.270  11.771  0.00  0.00    +0.000 A 
ATOM     17  C   UNL     1      50.717   5.765  12.944  0.00  0.00    +0.000 A 
BRANCH  15  18
ATOM     18  O   UNL     1      50.006   5.272   9.411  0.00  0.00    +0.000 OA
ATOM     19  H   UNL     1      50.588   4.576   9.057  0.00  0.00    +0.000 HD
ENDBRANCH  15  18
ENDBRANCH   1  12
TORSDOF 4
ENDMDL
