MODEL 1
REMARK VINA RESULT:      -5.4      0.000      0.000
REMARK  Name = BX795.pdbqt.pdb
REMARK  7 active torsions:
REMARK  status: ('A' for Active; 'I' for Inactive)
REMARK    1  A    between atoms: C_4  and  N_25
REMARK    2  A    between atoms: N_8  and  C_10
REMARK    3  A    between atoms: C_12  and  N_16
REMARK    4  A    between atoms: N_25  and  C_27
REMARK    5  A    between atoms: C_27  and  C_28
REMARK    6  A    between atoms: C_29  and  N_30
REMARK    7  A    between atoms: C_31  and  C_34
REMARK                            x       y       z     vdW  Elec       q    Type
REMARK                         _______ _______ _______ _____ _____    ______ ____
ROOT
ATOM      1  I   UNL     1      31.256   1.453  -9.266  0.00  0.00    +0.000 I 
ATOM      2  N   UNL     1      31.917  -0.459  -5.443  0.00  0.00    +0.000 NA
ATOM      3  N   UNL     1      32.468   1.813  -5.177  0.00  0.00    +0.000 NA
ATOM      4  C   UNL     1      31.628  -0.270  -6.748  0.00  0.00    +0.000 A 
ATOM      5  C   UNL     1      32.330   0.576  -4.697  0.00  0.00    +0.000 A 
ATOM      6  C   UNL     1      31.699   0.990  -7.306  0.00  0.00    +0.000 A 
ATOM      7  C   UNL     1      32.132   1.989  -6.469  0.00  0.00    +0.000 A 
ATOM      8  N   UNL     1      32.682   0.384  -3.365  0.00  0.00    +0.000 N 
ATOM      9  H   UNL     1      33.042   1.232  -2.953  0.00  0.00    +0.000 HD
ENDROOT
BRANCH   8  10
ATOM     10  C   UNL     1      32.436  -0.699  -2.513  0.00  0.00    +0.000 A 
ATOM     11  C   UNL     1      31.142  -1.104  -2.171  0.00  0.00    +0.000 A 
ATOM     12  C   UNL     1      30.904  -2.243  -1.402  0.00  0.00    +0.000 A 
ATOM     13  C   UNL     1      31.981  -3.016  -0.983  0.00  0.00    +0.000 A 
ATOM     14  C   UNL     1      33.279  -2.641  -1.319  0.00  0.00    +0.000 A 
ATOM     15  C   UNL     1      33.501  -1.493  -2.080  0.00  0.00    +0.000 A 
BRANCH  12  16
ATOM     16  N   UNL     1      29.571  -2.522  -1.052  0.00  0.00    +0.000 N 
ATOM     17  C   UNL     1      28.847  -1.908  -0.044  0.00  0.00    +0.000 C 
ATOM     18  O   UNL     1      29.329  -1.126   0.774  0.00  0.00    +0.000 OA
ATOM     19  N   UNL     1      27.503  -2.280  -0.015  0.00  0.00    +0.000 N 
ATOM     20  C   UNL     1      26.767  -3.131  -0.784  0.00  0.00    +0.000 A 
ATOM     21  C   UNL     1      26.527  -1.874   0.843  0.00  0.00    +0.000 A 
ATOM     22  C   UNL     1      25.281  -3.355  -0.489  0.00  0.00    +0.000 A 
ATOM     23  C   UNL     1      25.101  -2.423   0.718  0.00  0.00    +0.000 A 
ATOM     24  H   UNL     1      29.128  -3.293  -1.537  0.00  0.00    +0.000 HD
ENDBRANCH  12  16
ENDBRANCH   8  10
BRANCH   4  25
ATOM     25  N   UNL     1      31.183  -1.379  -7.514  0.00  0.00    +0.000 N 
ATOM     26  H   UNL     1      31.831  -1.549  -8.280  0.00  0.00    +0.000 HD
BRANCH  25  27
ATOM     27  C   UNL     1      30.818  -2.573  -6.756  0.00  0.00    +0.000 C 
BRANCH  27  28
ATOM     28  C   UNL     1      30.539  -3.831  -5.927  0.00  0.00    +0.000 C 
ATOM     29  C   UNL     1      30.299  -5.044  -5.024  0.00  0.00    +0.000 C 
BRANCH  29  30
ATOM     30  N   UNL     1      30.082  -6.081  -4.184  0.00  0.00    +0.000 N 
ATOM     31  C   UNL     1      30.849  -6.504  -3.108  0.00  0.00    +0.000 C 
ATOM     32  O   UNL     1      31.871  -5.901  -2.780  0.00  0.00    +0.000 OA
ATOM     33  H   UNL     1      29.277  -6.642  -4.434  0.00  0.00    +0.000 HD
BRANCH  31  34
ATOM     34  C   UNL     1      30.361  -7.699  -2.440  0.00  0.00    +0.000 A 
ATOM     35  S   UNL     1      31.305  -9.139  -2.457  0.00  0.00    +0.000 S 
ATOM     36  C   UNL     1      30.133  -9.981  -1.567  0.00  0.00    +0.000 A 
ATOM     37  C   UNL     1      29.046  -9.216  -1.249  0.00  0.00    +0.000 A 
ATOM     38  C   UNL     1      29.182  -7.903  -1.753  0.00  0.00    +0.000 A 
ENDBRANCH  31  34
ENDBRANCH  29  30
ENDBRANCH  27  28
ENDBRANCH  25  27
ENDBRANCH   4  25
TORSDOF 7
ENDMDL
MODEL 2
REMARK VINA RESULT:      -4.6      8.730     12.683
REMARK  Name = BX795.pdbqt.pdb
REMARK  7 active torsions:
REMARK  status: ('A' for Active; 'I' for Inactive)
REMARK    1  A    between atoms: C_4  and  N_25
REMARK    2  A    between atoms: N_8  and  C_10
REMARK    3  A    between atoms: C_12  and  N_16
REMARK    4  A    between atoms: N_25  and  C_27
REMARK    5  A    between atoms: C_27  and  C_28
REMARK    6  A    between atoms: C_29  and  N_30
REMARK    7  A    between atoms: C_31  and  C_34
REMARK                            x       y       z     vdW  Elec       q    Type
REMARK                         _______ _______ _______ _____ _____    ______ ____
ROOT
ATOM      1  I   UNL     1      31.785  -1.997  -8.881  0.00  0.00    +0.000 I 
ATOM      2  N   UNL     1      34.591   1.252  -8.364  0.00  0.00    +0.000 NA
ATOM      3  N   UNL     1      33.668   0.801  -6.247  0.00  0.00    +0.000 NA
ATOM      4  C   UNL     1      33.827   0.299  -8.938  0.00  0.00    +0.000 A 
ATOM      5  C   UNL     1      34.493   1.481  -7.047  0.00  0.00    +0.000 A 
ATOM      6  C   UNL     1      32.986  -0.481  -8.169  0.00  0.00    +0.000 A 
ATOM      7  C   UNL     1      32.948  -0.175  -6.831  0.00  0.00    +0.000 A 
ATOM      8  N   UNL     1      35.235   2.497  -6.453  0.00  0.00    +0.000 N 
ATOM      9  H   UNL     1      35.004   2.600  -5.476  0.00  0.00    +0.000 HD
ENDROOT
BRANCH   8  10
ATOM     10  C   UNL     1      36.333   3.215  -6.940  0.00  0.00    +0.000 A 
ATOM     11  C   UNL     1      37.413   2.595  -7.575  0.00  0.00    +0.000 A 
ATOM     12  C   UNL     1      38.455   3.326  -8.144  0.00  0.00    +0.000 A 
ATOM     13  C   UNL     1      38.408   4.716  -8.106  0.00  0.00    +0.000 A 
ATOM     14  C   UNL     1      37.338   5.359  -7.490  0.00  0.00    +0.000 A 
ATOM     15  C   UNL     1      36.309   4.612  -6.915  0.00  0.00    +0.000 A 
BRANCH  12  16
ATOM     16  N   UNL     1      39.530   2.604  -8.693  0.00  0.00    +0.000 N 
ATOM     17  C   UNL     1      40.239   1.596  -8.065  0.00  0.00    +0.000 C 
ATOM     18  O   UNL     1      40.105   1.292  -6.880  0.00  0.00    +0.000 OA
ATOM     19  N   UNL     1      41.158   0.957  -8.898  0.00  0.00    +0.000 N 
ATOM     20  C   UNL     1      41.493   1.136 -10.206  0.00  0.00    +0.000 A 
ATOM     21  C   UNL     1      42.013  -0.061  -8.599  0.00  0.00    +0.000 A 
ATOM     22  C   UNL     1      42.582   0.274 -10.854  0.00  0.00    +0.000 A 
ATOM     23  C   UNL     1      42.968  -0.614  -9.662  0.00  0.00    +0.000 A 
ATOM     24  H   UNL     1      39.857   2.904  -9.604  0.00  0.00    +0.000 HD
ENDBRANCH  12  16
ENDBRANCH   8  10
BRANCH   4  25
ATOM     25  N   UNL     1      33.958   0.069 -10.332  0.00  0.00    +0.000 N 
ATOM     26  H   UNL     1      33.519   0.829 -10.847  0.00  0.00    +0.000 HD
BRANCH  25  27
ATOM     27  C   UNL     1      35.297  -0.281 -10.798  0.00  0.00    +0.000 C 
BRANCH  27  28
ATOM     28  C   UNL     1      36.736  -0.553 -11.248  0.00  0.00    +0.000 C 
ATOM     29  C   UNL     1      38.171  -0.905 -11.651  0.00  0.00    +0.000 C 
BRANCH  29  30
ATOM     30  N   UNL     1      39.424  -1.271 -12.002  0.00  0.00    +0.000 N 
ATOM     31  C   UNL     1      39.828  -2.310 -12.829  0.00  0.00    +0.000 C 
ATOM     32  O   UNL     1      39.006  -3.036 -13.384  0.00  0.00    +0.000 OA
ATOM     33  H   UNL     1      40.147  -0.734 -11.537  0.00  0.00    +0.000 HD
BRANCH  31  34
ATOM     34  C   UNL     1      41.268  -2.467 -12.955  0.00  0.00    +0.000 A 
ATOM     35  S   UNL     1      42.123  -1.603 -14.174  0.00  0.00    +0.000 S 
ATOM     36  C   UNL     1      43.597  -2.293 -13.703  0.00  0.00    +0.000 A 
ATOM     37  C   UNL     1      43.477  -3.156 -12.651  0.00  0.00    +0.000 A 
ATOM     38  C   UNL     1      42.134  -3.253 -12.223  0.00  0.00    +0.000 A 
ENDBRANCH  31  34
ENDBRANCH  29  30
ENDBRANCH  27  28
ENDBRANCH  25  27
ENDBRANCH   4  25
TORSDOF 7
ENDMDL
MODEL 3
REMARK VINA RESULT:      -4.6      7.610     11.503
REMARK  Name = BX795.pdbqt.pdb
REMARK  7 active torsions:
REMARK  status: ('A' for Active; 'I' for Inactive)
REMARK    1  A    between atoms: C_4  and  N_25
REMARK    2  A    between atoms: N_8  and  C_10
REMARK    3  A    between atoms: C_12  and  N_16
REMARK    4  A    between atoms: N_25  and  C_27
REMARK    5  A    between atoms: C_27  and  C_28
REMARK    6  A    between atoms: C_29  and  N_30
REMARK    7  A    between atoms: C_31  and  C_34
REMARK                            x       y       z     vdW  Elec       q    Type
REMARK                         _______ _______ _______ _____ _____    ______ ____
ROOT
ATOM      1  I   UNL     1      30.632  -2.707  -5.797  0.00  0.00    +0.000 I 
ATOM      2  N   UNL     1      33.274   0.424  -7.180  0.00  0.00    +0.000 NA
ATOM      3  N   UNL     1      33.124   0.638  -4.842  0.00  0.00    +0.000 NA
ATOM      4  C   UNL     1      32.416  -0.618  -7.174  0.00  0.00    +0.000 A 
ATOM      5  C   UNL     1      33.602   1.024  -6.027  0.00  0.00    +0.000 A 
ATOM      6  C   UNL     1      31.917  -1.107  -5.983  0.00  0.00    +0.000 A 
ATOM      7  C   UNL     1      32.305  -0.430  -4.852  0.00  0.00    +0.000 A 
ATOM      8  N   UNL     1      34.443   2.132  -6.026  0.00  0.00    +0.000 N 
ATOM      9  H   UNL     1      34.540   2.520  -5.099  0.00  0.00    +0.000 HD
ENDROOT
BRANCH   8  10
ATOM     10  C   UNL     1      35.279   2.631  -7.031  0.00  0.00    +0.000 A 
ATOM     11  C   UNL     1      36.490   2.020  -7.371  0.00  0.00    +0.000 A 
ATOM     12  C   UNL     1      37.269   2.466  -8.438  0.00  0.00    +0.000 A 
ATOM     13  C   UNL     1      36.818   3.533  -9.207  0.00  0.00    +0.000 A 
ATOM     14  C   UNL     1      35.611   4.153  -8.897  0.00  0.00    +0.000 A 
ATOM     15  C   UNL     1      34.849   3.702  -7.819  0.00  0.00    +0.000 A 
BRANCH  12  16
ATOM     16  N   UNL     1      38.505   1.828  -8.650  0.00  0.00    +0.000 N 
ATOM     17  C   UNL     1      39.732   2.253  -8.174  0.00  0.00    +0.000 C 
ATOM     18  O   UNL     1      39.920   3.332  -7.612  0.00  0.00    +0.000 OA
ATOM     19  N   UNL     1      40.768   1.350  -8.414  0.00  0.00    +0.000 N 
ATOM     20  C   UNL     1      40.804   0.134  -9.028  0.00  0.00    +0.000 A 
ATOM     21  C   UNL     1      42.086   1.460  -8.089  0.00  0.00    +0.000 A 
ATOM     22  C   UNL     1      42.125  -0.630  -9.162  0.00  0.00    +0.000 A 
ATOM     23  C   UNL     1      43.077   0.353  -8.465  0.00  0.00    +0.000 A 
ATOM     24  H   UNL     1      38.499   1.026  -9.269  0.00  0.00    +0.000 HD
ENDBRANCH  12  16
ENDBRANCH   8  10
BRANCH   4  25
ATOM     25  N   UNL     1      32.094  -1.242  -8.406  0.00  0.00    +0.000 N 
ATOM     26  H   UNL     1      31.379  -0.701  -8.888  0.00  0.00    +0.000 HD
BRANCH  25  27
ATOM     27  C   UNL     1      33.227  -1.624  -9.244  0.00  0.00    +0.000 C 
BRANCH  27  28
ATOM     28  C   UNL     1      34.479  -2.019 -10.034  0.00  0.00    +0.000 C 
ATOM     29  C   UNL     1      35.734  -2.493 -10.772  0.00  0.00    +0.000 C 
BRANCH  29  30
ATOM     30  N   UNL     1      36.827  -2.964 -11.414  0.00  0.00    +0.000 N 
ATOM     31  C   UNL     1      38.164  -2.841 -11.062  0.00  0.00    +0.000 C 
ATOM     32  O   UNL     1      38.498  -2.264 -10.028  0.00  0.00    +0.000 OA
ATOM     33  H   UNL     1      36.615  -3.411 -12.298  0.00  0.00    +0.000 HD
BRANCH  31  34
ATOM     34  C   UNL     1      39.102  -3.420 -12.009  0.00  0.00    +0.000 A 
ATOM     35  S   UNL     1      38.637  -3.645 -13.651  0.00  0.00    +0.000 S 
ATOM     36  C   UNL     1      40.141  -4.322 -14.040  0.00  0.00    +0.000 A 
ATOM     37  C   UNL     1      40.995  -4.387 -12.975  0.00  0.00    +0.000 A 
ATOM     38  C   UNL     1      40.392  -3.866 -11.808  0.00  0.00    +0.000 A 
ENDBRANCH  31  34
ENDBRANCH  29  30
ENDBRANCH  27  28
ENDBRANCH  25  27
ENDBRANCH   4  25
TORSDOF 7
ENDMDL
MODEL 4
REMARK VINA RESULT:      -4.1      4.364      6.719
REMARK  Name = BX795.pdbqt.pdb
REMARK  7 active torsions:
REMARK  status: ('A' for Active; 'I' for Inactive)
REMARK    1  A    between atoms: C_4  and  N_25
REMARK    2  A    between atoms: N_8  and  C_10
REMARK    3  A    between atoms: C_12  and  N_16
REMARK    4  A    between atoms: N_25  and  C_27
REMARK    5  A    between atoms: C_27  and  C_28
REMARK    6  A    between atoms: C_29  and  N_30
REMARK    7  A    between atoms: C_31  and  C_34
REMARK                            x       y       z     vdW  Elec       q    Type
REMARK                         _______ _______ _______ _____ _____    ______ ____
ROOT
ATOM      1  I   UNL     1      31.192  -9.955  -7.158  0.00  0.00    +0.000 I 
ATOM      2  N   UNL     1      30.877  -6.518  -4.554  0.00  0.00    +0.000 NA
ATOM      3  N   UNL     1      32.527  -7.922  -3.637  0.00  0.00    +0.000 NA
ATOM      4  C   UNL     1      30.646  -7.389  -5.559  0.00  0.00    +0.000 A 
ATOM      5  C   UNL     1      31.800  -6.803  -3.624  0.00  0.00    +0.000 A 
ATOM      6  C   UNL     1      31.393  -8.545  -5.668  0.00  0.00    +0.000 A 
ATOM      7  C   UNL     1      32.313  -8.756  -4.671  0.00  0.00    +0.000 A 
ATOM      8  N   UNL     1      32.009  -5.940  -2.554  0.00  0.00    +0.000 N 
ATOM      9  H   UNL     1      32.677  -6.319  -1.899  0.00  0.00    +0.000 HD
ENDROOT
BRANCH   8  10
ATOM     10  C   UNL     1      31.601  -4.613  -2.371  0.00  0.00    +0.000 A 
ATOM     11  C   UNL     1      30.309  -4.277  -1.956  0.00  0.00    +0.000 A 
ATOM     12  C   UNL     1      29.940  -2.961  -1.682  0.00  0.00    +0.000 A 
ATOM     13  C   UNL     1      30.891  -1.952  -1.796  0.00  0.00    +0.000 A 
ATOM     14  C   UNL     1      32.189  -2.261  -2.196  0.00  0.00    +0.000 A 
ATOM     15  C   UNL     1      32.538  -3.582  -2.478  0.00  0.00    +0.000 A 
BRANCH  12  16
ATOM     16  N   UNL     1      28.597  -2.720  -1.343  0.00  0.00    +0.000 N 
ATOM     17  C   UNL     1      28.088  -2.600  -0.062  0.00  0.00    +0.000 C 
ATOM     18  O   UNL     1      28.732  -2.829   0.961  0.00  0.00    +0.000 OA
ATOM     19  N   UNL     1      26.747  -2.219  -0.027  0.00  0.00    +0.000 N 
ATOM     20  C   UNL     1      25.843  -1.944  -1.009  0.00  0.00    +0.000 A 
ATOM     21  C   UNL     1      25.947  -2.020   1.058  0.00  0.00    +0.000 A 
ATOM     22  C   UNL     1      24.402  -1.562  -0.652  0.00  0.00    +0.000 A 
ATOM     23  C   UNL     1      24.478  -1.619   0.881  0.00  0.00    +0.000 A 
ATOM     24  H   UNL     1      27.934  -2.706  -2.109  0.00  0.00    +0.000 HD
ENDBRANCH  12  16
ENDBRANCH   8  10
BRANCH   4  25
ATOM     25  N   UNL     1      29.672  -7.058  -6.536  0.00  0.00    +0.000 N 
ATOM     26  H   UNL     1      29.071  -7.861  -6.706  0.00  0.00    +0.000 HD
BRANCH  25  27
ATOM     27  C   UNL     1      28.957  -5.803  -6.324  0.00  0.00    +0.000 C 
BRANCH  27  28
ATOM     28  C   UNL     1      28.145  -4.510  -6.189  0.00  0.00    +0.000 C 
ATOM     29  C   UNL     1      27.263  -3.270  -6.018  0.00  0.00    +0.000 C 
BRANCH  29  30
ATOM     30  N   UNL     1      26.458  -2.201  -5.825  0.00  0.00    +0.000 N 
ATOM     31  C   UNL     1      26.534  -1.219  -4.848  0.00  0.00    +0.000 C 
ATOM     32  O   UNL     1      27.438  -1.223  -4.013  0.00  0.00    +0.000 OA
ATOM     33  H   UNL     1      25.667  -2.172  -6.458  0.00  0.00    +0.000 HD
BRANCH  31  34
ATOM     34  C   UNL     1      25.468  -0.232  -4.888  0.00  0.00    +0.000 A 
ATOM     35  S   UNL     1      23.896  -0.640  -4.318  0.00  0.00    +0.000 S 
ATOM     36  C   UNL     1      23.300   0.901  -4.696  0.00  0.00    +0.000 A 
ATOM     37  C   UNL     1      24.246   1.726  -5.238  0.00  0.00    +0.000 A 
ATOM     38  C   UNL     1      25.492   1.070  -5.346  0.00  0.00    +0.000 A 
ENDBRANCH  31  34
ENDBRANCH  29  30
ENDBRANCH  27  28
ENDBRANCH  25  27
ENDBRANCH   4  25
TORSDOF 7
ENDMDL
MODEL 5
REMARK VINA RESULT:      -3.8     29.880     32.918
REMARK  Name = BX795.pdbqt.pdb
REMARK  7 active torsions:
REMARK  status: ('A' for Active; 'I' for Inactive)
REMARK    1  A    between atoms: C_4  and  N_25
REMARK    2  A    between atoms: N_8  and  C_10
REMARK    3  A    between atoms: C_12  and  N_16
REMARK    4  A    between atoms: N_25  and  C_27
REMARK    5  A    between atoms: C_27  and  C_28
REMARK    6  A    between atoms: C_29  and  N_30
REMARK    7  A    between atoms: C_31  and  C_34
REMARK                            x       y       z     vdW  Elec       q    Type
REMARK                         _______ _______ _______ _____ _____    ______ ____
ROOT
ATOM      1  I   UNL     1      62.955  13.178  13.771  0.00  0.00    +0.000 I 
ATOM      2  N   UNL     1      60.732   9.887  12.060  0.00  0.00    +0.000 NA
ATOM      3  N   UNL     1      62.709  10.105  10.803  0.00  0.00    +0.000 NA
ATOM      4  C   UNL     1      61.069  10.939  12.836  0.00  0.00    +0.000 A 
ATOM      5  C   UNL     1      61.549   9.500  11.070  0.00  0.00    +0.000 A 
ATOM      6  C   UNL     1      62.276  11.585  12.653  0.00  0.00    +0.000 A 
ATOM      7  C   UNL     1      63.047  11.123  11.615  0.00  0.00    +0.000 A 
ATOM      8  N   UNL     1      61.188   8.451  10.230  0.00  0.00    +0.000 N 
ATOM      9  H   UNL     1      61.862   8.322   9.490  0.00  0.00    +0.000 HD
ENDROOT
BRANCH   8  10
ATOM     10  C   UNL     1      60.189   7.482  10.375  0.00  0.00    +0.000 A 
ATOM     11  C   UNL     1      58.902   7.649   9.854  0.00  0.00    +0.000 A 
ATOM     12  C   UNL     1      57.943   6.638   9.917  0.00  0.00    +0.000 A 
ATOM     13  C   UNL     1      58.281   5.417  10.490  0.00  0.00    +0.000 A 
ATOM     14  C   UNL     1      59.559   5.221  11.007  0.00  0.00    +0.000 A 
ATOM     15  C   UNL     1      60.503   6.246  10.946  0.00  0.00    +0.000 A 
BRANCH  12  16
ATOM     16  N   UNL     1      56.657   6.933   9.430  0.00  0.00    +0.000 N 
ATOM     17  C   UNL     1      56.242   6.835   8.113  0.00  0.00    +0.000 C 
ATOM     18  O   UNL     1      56.994   6.605   7.167  0.00  0.00    +0.000 OA
ATOM     19  N   UNL     1      54.875   7.050   7.941  0.00  0.00    +0.000 N 
ATOM     20  C   UNL     1      53.872   7.341   8.816  0.00  0.00    +0.000 A 
ATOM     21  C   UNL     1      54.150   7.035   6.788  0.00  0.00    +0.000 A 
ATOM     22  C   UNL     1      52.439   7.548   8.315  0.00  0.00    +0.000 A 
ATOM     23  C   UNL     1      52.644   7.321   6.809  0.00  0.00    +0.000 A 
ATOM     24  H   UNL     1      56.000   7.322  10.095  0.00  0.00    +0.000 HD
ENDBRANCH  12  16
ENDBRANCH   8  10
BRANCH   4  25
ATOM     25  N   UNL     1      60.193  11.321  13.884  0.00  0.00    +0.000 N 
ATOM     26  H   UNL     1      60.138  12.336  13.932  0.00  0.00    +0.000 HD
BRANCH  25  27
ATOM     27  C   UNL     1      58.898  10.646  13.911  0.00  0.00    +0.000 C 
BRANCH  27  28
ATOM     28  C   UNL     1      57.551   9.920  13.833  0.00  0.00    +0.000 C 
ATOM     29  C   UNL     1      56.167   9.265  13.804  0.00  0.00    +0.000 C 
BRANCH  29  30
ATOM     30  N   UNL     1      54.922   8.738  13.781  0.00  0.00    +0.000 N 
ATOM     31  C   UNL     1      54.378   7.827  12.887  0.00  0.00    +0.000 C 
ATOM     32  O   UNL     1      55.052   7.357  11.971  0.00  0.00    +0.000 OA
ATOM     33  H   UNL     1      54.307   9.125  14.488  0.00  0.00    +0.000 HD
BRANCH  31  34
ATOM     34  C   UNL     1      52.979   7.507  13.114  0.00  0.00    +0.000 A 
ATOM     35  S   UNL     1      52.184   8.084  14.527  0.00  0.00    +0.000 S 
ATOM     36  C   UNL     1      50.733   7.327  14.085  0.00  0.00    +0.000 A 
ATOM     37  C   UNL     1      50.818   6.651  12.900  0.00  0.00    +0.000 A 
ATOM     38  C   UNL     1      52.113   6.757  12.345  0.00  0.00    +0.000 A 
ENDBRANCH  31  34
ENDBRANCH  29  30
ENDBRANCH  27  28
ENDBRANCH  25  27
ENDBRANCH   4  25
TORSDOF 7
ENDMDL
MODEL 6
REMARK VINA RESULT:      -3.8     11.611     15.737
REMARK  Name = BX795.pdbqt.pdb
REMARK  7 active torsions:
REMARK  status: ('A' for Active; 'I' for Inactive)
REMARK    1  A    between atoms: C_4  and  N_25
REMARK    2  A    between atoms: N_8  and  C_10
REMARK    3  A    between atoms: C_12  and  N_16
REMARK    4  A    between atoms: N_25  and  C_27
REMARK    5  A    between atoms: C_27  and  C_28
REMARK    6  A    between atoms: C_29  and  N_30
REMARK    7  A    between atoms: C_31  and  C_34
REMARK                            x       y       z     vdW  Elec       q    Type
REMARK                         _______ _______ _______ _____ _____    ______ ____
ROOT
ATOM      1  I   UNL     1      23.504  -7.520  16.105  0.00  0.00    +0.000 I 
ATOM      2  N   UNL     1      26.007  -4.825  13.829  0.00  0.00    +0.000 NA
ATOM      3  N   UNL     1      27.137  -5.272  15.845  0.00  0.00    +0.000 NA
ATOM      4  C   UNL     1      24.963  -5.594  14.205  0.00  0.00    +0.000 A 
ATOM      5  C   UNL     1      27.057  -4.680  14.651  0.00  0.00    +0.000 A 
ATOM      6  C   UNL     1      24.993  -6.279  15.404  0.00  0.00    +0.000 A 
ATOM      7  C   UNL     1      26.106  -6.070  16.181  0.00  0.00    +0.000 A 
ATOM      8  N   UNL     1      28.114  -3.847  14.299  0.00  0.00    +0.000 N 
ATOM      9  H   UNL     1      28.793  -3.779  15.042  0.00  0.00    +0.000 HD
ENDROOT
BRANCH   8  10
ATOM     10  C   UNL     1      28.447  -3.286  13.061  0.00  0.00    +0.000 A 
ATOM     11  C   UNL     1      28.505  -4.042  11.886  0.00  0.00    +0.000 A 
ATOM     12  C   UNL     1      28.741  -3.458  10.642  0.00  0.00    +0.000 A 
ATOM     13  C   UNL     1      28.897  -2.078  10.560  0.00  0.00    +0.000 A 
ATOM     14  C   UNL     1      28.833  -1.300  11.713  0.00  0.00    +0.000 A 
ATOM     15  C   UNL     1      28.607  -1.902  12.951  0.00  0.00    +0.000 A 
BRANCH  12  16
ATOM     16  N   UNL     1      28.854  -4.315   9.533  0.00  0.00    +0.000 N 
ATOM     17  C   UNL     1      30.015  -4.922   9.088  0.00  0.00    +0.000 C 
ATOM     18  O   UNL     1      31.137  -4.675   9.529  0.00  0.00    +0.000 OA
ATOM     19  N   UNL     1      29.807  -5.835   8.054  0.00  0.00    +0.000 N 
ATOM     20  C   UNL     1      28.683  -6.243   7.399  0.00  0.00    +0.000 A 
ATOM     21  C   UNL     1      30.724  -6.591   7.388  0.00  0.00    +0.000 A 
ATOM     22  C   UNL     1      28.775  -7.269   6.265  0.00  0.00    +0.000 A 
ATOM     23  C   UNL     1      30.289  -7.528   6.256  0.00  0.00    +0.000 A 
ATOM     24  H   UNL     1      28.021  -4.439   8.971  0.00  0.00    +0.000 HD
ENDBRANCH  12  16
ENDBRANCH   8  10
BRANCH   4  25
ATOM     25  N   UNL     1      23.869  -5.740  13.313  0.00  0.00    +0.000 N 
ATOM     26  H   UNL     1      23.124  -5.099  13.578  0.00  0.00    +0.000 HD
BRANCH  25  27
ATOM     27  C   UNL     1      24.199  -5.726  11.891  0.00  0.00    +0.000 C 
BRANCH  27  28
ATOM     28  C   UNL     1      24.453  -5.765  10.380  0.00  0.00    +0.000 C 
ATOM     29  C   UNL     1      24.643  -5.735   8.861  0.00  0.00    +0.000 C 
BRANCH  29  30
ATOM     30  N   UNL     1      24.797  -5.655   7.520  0.00  0.00    +0.000 N 
ATOM     31  C   UNL     1      25.383  -4.645   6.770  0.00  0.00    +0.000 C 
ATOM     32  O   UNL     1      25.883  -3.660   7.312  0.00  0.00    +0.000 OA
ATOM     33  H   UNL     1      24.363  -6.420   7.017  0.00  0.00    +0.000 HD
BRANCH  31  34
ATOM     34  C   UNL     1      25.334  -4.844   5.332  0.00  0.00    +0.000 A 
ATOM     35  S   UNL     1      25.421  -6.435   4.680  0.00  0.00    +0.000 S 
ATOM     36  C   UNL     1      25.329  -5.848   3.093  0.00  0.00    +0.000 A 
ATOM     37  C   UNL     1      25.230  -4.486   3.027  0.00  0.00    +0.000 A 
ATOM     38  C   UNL     1      25.233  -3.912   4.318  0.00  0.00    +0.000 A 
ENDBRANCH  31  34
ENDBRANCH  29  30
ENDBRANCH  27  28
ENDBRANCH  25  27
ENDBRANCH   4  25
TORSDOF 7
ENDMDL
MODEL 7
REMARK VINA RESULT:      -3.7      7.001     11.363
REMARK  Name = BX795.pdbqt.pdb
REMARK  7 active torsions:
REMARK  status: ('A' for Active; 'I' for Inactive)
REMARK    1  A    between atoms: C_4  and  N_25
REMARK    2  A    between atoms: N_8  and  C_10
REMARK    3  A    between atoms: C_12  and  N_16
REMARK    4  A    between atoms: N_25  and  C_27
REMARK    5  A    between atoms: C_27  and  C_28
REMARK    6  A    between atoms: C_29  and  N_30
REMARK    7  A    between atoms: C_31  and  C_34
REMARK                            x       y       z     vdW  Elec       q    Type
REMARK                         _______ _______ _______ _____ _____    ______ ____
ROOT
ATOM      1  I   UNL     1      30.210  -4.630  -6.392  0.00  0.00    +0.000 I 
ATOM      2  N   UNL     1      32.054  -0.812  -7.245  0.00  0.00    +0.000 NA
ATOM      3  N   UNL     1      31.770  -0.930  -4.911  0.00  0.00    +0.000 NA
ATOM      4  C   UNL     1      31.477  -2.021  -7.409  0.00  0.00    +0.000 A 
ATOM      5  C   UNL     1      32.183  -0.298  -6.013  0.00  0.00    +0.000 A 
ATOM      6  C   UNL     1      31.070  -2.758  -6.315  0.00  0.00    +0.000 A 
ATOM      7  C   UNL     1      31.239  -2.153  -5.094  0.00  0.00    +0.000 A 
ATOM      8  N   UNL     1      32.726   0.970  -5.834  0.00  0.00    +0.000 N 
ATOM      9  H   UNL     1      32.691   1.253  -4.866  0.00  0.00    +0.000 HD
ENDROOT
BRANCH   8  10
ATOM     10  C   UNL     1      33.451   1.775  -6.721  0.00  0.00    +0.000 A 
ATOM     11  C   UNL     1      34.756   1.467  -7.116  0.00  0.00    +0.000 A 
ATOM     12  C   UNL     1      35.434   2.219  -8.075  0.00  0.00    +0.000 A 
ATOM     13  C   UNL     1      34.787   3.291  -8.678  0.00  0.00    +0.000 A 
ATOM     14  C   UNL     1      33.483   3.613  -8.311  0.00  0.00    +0.000 A 
ATOM     15  C   UNL     1      32.822   2.857  -7.342  0.00  0.00    +0.000 A 
BRANCH  12  16
ATOM     16  N   UNL     1      36.769   1.870  -8.347  0.00  0.00    +0.000 N 
ATOM     17  C   UNL     1      37.876   2.243  -7.606  0.00  0.00    +0.000 C 
ATOM     18  O   UNL     1      37.847   3.052  -6.679  0.00  0.00    +0.000 OA
ATOM     19  N   UNL     1      39.060   1.634  -8.023  0.00  0.00    +0.000 N 
ATOM     20  C   UNL     1      39.336   0.747  -9.020  0.00  0.00    +0.000 A 
ATOM     21  C   UNL     1      40.317   1.785  -7.522  0.00  0.00    +0.000 A 
ATOM     22  C   UNL     1      40.771   0.264  -9.254  0.00  0.00    +0.000 A 
ATOM     23  C   UNL     1      41.500   1.034  -8.143  0.00  0.00    +0.000 A 
ATOM     24  H   UNL     1      36.937   1.360  -9.206  0.00  0.00    +0.000 HD
ENDBRANCH  12  16
ENDBRANCH   8  10
BRANCH   4  25
ATOM     25  N   UNL     1      31.363  -2.548  -8.722  0.00  0.00    +0.000 N 
ATOM     26  H   UNL     1      30.470  -2.272  -9.125  0.00  0.00    +0.000 HD
BRANCH  25  27
ATOM     27  C   UNL     1      32.512  -2.334  -9.598  0.00  0.00    +0.000 C 
BRANCH  27  28
ATOM     28  C   UNL     1      33.656  -2.144 -10.599  0.00  0.00    +0.000 C 
ATOM     29  C   UNL     1      34.777  -2.038 -11.637  0.00  0.00    +0.000 C 
BRANCH  29  30
ATOM     30  N   UNL     1      35.736  -1.977 -12.588  0.00  0.00    +0.000 N 
ATOM     31  C   UNL     1      36.386  -0.862 -13.098  0.00  0.00    +0.000 C 
ATOM     32  O   UNL     1      36.141   0.266 -12.672  0.00  0.00    +0.000 OA
ATOM     33  H   UNL     1      35.946  -2.875 -13.008  0.00  0.00    +0.000 HD
BRANCH  31  34
ATOM     34  C   UNL     1      37.334  -1.141 -14.164  0.00  0.00    +0.000 A 
ATOM     35  S   UNL     1      37.217  -2.607 -15.057  0.00  0.00    +0.000 S 
ATOM     36  C   UNL     1      38.568  -2.205 -15.998  0.00  0.00    +0.000 A 
ATOM     37  C   UNL     1      39.113  -0.996 -15.669  0.00  0.00    +0.000 A 
ATOM     38  C   UNL     1      38.399  -0.386 -14.612  0.00  0.00    +0.000 A 
ENDBRANCH  31  34
ENDBRANCH  29  30
ENDBRANCH  27  28
ENDBRANCH  25  27
ENDBRANCH   4  25
TORSDOF 7
ENDMDL
MODEL 8
REMARK VINA RESULT:      -3.7     27.769     30.591
REMARK  Name = BX795.pdbqt.pdb
REMARK  7 active torsions:
REMARK  status: ('A' for Active; 'I' for Inactive)
REMARK    1  A    between atoms: C_4  and  N_25
REMARK    2  A    between atoms: N_8  and  C_10
REMARK    3  A    between atoms: C_12  and  N_16
REMARK    4  A    between atoms: N_25  and  C_27
REMARK    5  A    between atoms: C_27  and  C_28
REMARK    6  A    between atoms: C_29  and  N_30
REMARK    7  A    between atoms: C_31  and  C_34
REMARK                            x       y       z     vdW  Elec       q    Type
REMARK                         _______ _______ _______ _____ _____    ______ ____
ROOT
ATOM      1  I   UNL     1      47.344  26.921   5.713  0.00  0.00    +0.000 I 
ATOM      2  N   UNL     1      44.219  24.607   3.820  0.00  0.00    +0.000 NA
ATOM      3  N   UNL     1      45.402  25.696   2.102  0.00  0.00    +0.000 NA
ATOM      4  C   UNL     1      44.995  25.181   4.764  0.00  0.00    +0.000 A 
ATOM      5  C   UNL     1      44.436  24.878   2.525  0.00  0.00    +0.000 A 
ATOM      6  C   UNL     1      46.046  26.000   4.403  0.00  0.00    +0.000 A 
ATOM      7  C   UNL     1      46.192  26.223   3.055  0.00  0.00    +0.000 A 
ATOM      8  N   UNL     1      43.610  24.335   1.546  0.00  0.00    +0.000 N 
ATOM      9  H   UNL     1      43.846  24.684   0.629  0.00  0.00    +0.000 HD
ENDROOT
BRANCH   8  10
ATOM     10  C   UNL     1      42.686  23.286   1.625  0.00  0.00    +0.000 A 
ATOM     11  C   UNL     1      41.307  23.505   1.681  0.00  0.00    +0.000 A 
ATOM     12  C   UNL     1      40.390  22.455   1.659  0.00  0.00    +0.000 A 
ATOM     13  C   UNL     1      40.857  21.149   1.551  0.00  0.00    +0.000 A 
ATOM     14  C   UNL     1      42.226  20.904   1.482  0.00  0.00    +0.000 A 
ATOM     15  C   UNL     1      43.130  21.966   1.516  0.00  0.00    +0.000 A 
BRANCH  12  16
ATOM     16  N   UNL     1      39.028  22.779   1.795  0.00  0.00    +0.000 N 
ATOM     17  C   UNL     1      38.396  23.169   2.963  0.00  0.00    +0.000 C 
ATOM     18  O   UNL     1      38.924  23.149   4.074  0.00  0.00    +0.000 OA
ATOM     19  N   UNL     1      37.073  23.568   2.775  0.00  0.00    +0.000 N 
ATOM     20  C   UNL     1      36.284  23.646   1.667  0.00  0.00    +0.000 A 
ATOM     21  C   UNL     1      36.174  23.999   3.704  0.00  0.00    +0.000 A 
ATOM     22  C   UNL     1      34.829  24.112   1.781  0.00  0.00    +0.000 A 
ATOM     23  C   UNL     1      34.747  24.374   3.292  0.00  0.00    +0.000 A 
ATOM     24  H   UNL     1      38.448  22.642   0.977  0.00  0.00    +0.000 HD
ENDBRANCH  12  16
ENDBRANCH   8  10
BRANCH   4  25
ATOM     25  N   UNL     1      44.752  24.870   6.126  0.00  0.00    +0.000 N 
ATOM     26  H   UNL     1      45.305  25.483   6.722  0.00  0.00    +0.000 HD
BRANCH  25  27
ATOM     27  C   UNL     1      43.349  24.757   6.515  0.00  0.00    +0.000 C 
BRANCH  27  28
ATOM     28  C   UNL     1      41.860  24.735   6.877  0.00  0.00    +0.000 C 
ATOM     29  C   UNL     1      40.385  24.797   7.280  0.00  0.00    +0.000 C 
BRANCH  29  30
ATOM     30  N   UNL     1      39.084  24.908   7.633  0.00  0.00    +0.000 N 
ATOM     31  C   UNL     1      38.034  25.474   6.924  0.00  0.00    +0.000 C 
ATOM     32  O   UNL     1      38.207  25.942   5.800  0.00  0.00    +0.000 OA
ATOM     33  H   UNL     1      38.892  24.578   8.572  0.00  0.00    +0.000 HD
BRANCH  31  34
ATOM     34  C   UNL     1      36.759  25.481   7.621  0.00  0.00    +0.000 A 
ATOM     35  S   UNL     1      36.708  25.769   9.317  0.00  0.00    +0.000 S 
ATOM     36  C   UNL     1      35.022  25.604   9.349  0.00  0.00    +0.000 A 
ATOM     37  C   UNL     1      34.483  25.342   8.120  0.00  0.00    +0.000 A 
ATOM     38  C   UNL     1      35.487  25.272   7.128  0.00  0.00    +0.000 A 
ENDBRANCH  31  34
ENDBRANCH  29  30
ENDBRANCH  27  28
ENDBRANCH  25  27
ENDBRANCH   4  25
TORSDOF 7
ENDMDL
MODEL 9
REMARK VINA RESULT:      -3.5     27.406     30.064
REMARK  Name = BX795.pdbqt.pdb
REMARK  7 active torsions:
REMARK  status: ('A' for Active; 'I' for Inactive)
REMARK    1  A    between atoms: C_4  and  N_25
REMARK    2  A    between atoms: N_8  and  C_10
REMARK    3  A    between atoms: C_12  and  N_16
REMARK    4  A    between atoms: N_25  and  C_27
REMARK    5  A    between atoms: C_27  and  C_28
REMARK    6  A    between atoms: C_29  and  N_30
REMARK    7  A    between atoms: C_31  and  C_34
REMARK                            x       y       z     vdW  Elec       q    Type
REMARK                         _______ _______ _______ _____ _____    ______ ____
ROOT
ATOM      1  I   UNL     1      47.709  27.448   5.204  0.00  0.00    +0.000 I 
ATOM      2  N   UNL     1      45.128  24.575   3.257  0.00  0.00    +0.000 NA
ATOM      3  N   UNL     1      47.086  24.726   1.960  0.00  0.00    +0.000 NA
ATOM      4  C   UNL     1      45.588  25.506   4.120  0.00  0.00    +0.000 A 
ATOM      5  C   UNL     1      45.879  24.213   2.207  0.00  0.00    +0.000 A 
ATOM      6  C   UNL     1      46.847  26.048   3.960  0.00  0.00    +0.000 A 
ATOM      7  C   UNL     1      47.544  25.621   2.856  0.00  0.00    +0.000 A 
ATOM      8  N   UNL     1      45.395  23.294   1.282  0.00  0.00    +0.000 N 
ATOM      9  H   UNL     1      46.035  23.175   0.510  0.00  0.00    +0.000 HD
ENDROOT
BRANCH   8  10
ATOM     10  C   UNL     1      44.308  22.416   1.365  0.00  0.00    +0.000 A 
ATOM     11  C   UNL     1      43.050  22.729   0.843  0.00  0.00    +0.000 A 
ATOM     12  C   UNL     1      42.000  21.811   0.843  0.00  0.00    +0.000 A 
ATOM     13  C   UNL     1      42.216  20.535   1.351  0.00  0.00    +0.000 A 
ATOM     14  C   UNL     1      43.463  20.192   1.867  0.00  0.00    +0.000 A 
ATOM     15  C   UNL     1      44.499  21.127   1.870  0.00  0.00    +0.000 A 
BRANCH  12  16
ATOM     16  N   UNL     1      40.754  22.251   0.362  0.00  0.00    +0.000 N 
ATOM     17  C   UNL     1      39.675  22.642   1.135  0.00  0.00    +0.000 C 
ATOM     18  O   UNL     1      39.622  22.523   2.358  0.00  0.00    +0.000 OA
ATOM     19  N   UNL     1      38.617  23.168   0.392  0.00  0.00    +0.000 N 
ATOM     20  C   UNL     1      38.442  23.368  -0.944  0.00  0.00    +0.000 A 
ATOM     21  C   UNL     1      37.416  23.634   0.834  0.00  0.00    +0.000 A 
ATOM     22  C   UNL     1      37.132  23.959  -1.476  0.00  0.00    +0.000 A 
ATOM     23  C   UNL     1      36.370  24.157  -0.157  0.00  0.00    +0.000 A 
ATOM     24  H   UNL     1      40.615  22.206  -0.640  0.00  0.00    +0.000 HD
ENDBRANCH  12  16
ENDBRANCH   8  10
BRANCH   4  25
ATOM     25  N   UNL     1      44.779  25.864   5.229  0.00  0.00    +0.000 N 
ATOM     26  H   UNL     1      45.027  26.798   5.548  0.00  0.00    +0.000 HD
BRANCH  25  27
ATOM     27  C   UNL     1      43.344  25.642   5.071  0.00  0.00    +0.000 C 
BRANCH  27  28
ATOM     28  C   UNL     1      41.852  25.424   4.799  0.00  0.00    +0.000 C 
ATOM     29  C   UNL     1      40.383  25.121   4.491  0.00  0.00    +0.000 C 
BRANCH  29  30
ATOM     30  N   UNL     1      39.097  24.799   4.226  0.00  0.00    +0.000 N 
ATOM     31  C   UNL     1      38.057  24.565   5.115  0.00  0.00    +0.000 C 
ATOM     32  O   UNL     1      38.225  24.666   6.330  0.00  0.00    +0.000 OA
ATOM     33  H   UNL     1      38.912  24.657   3.240  0.00  0.00    +0.000 HD
BRANCH  31  34
ATOM     34  C   UNL     1      36.799  24.180   4.498  0.00  0.00    +0.000 A 
ATOM     35  S   UNL     1      36.445  22.517   4.232  0.00  0.00    +0.000 S 
ATOM     36  C   UNL     1      34.951  22.893   3.526  0.00  0.00    +0.000 A 
ATOM     37  C   UNL     1      34.699  24.235   3.481  0.00  0.00    +0.000 A 
ATOM     38  C   UNL     1      35.765  24.973   4.042  0.00  0.00    +0.000 A 
ENDBRANCH  31  34
ENDBRANCH  29  30
ENDBRANCH  27  28
ENDBRANCH  25  27
ENDBRANCH   4  25
TORSDOF 7
ENDMDL
