MODEL 1
REMARK VINA RESULT:      -3.3      0.000      0.000
REMARK  Name = CadmiumAcetate.pdbqt.pdb
REMARK  1 active torsions:
REMARK  status: ('A' for Active; 'I' for Inactive)
REMARK    1  A    between atoms: C_3  and  O_4
REMARK                            x       y       z     vdW  Elec       q    Type
REMARK                         _______ _______ _______ _____ _____    ______ ____
ROOT
ATOM      1  O   UNL     1      38.615  16.004  19.265  0.00  0.00    +0.000 OA
ATOM      2  C   UNL     1      37.455  17.989  19.252  0.00  0.00    +0.000 C 
ATOM      3  C   UNL     1      38.705  17.212  19.339  0.00  0.00    +0.000 C 
ENDROOT
BRANCH   3   4
ATOM      4  O   UNL     1      39.825  17.917  19.491  0.00  0.00    +0.000 OA
ATOM      5  H   UNL     1      39.506  18.733  19.919  0.00  0.00    +0.000 HD
ENDBRANCH   3   4
TORSDOF 1
ENDMDL
MODEL 2
REMARK VINA RESULT:      -2.9     20.235     20.455
REMARK  Name = CadmiumAcetate.pdbqt.pdb
REMARK  1 active torsions:
REMARK  status: ('A' for Active; 'I' for Inactive)
REMARK    1  A    between atoms: C_3  and  O_4
REMARK                            x       y       z     vdW  Elec       q    Type
REMARK                         _______ _______ _______ _____ _____    ______ ____
ROOT
ATOM      1  O   UNL     1      40.430  -1.990  11.496  0.00  0.00    +0.000 OA
ATOM      2  C   UNL     1      42.493  -1.531  12.403  0.00  0.00    +0.000 C 
ATOM      3  C   UNL     1      41.432  -1.311  11.402  0.00  0.00    +0.000 C 
ENDROOT
BRANCH   3   4
ATOM      4  O   UNL     1      41.677  -0.380  10.482  0.00  0.00    +0.000 OA
ATOM      5  H   UNL     1      40.928  -0.486   9.867  0.00  0.00    +0.000 HD
ENDBRANCH   3   4
TORSDOF 1
ENDMDL
MODEL 3
REMARK VINA RESULT:      -2.8     16.828     17.533
REMARK  Name = CadmiumAcetate.pdbqt.pdb
REMARK  1 active torsions:
REMARK  status: ('A' for Active; 'I' for Inactive)
REMARK    1  A    between atoms: C_3  and  O_4
REMARK                            x       y       z     vdW  Elec       q    Type
REMARK                         _______ _______ _______ _____ _____    ______ ____
ROOT
ATOM      1  O   UNL     1      39.534   2.083  13.983  0.00  0.00    +0.000 OA
ATOM      2  C   UNL     1      39.838  -0.078  14.707  0.00  0.00    +0.000 C 
ATOM      3  C   UNL     1      39.591   0.919  13.648  0.00  0.00    +0.000 C 
ENDROOT
BRANCH   3   4
ATOM      4  O   UNL     1      39.453   0.440  12.412  0.00  0.00    +0.000 OA
ATOM      5  H   UNL     1      38.506   0.584  12.233  0.00  0.00    +0.000 HD
ENDBRANCH   3   4
TORSDOF 1
ENDMDL
MODEL 4
REMARK VINA RESULT:      -2.7     22.927     23.484
REMARK  Name = CadmiumAcetate.pdbqt.pdb
REMARK  1 active torsions:
REMARK  status: ('A' for Active; 'I' for Inactive)
REMARK    1  A    between atoms: C_3  and  O_4
REMARK                            x       y       z     vdW  Elec       q    Type
REMARK                         _______ _______ _______ _____ _____    ______ ____
ROOT
ATOM      1  O   UNL     1      29.907  -2.852   8.143  0.00  0.00    +0.000 OA
ATOM      2  C   UNL     1      29.563  -0.994   9.454  0.00  0.00    +0.000 C 
ATOM      3  C   UNL     1      30.324  -2.201   9.078  0.00  0.00    +0.000 C 
ENDROOT
BRANCH   3   4
ATOM      4  O   UNL     1      31.407  -2.462   9.809  0.00  0.00    +0.000 OA
ATOM      5  H   UNL     1      31.225  -1.984  10.638  0.00  0.00    +0.000 HD
ENDBRANCH   3   4
TORSDOF 1
ENDMDL
MODEL 5
REMARK VINA RESULT:      -2.6     18.336     18.762
REMARK  Name = CadmiumAcetate.pdbqt.pdb
REMARK  1 active torsions:
REMARK  status: ('A' for Active; 'I' for Inactive)
REMARK    1  A    between atoms: C_3  and  O_4
REMARK                            x       y       z     vdW  Elec       q    Type
REMARK                         _______ _______ _______ _____ _____    ______ ____
ROOT
ATOM      1  O   UNL     1      41.241   0.293  13.883  0.00  0.00    +0.000 OA
ATOM      2  C   UNL     1      41.541  -0.811  11.888  0.00  0.00    +0.000 C 
ATOM      3  C   UNL     1      40.740   0.012  12.814  0.00  0.00    +0.000 C 
ENDROOT
BRANCH   3   4
ATOM      4  O   UNL     1      39.532   0.372  12.383  0.00  0.00    +0.000 OA
ATOM      5  H   UNL     1      39.711   0.672  11.473  0.00  0.00    +0.000 HD
ENDBRANCH   3   4
TORSDOF 1
ENDMDL
MODEL 6
REMARK VINA RESULT:      -2.5      8.683      8.952
REMARK  Name = CadmiumAcetate.pdbqt.pdb
REMARK  1 active torsions:
REMARK  status: ('A' for Active; 'I' for Inactive)
REMARK    1  A    between atoms: C_3  and  O_4
REMARK                            x       y       z     vdW  Elec       q    Type
REMARK                         _______ _______ _______ _____ _____    ______ ____
ROOT
ATOM      1  O   UNL     1      41.749  21.354  10.637  0.00  0.00    +0.000 OA
ATOM      2  C   UNL     1      40.049  21.595  12.167  0.00  0.00    +0.000 C 
ATOM      3  C   UNL     1      41.233  20.894  11.635  0.00  0.00    +0.000 C 
ENDROOT
BRANCH   3   4
ATOM      4  O   UNL     1      41.627  19.814  12.308  0.00  0.00    +0.000 OA
ATOM      5  H   UNL     1      40.854  19.225  12.236  0.00  0.00    +0.000 HD
ENDBRANCH   3   4
TORSDOF 1
ENDMDL
MODEL 7
REMARK VINA RESULT:      -2.5     11.361     11.934
REMARK  Name = CadmiumAcetate.pdbqt.pdb
REMARK  1 active torsions:
REMARK  status: ('A' for Active; 'I' for Inactive)
REMARK    1  A    between atoms: C_3  and  O_4
REMARK                            x       y       z     vdW  Elec       q    Type
REMARK                         _______ _______ _______ _____ _____    ______ ____
ROOT
ATOM      1  O   UNL     1      39.185   4.269  19.212  0.00  0.00    +0.000 OA
ATOM      2  C   UNL     1      39.936   6.440  19.125  0.00  0.00    +0.000 C 
ATOM      3  C   UNL     1      39.076   5.381  19.685  0.00  0.00    +0.000 C 
ENDROOT
BRANCH   3   4
ATOM      4  O   UNL     1      38.256   5.750  20.668  0.00  0.00    +0.000 OA
ATOM      5  H   UNL     1      38.670   6.570  20.994  0.00  0.00    +0.000 HD
ENDBRANCH   3   4
TORSDOF 1
ENDMDL
MODEL 8
REMARK VINA RESULT:      -2.4     16.152     16.574
REMARK  Name = CadmiumAcetate.pdbqt.pdb
REMARK  1 active torsions:
REMARK  status: ('A' for Active; 'I' for Inactive)
REMARK    1  A    between atoms: C_3  and  O_4
REMARK                            x       y       z     vdW  Elec       q    Type
REMARK                         _______ _______ _______ _____ _____    ______ ____
ROOT
ATOM      1  O   UNL     1      52.518   7.315  15.263  0.00  0.00    +0.000 OA
ATOM      2  C   UNL     1      50.705   7.314  13.849  0.00  0.00    +0.000 C 
ATOM      3  C   UNL     1      51.328   7.533  15.168  0.00  0.00    +0.000 C 
ENDROOT
BRANCH   3   4
ATOM      4  O   UNL     1      50.518   7.953  16.138  0.00  0.00    +0.000 OA
ATOM      5  H   UNL     1      50.514   7.197  16.754  0.00  0.00    +0.000 HD
ENDBRANCH   3   4
TORSDOF 1
ENDMDL
MODEL 9
REMARK VINA RESULT:      -2.3     15.237     15.893
REMARK  Name = CadmiumAcetate.pdbqt.pdb
REMARK  1 active torsions:
REMARK  status: ('A' for Active; 'I' for Inactive)
REMARK    1  A    between atoms: C_3  and  O_4
REMARK                            x       y       z     vdW  Elec       q    Type
REMARK                         _______ _______ _______ _____ _____    ______ ____
ROOT
ATOM      1  O   UNL     1      39.432   1.857  13.978  0.00  0.00    +0.000 OA
ATOM      2  C   UNL     1      39.624   0.937  16.076  0.00  0.00    +0.000 C 
ATOM      3  C   UNL     1      39.641   2.086  15.151  0.00  0.00    +0.000 C 
ENDROOT
BRANCH   3   4
ATOM      4  O   UNL     1      39.887   3.275  15.698  0.00  0.00    +0.000 OA
ATOM      5  H   UNL     1      40.812   3.442  15.439  0.00  0.00    +0.000 HD
ENDBRANCH   3   4
TORSDOF 1
ENDMDL
