REMARK  Name = Calcitriol.pdbqt.pdb
REMARK  9 active torsions:
REMARK  status: ('A' for Active; 'I' for Inactive)
REMARK    1  A    between atoms: C_2  and  C_24
REMARK    2  A    between atoms: C_7  and  C_11
REMARK    3  A    between atoms: C_12  and  C_13
REMARK    4  A    between atoms: C_16  and  O_20
REMARK    5  A    between atoms: C_18  and  O_22
REMARK    6  A    between atoms: C_24  and  C_26
REMARK    7  A    between atoms: C_27  and  C_28
REMARK    8  A    between atoms: C_28  and  C_29
REMARK    9  A    between atoms: C_29  and  O_32
REMARK                            x       y       z     vdW  Elec       q    Type
REMARK                         _______ _______ _______ _____ _____    ______ ____
ROOT
ATOM      1  C   UNL     1       1.228  -2.216  -0.809  0.00  0.00    +0.000 C 
ATOM      2  C   UNL     1       2.343  -1.394  -0.169  0.00  0.00    +0.000 C 
ATOM      3  C   UNL     1      -0.069  -1.251  -0.655  0.00  0.00    +0.000 C 
ATOM      4  C   UNL     1       1.853  -0.096   0.162  0.00  0.00    +0.000 C 
ATOM      5  C   UNL     1       0.387   0.010  -0.157  0.00  0.00    +0.000 C 
ATOM      6  C   UNL     1       0.908  -3.465  -0.099  0.00  0.00    +0.000 C 
ATOM      7  C   UNL     1      -1.370  -1.797  -0.250  0.00  0.00    +0.000 C 
ATOM      8  C   UNL     1       1.473  -2.395  -2.334  0.00  0.00    +0.000 C 
ATOM      9  C   UNL     1      -0.284  -4.181   0.511  0.00  0.00    +0.000 C 
ATOM     10  C   UNL     1      -1.335  -3.115   0.278  0.00  0.00    +0.000 C 
ENDROOT
BRANCH   7  11
ATOM     11  C   UNL     1      -2.473  -1.117  -0.220  0.00  0.00    +0.000 C 
ATOM     12  C   UNL     1      -3.781  -0.317  -0.198  0.00  0.00    +0.000 C 
BRANCH  12  13
ATOM     13  C   UNL     1      -4.892   0.355  -0.186  0.00  0.00    +0.000 A 
ATOM     14  C   UNL     1      -6.064  -0.224   0.399  0.00  0.00    +0.000 A 
ATOM     15  C   UNL     1      -5.128   1.706  -0.787  0.00  0.00    +0.000 A 
ATOM     16  C   UNL     1      -7.411   0.222   0.527  0.00  0.00    +0.000 A 
ATOM     17  C   UNL     1      -7.492   1.503  -0.089  0.00  0.00    +0.000 A 
ATOM     18  C   UNL     1      -6.501   2.299  -0.732  0.00  0.00    +0.000 A 
ATOM     19  C   UNL     1      -4.142   2.412  -1.370  0.00  0.00    +0.000 C 
BRANCH  16  20
ATOM     20  O   UNL     1      -8.166  -0.108   1.615  0.00  0.00    +0.000 OA
ATOM     21  H   UNL     1      -8.949   0.463   1.687  0.00  0.00    +0.000 HD
ENDBRANCH  16  20
BRANCH  18  22
ATOM     22  O   UNL     1      -6.777   3.538  -1.259  0.00  0.00    +0.000 OA
ATOM     23  H   UNL     1      -5.971   3.925  -1.652  0.00  0.00    +0.000 HD
ENDBRANCH  18  22
ENDBRANCH  12  13
ENDBRANCH   7  11
BRANCH   2  24
ATOM     24  C   UNL     1       3.710  -1.797  -0.069  0.00  0.00    +0.000 C 
ATOM     25  C   UNL     1       4.136  -3.239   0.036  0.00  0.00    +0.000 C 
BRANCH  24  26
ATOM     26  C   UNL     1       4.745  -0.842   0.126  0.00  0.00    +0.000 C 
ATOM     27  C   UNL     1       5.872   0.176   0.341  0.00  0.00    +0.000 C 
BRANCH  27  28
ATOM     28  C   UNL     1       7.007   1.184   0.561  0.00  0.00    +0.000 C 
BRANCH  28  29
ATOM     29  C   UNL     1       8.092   2.142   0.772  0.00  0.00    +0.000 C 
ATOM     30  C   UNL     1       7.606   3.472   1.360  0.00  0.00    +0.000 C 
ATOM     31  C   UNL     1       9.246   1.573   1.605  0.00  0.00    +0.000 C 
BRANCH  29  32
ATOM     32  O   UNL     1       8.663   2.470  -0.475  0.00  0.00    +0.000 OA
ATOM     33  H   UNL     1       9.374   3.047  -0.159  0.00  0.00    +0.000 HD
ENDBRANCH  29  32
ENDBRANCH  28  29
ENDBRANCH  27  28
ENDBRANCH  24  26
ENDBRANCH   2  24
TORSDOF 9
