MODEL 1
REMARK VINA RESULT:      -7.2      0.000      0.000
REMARK  Name = Calcitriol.pdbqt.pdb
REMARK  9 active torsions:
REMARK  status: ('A' for Active; 'I' for Inactive)
REMARK    1  A    between atoms: C_2  and  C_24
REMARK    2  A    between atoms: C_7  and  C_11
REMARK    3  A    between atoms: C_12  and  C_13
REMARK    4  A    between atoms: C_16  and  O_20
REMARK    5  A    between atoms: C_18  and  O_22
REMARK    6  A    between atoms: C_24  and  C_26
REMARK    7  A    between atoms: C_27  and  C_28
REMARK    8  A    between atoms: C_28  and  C_29
REMARK    9  A    between atoms: C_29  and  O_32
REMARK                            x       y       z     vdW  Elec       q    Type
REMARK                         _______ _______ _______ _____ _____    ______ ____
ROOT
ATOM      1  C   UNL     1      36.032  18.215  19.624  0.00  0.00    +0.000 C 
ATOM      2  C   UNL     1      35.780  19.427  20.516  0.00  0.00    +0.000 C 
ATOM      3  C   UNL     1      35.635  16.968  20.586  0.00  0.00    +0.000 C 
ATOM      4  C   UNL     1      35.179  19.007  21.739  0.00  0.00    +0.000 C 
ATOM      5  C   UNL     1      35.061  17.508  21.779  0.00  0.00    +0.000 C 
ATOM      6  C   UNL     1      37.440  18.020  19.244  0.00  0.00    +0.000 C 
ATOM      7  C   UNL     1      36.462  15.756  20.627  0.00  0.00    +0.000 C 
ATOM      8  C   UNL     1      35.040  18.189  18.427  0.00  0.00    +0.000 C 
ATOM      9  C   UNL     1      38.517  16.950  19.289  0.00  0.00    +0.000 C 
ATOM     10  C   UNL     1      37.745  15.878  20.030  0.00  0.00    +0.000 C 
ENDROOT
BRANCH   7  11
ATOM     11  C   UNL     1      36.150  14.677  21.275  0.00  0.00    +0.000 C 
ATOM     12  C   UNL     1      35.770  13.399  22.032  0.00  0.00    +0.000 C 
BRANCH  12  13
ATOM     13  C   UNL     1      35.443  12.314  22.666  0.00  0.00    +0.000 A 
ATOM     14  C   UNL     1      35.659  11.040  22.047  0.00  0.00    +0.000 A 
ATOM     15  C   UNL     1      34.785  12.224  24.007  0.00  0.00    +0.000 A 
ATOM     16  C   UNL     1      35.376   9.702  22.447  0.00  0.00    +0.000 A 
ATOM     17  C   UNL     1      34.750   9.767  23.724  0.00  0.00    +0.000 A 
ATOM     18  C   UNL     1      34.422  10.878  24.553  0.00  0.00    +0.000 A 
ATOM     19  C   UNL     1      34.514  13.315  24.746  0.00  0.00    +0.000 C 
BRANCH  16  20
ATOM     20  O   UNL     1      36.193   8.669  22.092  0.00  0.00    +0.000 OA
ATOM     21  H   UNL     1      35.705   7.829  22.057  0.00  0.00    +0.000 HD
ENDBRANCH  16  20
BRANCH  18  22
ATOM     22  O   UNL     1      33.823  10.732  25.781  0.00  0.00    +0.000 OA
ATOM     23  H   UNL     1      33.318  11.536  26.009  0.00  0.00    +0.000 HD
ENDBRANCH  18  22
ENDBRANCH  12  13
ENDBRANCH   7  11
BRANCH   2  24
ATOM     24  C   UNL     1      35.961  20.789  20.125  0.00  0.00    +0.000 C 
ATOM     25  C   UNL     1      35.211  21.421  18.980  0.00  0.00    +0.000 C 
BRANCH  24  26
ATOM     26  C   UNL     1      37.003  21.581  20.679  0.00  0.00    +0.000 C 
ATOM     27  C   UNL     1      38.116  22.445  21.285  0.00  0.00    +0.000 C 
BRANCH  27  28
ATOM     28  C   UNL     1      39.220  23.318  21.896  0.00  0.00    +0.000 C 
BRANCH  28  29
ATOM     29  C   UNL     1      40.271  24.153  22.476  0.00  0.00    +0.000 C 
ATOM     30  C   UNL     1      39.845  25.617  22.642  0.00  0.00    +0.000 C 
ATOM     31  C   UNL     1      40.824  23.599  23.793  0.00  0.00    +0.000 C 
BRANCH  29  32
ATOM     32  O   UNL     1      41.372  24.181  21.595  0.00  0.00    +0.000 OA
ATOM     33  H   UNL     1      41.633  25.105  21.723  0.00  0.00    +0.000 HD
ENDBRANCH  29  32
ENDBRANCH  28  29
ENDBRANCH  27  28
ENDBRANCH  24  26
ENDBRANCH   2  24
TORSDOF 9
ENDMDL
MODEL 2
REMARK VINA RESULT:      -7.0     22.080     26.399
REMARK  Name = Calcitriol.pdbqt.pdb
REMARK  9 active torsions:
REMARK  status: ('A' for Active; 'I' for Inactive)
REMARK    1  A    between atoms: C_2  and  C_24
REMARK    2  A    between atoms: C_7  and  C_11
REMARK    3  A    between atoms: C_12  and  C_13
REMARK    4  A    between atoms: C_16  and  O_20
REMARK    5  A    between atoms: C_18  and  O_22
REMARK    6  A    between atoms: C_24  and  C_26
REMARK    7  A    between atoms: C_27  and  C_28
REMARK    8  A    between atoms: C_28  and  C_29
REMARK    9  A    between atoms: C_29  and  O_32
REMARK                            x       y       z     vdW  Elec       q    Type
REMARK                         _______ _______ _______ _____ _____    ______ ____
ROOT
ATOM      1  C   UNL     1      49.755   0.868   7.893  0.00  0.00    +0.000 C 
ATOM      2  C   UNL     1      50.927   0.222   7.161  0.00  0.00    +0.000 C 
ATOM      3  C   UNL     1      50.466   2.056   8.742  0.00  0.00    +0.000 C 
ATOM      4  C   UNL     1      52.113   0.982   7.388  0.00  0.00    +0.000 C 
ATOM      5  C   UNL     1      51.835   2.121   8.331  0.00  0.00    +0.000 C 
ATOM      6  C   UNL     1      49.091  -0.008   8.872  0.00  0.00    +0.000 C 
ATOM      7  C   UNL     1      50.082   2.320  10.133  0.00  0.00    +0.000 C 
ATOM      8  C   UNL     1      48.783   1.555   6.891  0.00  0.00    +0.000 C 
ATOM      9  C   UNL     1      48.697  -0.021  10.338  0.00  0.00    +0.000 C 
ATOM     10  C   UNL     1      49.305   1.304  10.750  0.00  0.00    +0.000 C 
ENDROOT
BRANCH   7  11
ATOM     11  C   UNL     1      50.515   3.320  10.836  0.00  0.00    +0.000 C 
ATOM     12  C   UNL     1      51.018   4.511  11.660  0.00  0.00    +0.000 C 
BRANCH  12  13
ATOM     13  C   UNL     1      51.436   5.524  12.357  0.00  0.00    +0.000 A 
ATOM     14  C   UNL     1      50.530   6.203  13.233  0.00  0.00    +0.000 A 
ATOM     15  C   UNL     1      52.802   6.137  12.316  0.00  0.00    +0.000 A 
ATOM     16  C   UNL     1      50.660   7.345  14.076  0.00  0.00    +0.000 A 
ATOM     17  C   UNL     1      51.993   7.825  13.932  0.00  0.00    +0.000 A 
ATOM     18  C   UNL     1      53.082   7.349  13.147  0.00  0.00    +0.000 A 
ATOM     19  C   UNL     1      53.792   5.628  11.560  0.00  0.00    +0.000 C 
BRANCH  16  20
ATOM     20  O   UNL     1      49.980   7.436  15.255  0.00  0.00    +0.000 OA
ATOM     21  H   UNL     1      50.378   6.868  15.936  0.00  0.00    +0.000 HD
ENDBRANCH  16  20
BRANCH  18  22
ATOM     22  O   UNL     1      54.318   7.951  13.157  0.00  0.00    +0.000 OA
ATOM     23  H   UNL     1      54.733   7.884  12.276  0.00  0.00    +0.000 HD
ENDBRANCH  18  22
ENDBRANCH  12  13
ENDBRANCH   7  11
BRANCH   2  24
ATOM     24  C   UNL     1      50.827  -0.875   6.251  0.00  0.00    +0.000 C 
ATOM     25  C   UNL     1      50.498  -0.704   4.790  0.00  0.00    +0.000 C 
BRANCH  24  26
ATOM     26  C   UNL     1      50.849  -2.219   6.715  0.00  0.00    +0.000 C 
ATOM     27  C   UNL     1      50.886  -3.672   7.205  0.00  0.00    +0.000 C 
BRANCH  27  28
ATOM     28  C   UNL     1      50.931  -5.128   7.686  0.00  0.00    +0.000 C 
BRANCH  28  29
ATOM     29  C   UNL     1      50.971  -6.516   8.145  0.00  0.00    +0.000 C 
ATOM     30  C   UNL     1      51.255  -7.510   7.013  0.00  0.00    +0.000 C 
ATOM     31  C   UNL     1      51.938  -6.737   9.314  0.00  0.00    +0.000 C 
BRANCH  29  32
ATOM     32  O   UNL     1      49.701  -6.870   8.645  0.00  0.00    +0.000 OA
ATOM     33  H   UNL     1      49.405  -5.989   8.920  0.00  0.00    +0.000 HD
ENDBRANCH  29  32
ENDBRANCH  28  29
ENDBRANCH  27  28
ENDBRANCH  24  26
ENDBRANCH   2  24
TORSDOF 9
ENDMDL
MODEL 3
REMARK VINA RESULT:      -7.0     22.526     26.257
REMARK  Name = Calcitriol.pdbqt.pdb
REMARK  9 active torsions:
REMARK  status: ('A' for Active; 'I' for Inactive)
REMARK    1  A    between atoms: C_2  and  C_24
REMARK    2  A    between atoms: C_7  and  C_11
REMARK    3  A    between atoms: C_12  and  C_13
REMARK    4  A    between atoms: C_16  and  O_20
REMARK    5  A    between atoms: C_18  and  O_22
REMARK    6  A    between atoms: C_24  and  C_26
REMARK    7  A    between atoms: C_27  and  C_28
REMARK    8  A    between atoms: C_28  and  C_29
REMARK    9  A    between atoms: C_29  and  O_32
REMARK                            x       y       z     vdW  Elec       q    Type
REMARK                         _______ _______ _______ _____ _____    ______ ____
ROOT
ATOM      1  C   UNL     1      49.594   0.776   8.239  0.00  0.00    +0.000 C 
ATOM      2  C   UNL     1      50.743   0.036   7.561  0.00  0.00    +0.000 C 
ATOM      3  C   UNL     1      50.348   1.991   9.008  0.00  0.00    +0.000 C 
ATOM      4  C   UNL     1      51.956   0.763   7.742  0.00  0.00    +0.000 C 
ATOM      5  C   UNL     1      51.719   1.975   8.602  0.00  0.00    +0.000 C 
ATOM      6  C   UNL     1      48.893  -0.004   9.273  0.00  0.00    +0.000 C 
ATOM      7  C   UNL     1      49.969   2.366  10.376  0.00  0.00    +0.000 C 
ATOM      8  C   UNL     1      48.653   1.428   7.187  0.00  0.00    +0.000 C 
ATOM      9  C   UNL     1      48.494   0.100  10.734  0.00  0.00    +0.000 C 
ATOM     10  C   UNL     1      49.151   1.426  11.057  0.00  0.00    +0.000 C 
ENDROOT
BRANCH   7  11
ATOM     11  C   UNL     1      50.439   3.395  11.010  0.00  0.00    +0.000 C 
ATOM     12  C   UNL     1      50.986   4.608  11.772  0.00  0.00    +0.000 C 
BRANCH  12  13
ATOM     13  C   UNL     1      51.447   5.631  12.425  0.00  0.00    +0.000 A 
ATOM     14  C   UNL     1      50.608   6.305  13.370  0.00  0.00    +0.000 A 
ATOM     15  C   UNL     1      52.796   6.262  12.266  0.00  0.00    +0.000 A 
ATOM     16  C   UNL     1      50.793   7.454  14.192  0.00  0.00    +0.000 A 
ATOM     17  C   UNL     1      52.102   7.951  13.934  0.00  0.00    +0.000 A 
ATOM     18  C   UNL     1      53.128   7.483  13.063  0.00  0.00    +0.000 A 
ATOM     19  C   UNL     1      53.726   5.761  11.432  0.00  0.00    +0.000 C 
BRANCH  16  20
ATOM     20  O   UNL     1      50.213   7.545  15.424  0.00  0.00    +0.000 OA
ATOM     21  H   UNL     1      50.880   7.517  16.130  0.00  0.00    +0.000 HD
ENDBRANCH  16  20
BRANCH  18  22
ATOM     22  O   UNL     1      54.352   8.102  12.966  0.00  0.00    +0.000 OA
ATOM     23  H   UNL     1      54.236   9.062  12.830  0.00  0.00    +0.000 HD
ENDBRANCH  18  22
ENDBRANCH  12  13
ENDBRANCH   7  11
BRANCH   2  24
ATOM     24  C   UNL     1      50.603  -1.117   6.729  0.00  0.00    +0.000 C 
ATOM     25  C   UNL     1      50.221  -2.474   7.262  0.00  0.00    +0.000 C 
BRANCH  24  26
ATOM     26  C   UNL     1      51.001  -1.091   5.364  0.00  0.00    +0.000 C 
ATOM     27  C   UNL     1      51.420  -1.076   3.889  0.00  0.00    +0.000 C 
BRANCH  27  28
ATOM     28  C   UNL     1      51.833  -1.072   2.411  0.00  0.00    +0.000 C 
BRANCH  28  29
ATOM     29  C   UNL     1      52.223  -1.065   1.002  0.00  0.00    +0.000 C 
ATOM     30  C   UNL     1      53.413  -0.140   0.718  0.00  0.00    +0.000 C 
ATOM     31  C   UNL     1      52.483  -2.467   0.441  0.00  0.00    +0.000 C 
BRANCH  29  32
ATOM     32  O   UNL     1      51.158  -0.551   0.233  0.00  0.00    +0.000 OA
ATOM     33  H   UNL     1      51.646   0.136  -0.245  0.00  0.00    +0.000 HD
ENDBRANCH  29  32
ENDBRANCH  28  29
ENDBRANCH  27  28
ENDBRANCH  24  26
ENDBRANCH   2  24
TORSDOF 9
ENDMDL
MODEL 4
REMARK VINA RESULT:      -6.6     20.589     23.318
REMARK  Name = Calcitriol.pdbqt.pdb
REMARK  9 active torsions:
REMARK  status: ('A' for Active; 'I' for Inactive)
REMARK    1  A    between atoms: C_2  and  C_24
REMARK    2  A    between atoms: C_7  and  C_11
REMARK    3  A    between atoms: C_12  and  C_13
REMARK    4  A    between atoms: C_16  and  O_20
REMARK    5  A    between atoms: C_18  and  O_22
REMARK    6  A    between atoms: C_24  and  C_26
REMARK    7  A    between atoms: C_27  and  C_28
REMARK    8  A    between atoms: C_28  and  C_29
REMARK    9  A    between atoms: C_29  and  O_32
REMARK                            x       y       z     vdW  Elec       q    Type
REMARK                         _______ _______ _______ _____ _____    ______ ____
ROOT
ATOM      1  C   UNL     1      51.418   6.201  12.397  0.00  0.00    +0.000 C 
ATOM      2  C   UNL     1      52.661   6.074  13.273  0.00  0.00    +0.000 C 
ATOM      3  C   UNL     1      51.441   4.826  11.533  0.00  0.00    +0.000 C 
ATOM      4  C   UNL     1      53.242   4.783  13.098  0.00  0.00    +0.000 C 
ATOM      5  C   UNL     1      52.487   4.003  12.057  0.00  0.00    +0.000 C 
ATOM      6  C   UNL     1      51.467   7.307  11.427  0.00  0.00    +0.000 C 
ATOM      7  C   UNL     1      51.134   4.835  10.097  0.00  0.00    +0.000 C 
ATOM      8  C   UNL     1      50.124   6.166  13.258  0.00  0.00    +0.000 C 
ATOM      9  C   UNL     1      51.314   7.552   9.937  0.00  0.00    +0.000 C 
ATOM     10  C   UNL     1      51.126   6.117   9.487  0.00  0.00    +0.000 C 
ENDROOT
BRANCH   7  11
ATOM     11  C   UNL     1      51.015   3.770   9.367  0.00  0.00    +0.000 C 
ATOM     12  C   UNL     1      50.860   2.513   8.502  0.00  0.00    +0.000 C 
BRANCH  12  13
ATOM     13  C   UNL     1      50.722   1.453   7.767  0.00  0.00    +0.000 A 
ATOM     14  C   UNL     1      50.286   0.227   8.366  0.00  0.00    +0.000 A 
ATOM     15  C   UNL     1      51.028   1.329   6.306  0.00  0.00    +0.000 A 
ATOM     16  C   UNL     1      50.084  -1.089   7.857  0.00  0.00    +0.000 A 
ATOM     17  C   UNL     1      50.419  -1.062   6.473  0.00  0.00    +0.000 A 
ATOM     18  C   UNL     1      50.867   0.000   5.637  0.00  0.00    +0.000 A 
ATOM     19  C   UNL     1      51.437   2.378   5.570  0.00  0.00    +0.000 C 
BRANCH  16  20
ATOM     20  O   UNL     1      49.100  -1.895   8.350  0.00  0.00    +0.000 OA
ATOM     21  H   UNL     1      48.227  -1.474   8.272  0.00  0.00    +0.000 HD
ENDBRANCH  16  20
BRANCH  18  22
ATOM     22  O   UNL     1      51.126  -0.173   4.298  0.00  0.00    +0.000 OA
ATOM     23  H   UNL     1      51.646  -0.988   4.157  0.00  0.00    +0.000 HD
ENDBRANCH  18  22
ENDBRANCH  12  13
ENDBRANCH   7  11
BRANCH   2  24
ATOM     24  C   UNL     1      53.085   7.031  14.245  0.00  0.00    +0.000 C 
ATOM     25  C   UNL     1      53.458   8.449  13.894  0.00  0.00    +0.000 C 
BRANCH  24  26
ATOM     26  C   UNL     1      53.360   6.644  15.586  0.00  0.00    +0.000 C 
ATOM     27  C   UNL     1      53.672   6.222  17.027  0.00  0.00    +0.000 C 
BRANCH  27  28
ATOM     28  C   UNL     1      53.996   5.795  18.464  0.00  0.00    +0.000 C 
BRANCH  28  29
ATOM     29  C   UNL     1      54.303   5.391  19.836  0.00  0.00    +0.000 C 
ATOM     30  C   UNL     1      55.621   4.615  19.947  0.00  0.00    +0.000 C 
ATOM     31  C   UNL     1      54.279   6.559  20.828  0.00  0.00    +0.000 C 
BRANCH  29  32
ATOM     32  O   UNL     1      53.305   4.502  20.287  0.00  0.00    +0.000 OA
ATOM     33  H   UNL     1      52.662   5.156  20.598  0.00  0.00    +0.000 HD
ENDBRANCH  29  32
ENDBRANCH  28  29
ENDBRANCH  27  28
ENDBRANCH  24  26
ENDBRANCH   2  24
TORSDOF 9
ENDMDL
MODEL 5
REMARK VINA RESULT:      -6.6      2.571      4.339
REMARK  Name = Calcitriol.pdbqt.pdb
REMARK  9 active torsions:
REMARK  status: ('A' for Active; 'I' for Inactive)
REMARK    1  A    between atoms: C_2  and  C_24
REMARK    2  A    between atoms: C_7  and  C_11
REMARK    3  A    between atoms: C_12  and  C_13
REMARK    4  A    between atoms: C_16  and  O_20
REMARK    5  A    between atoms: C_18  and  O_22
REMARK    6  A    between atoms: C_24  and  C_26
REMARK    7  A    between atoms: C_27  and  C_28
REMARK    8  A    between atoms: C_28  and  C_29
REMARK    9  A    between atoms: C_29  and  O_32
REMARK                            x       y       z     vdW  Elec       q    Type
REMARK                         _______ _______ _______ _____ _____    ______ ____
ROOT
ATOM      1  C   UNL     1      36.036  18.018  19.657  0.00  0.00    +0.000 C 
ATOM      2  C   UNL     1      35.810  19.221  20.567  0.00  0.00    +0.000 C 
ATOM      3  C   UNL     1      35.640  16.763  20.609  0.00  0.00    +0.000 C 
ATOM      4  C   UNL     1      35.222  18.792  21.794  0.00  0.00    +0.000 C 
ATOM      5  C   UNL     1      35.089  17.294  21.818  0.00  0.00    +0.000 C 
ATOM      6  C   UNL     1      37.437  17.813  19.255  0.00  0.00    +0.000 C 
ATOM      7  C   UNL     1      36.456  15.542  20.624  0.00  0.00    +0.000 C 
ATOM      8  C   UNL     1      35.026  18.016  18.474  0.00  0.00    +0.000 C 
ATOM      9  C   UNL     1      38.504  16.733  19.271  0.00  0.00    +0.000 C 
ATOM     10  C   UNL     1      37.731  15.659  20.010  0.00  0.00    +0.000 C 
ENDROOT
BRANCH   7  11
ATOM     11  C   UNL     1      36.142  14.459  21.263  0.00  0.00    +0.000 C 
ATOM     12  C   UNL     1      35.758  13.179  22.015  0.00  0.00    +0.000 C 
BRANCH  12  13
ATOM     13  C   UNL     1      35.424  12.095  22.646  0.00  0.00    +0.000 A 
ATOM     14  C   UNL     1      35.640  10.821  22.029  0.00  0.00    +0.000 A 
ATOM     15  C   UNL     1      34.758  12.007  23.984  0.00  0.00    +0.000 A 
ATOM     16  C   UNL     1      35.350   9.484  22.427  0.00  0.00    +0.000 A 
ATOM     17  C   UNL     1      34.717   9.550  23.700  0.00  0.00    +0.000 A 
ATOM     18  C   UNL     1      34.388  10.662  24.528  0.00  0.00    +0.000 A 
ATOM     19  C   UNL     1      34.486  13.099  24.722  0.00  0.00    +0.000 C 
BRANCH  16  20
ATOM     20  O   UNL     1      36.166   8.448  22.077  0.00  0.00    +0.000 OA
ATOM     21  H   UNL     1      37.099   8.719  22.073  0.00  0.00    +0.000 HD
ENDBRANCH  16  20
BRANCH  18  22
ATOM     22  O   UNL     1      33.782  10.517  25.753  0.00  0.00    +0.000 OA
ATOM     23  H   UNL     1      34.028   9.661  26.152  0.00  0.00    +0.000 HD
ENDBRANCH  18  22
ENDBRANCH  12  13
ENDBRANCH   7  11
BRANCH   2  24
ATOM     24  C   UNL     1      35.998  20.586  20.190  0.00  0.00    +0.000 C 
ATOM     25  C   UNL     1      37.081  21.458  20.772  0.00  0.00    +0.000 C 
BRANCH  24  26
ATOM     26  C   UNL     1      35.049  21.260  19.373  0.00  0.00    +0.000 C 
ATOM     27  C   UNL     1      34.038  21.995  18.484  0.00  0.00    +0.000 C 
BRANCH  27  28
ATOM     28  C   UNL     1      33.037  22.737  17.589  0.00  0.00    +0.000 C 
BRANCH  28  29
ATOM     29  C   UNL     1      32.084  23.448  16.738  0.00  0.00    +0.000 C 
ATOM     30  C   UNL     1      31.063  22.513  16.078  0.00  0.00    +0.000 C 
ATOM     31  C   UNL     1      31.375  24.600  17.457  0.00  0.00    +0.000 C 
BRANCH  29  32
ATOM     32  O   UNL     1      32.782  24.052  15.672  0.00  0.00    +0.000 OA
ATOM     33  H   UNL     1      32.774  24.965  15.995  0.00  0.00    +0.000 HD
ENDBRANCH  29  32
ENDBRANCH  28  29
ENDBRANCH  27  28
ENDBRANCH  24  26
ENDBRANCH   2  24
TORSDOF 9
ENDMDL
MODEL 6
REMARK VINA RESULT:      -6.6     19.080     20.955
REMARK  Name = Calcitriol.pdbqt.pdb
REMARK  9 active torsions:
REMARK  status: ('A' for Active; 'I' for Inactive)
REMARK    1  A    between atoms: C_2  and  C_24
REMARK    2  A    between atoms: C_7  and  C_11
REMARK    3  A    between atoms: C_12  and  C_13
REMARK    4  A    between atoms: C_16  and  O_20
REMARK    5  A    between atoms: C_18  and  O_22
REMARK    6  A    between atoms: C_24  and  C_26
REMARK    7  A    between atoms: C_27  and  C_28
REMARK    8  A    between atoms: C_28  and  C_29
REMARK    9  A    between atoms: C_29  and  O_32
REMARK                            x       y       z     vdW  Elec       q    Type
REMARK                         _______ _______ _______ _____ _____    ______ ____
ROOT
ATOM      1  C   UNL     1      36.561  20.577   0.632  0.00  0.00    +0.000 C 
ATOM      2  C   UNL     1      37.362  20.937   1.880  0.00  0.00    +0.000 C 
ATOM      3  C   UNL     1      35.597  19.378   1.153  0.00  0.00    +0.000 C 
ATOM      4  C   UNL     1      36.861  20.209   2.999  0.00  0.00    +0.000 C 
ATOM      5  C   UNL     1      35.764  19.274   2.570  0.00  0.00    +0.000 C 
ATOM      6  C   UNL     1      37.365  20.021  -0.468  0.00  0.00    +0.000 C 
ATOM      7  C   UNL     1      35.368  18.184   0.330  0.00  0.00    +0.000 C 
ATOM      8  C   UNL     1      35.629  21.748   0.212  0.00  0.00    +0.000 C 
ATOM      9  C   UNL     1      37.411  18.800  -1.370  0.00  0.00    +0.000 C 
ATOM     10  C   UNL     1      36.261  18.023  -0.763  0.00  0.00    +0.000 C 
ENDROOT
BRANCH   7  11
ATOM     11  C   UNL     1      34.525  17.244   0.621  0.00  0.00    +0.000 C 
ATOM     12  C   UNL     1      33.516  16.141   0.962  0.00  0.00    +0.000 C 
BRANCH  12  13
ATOM     13  C   UNL     1      32.656  15.211   1.246  0.00  0.00    +0.000 A 
ATOM     14  C   UNL     1      32.357  14.915   2.615  0.00  0.00    +0.000 A 
ATOM     15  C   UNL     1      31.941  14.325   0.272  0.00  0.00    +0.000 A 
ATOM     16  C   UNL     1      31.518  13.950   3.242  0.00  0.00    +0.000 A 
ATOM     17  C   UNL     1      30.913  13.180   2.209  0.00  0.00    +0.000 A 
ATOM     18  C   UNL     1      31.028  13.258   0.791  0.00  0.00    +0.000 A 
ATOM     19  C   UNL     1      32.085  14.461  -1.059  0.00  0.00    +0.000 C 
BRANCH  16  20
ATOM     20  O   UNL     1      30.871  14.228   4.412  0.00  0.00    +0.000 OA
ATOM     21  H   UNL     1      30.000  14.627   4.247  0.00  0.00    +0.000 HD
ENDBRANCH  16  20
BRANCH  18  22
ATOM     22  O   UNL     1      30.339  12.420  -0.053  0.00  0.00    +0.000 OA
ATOM     23  H   UNL     1      30.286  12.810  -0.947  0.00  0.00    +0.000 HD
ENDBRANCH  18  22
ENDBRANCH  12  13
ENDBRANCH   7  11
BRANCH   2  24
ATOM     24  C   UNL     1      38.350  21.967   1.956  0.00  0.00    +0.000 C 
ATOM     25  C   UNL     1      38.006  23.434   1.982  0.00  0.00    +0.000 C 
BRANCH  24  26
ATOM     26  C   UNL     1      39.733  21.669   1.823  0.00  0.00    +0.000 C 
ATOM     27  C   UNL     1      41.230  21.365   1.678  0.00  0.00    +0.000 C 
BRANCH  27  28
ATOM     28  C   UNL     1      42.729  21.073   1.531  0.00  0.00    +0.000 C 
BRANCH  28  29
ATOM     29  C   UNL     1      44.157  20.791   1.391  0.00  0.00    +0.000 C 
ATOM     30  C   UNL     1      44.550  20.404  -0.039  0.00  0.00    +0.000 C 
ATOM     31  C   UNL     1      45.050  21.925   1.908  0.00  0.00    +0.000 C 
BRANCH  29  32
ATOM     32  O   UNL     1      44.483  19.673   2.185  0.00  0.00    +0.000 OA
ATOM     33  H   UNL     1      45.374  19.509   1.841  0.00  0.00    +0.000 HD
ENDBRANCH  29  32
ENDBRANCH  28  29
ENDBRANCH  27  28
ENDBRANCH  24  26
ENDBRANCH   2  24
TORSDOF 9
ENDMDL
MODEL 7
REMARK VINA RESULT:      -6.5     22.975     25.925
REMARK  Name = Calcitriol.pdbqt.pdb
REMARK  9 active torsions:
REMARK  status: ('A' for Active; 'I' for Inactive)
REMARK    1  A    between atoms: C_2  and  C_24
REMARK    2  A    between atoms: C_7  and  C_11
REMARK    3  A    between atoms: C_12  and  C_13
REMARK    4  A    between atoms: C_16  and  O_20
REMARK    5  A    between atoms: C_18  and  O_22
REMARK    6  A    between atoms: C_24  and  C_26
REMARK    7  A    between atoms: C_27  and  C_28
REMARK    8  A    between atoms: C_28  and  C_29
REMARK    9  A    between atoms: C_29  and  O_32
REMARK                            x       y       z     vdW  Elec       q    Type
REMARK                         _______ _______ _______ _____ _____    ______ ____
ROOT
ATOM      1  C   UNL     1      54.545   8.375   4.438  0.00  0.00    +0.000 C 
ATOM      2  C   UNL     1      53.654   9.251   3.561  0.00  0.00    +0.000 C 
ATOM      3  C   UNL     1      53.541   7.913   5.627  0.00  0.00    +0.000 C 
ATOM      4  C   UNL     1      52.310   9.196   4.035  0.00  0.00    +0.000 C 
ATOM      5  C   UNL     1      52.226   8.358   5.281  0.00  0.00    +0.000 C 
ATOM      6  C   UNL     1      55.658   9.091   5.082  0.00  0.00    +0.000 C 
ATOM      7  C   UNL     1      53.988   7.894   7.025  0.00  0.00    +0.000 C 
ATOM      8  C   UNL     1      54.970   7.083   3.685  0.00  0.00    +0.000 C 
ATOM      9  C   UNL     1      56.242   9.325   6.464  0.00  0.00    +0.000 C 
ATOM     10  C   UNL     1      55.206   8.580   7.280  0.00  0.00    +0.000 C 
ENDROOT
BRANCH   7  11
ATOM     11  C   UNL     1      53.289   7.428   8.012  0.00  0.00    +0.000 C 
ATOM     12  C   UNL     1      52.454   6.888   9.179  0.00  0.00    +0.000 C 
BRANCH  12  13
ATOM     13  C   UNL     1      51.738   6.435  10.163  0.00  0.00    +0.000 A 
ATOM     14  C   UNL     1      51.686   7.164  11.395  0.00  0.00    +0.000 A 
ATOM     15  C   UNL     1      50.967   5.152  10.194  0.00  0.00    +0.000 A 
ATOM     16  C   UNL     1      51.049   6.919  12.646  0.00  0.00    +0.000 A 
ATOM     17  C   UNL     1      50.365   5.675  12.535  0.00  0.00    +0.000 A 
ATOM     18  C   UNL     1      50.250   4.762  11.448  0.00  0.00    +0.000 A 
ATOM     19  C   UNL     1      50.888   4.339   9.125  0.00  0.00    +0.000 C 
BRANCH  16  20
ATOM     20  O   UNL     1      50.570   7.944  13.409  0.00  0.00    +0.000 OA
ATOM     21  H   UNL     1      49.643   7.794  13.659  0.00  0.00    +0.000 HD
ENDBRANCH  16  20
BRANCH  18  22
ATOM     22  O   UNL     1      49.519   3.601  11.534  0.00  0.00    +0.000 OA
ATOM     23  H   UNL     1      48.624   3.738  11.169  0.00  0.00    +0.000 HD
ENDBRANCH  18  22
ENDBRANCH  12  13
ENDBRANCH   7  11
BRANCH   2  24
ATOM     24  C   UNL     1      54.065   9.893   2.352  0.00  0.00    +0.000 C 
ATOM     25  C   UNL     1      54.323  11.375   2.256  0.00  0.00    +0.000 C 
BRANCH  24  26
ATOM     26  C   UNL     1      54.073   9.193   1.115  0.00  0.00    +0.000 C 
ATOM     27  C   UNL     1      54.086   8.423  -0.212  0.00  0.00    +0.000 C 
BRANCH  27  28
ATOM     28  C   UNL     1      54.103   7.643  -1.532  0.00  0.00    +0.000 C 
BRANCH  28  29
ATOM     29  C   UNL     1      54.118   6.895  -2.790  0.00  0.00    +0.000 C 
ATOM     30  C   UNL     1      54.781   7.669  -3.935  0.00  0.00    +0.000 C 
ATOM     31  C   UNL     1      54.735   5.499  -2.654  0.00  0.00    +0.000 C 
BRANCH  29  32
ATOM     32  O   UNL     1      52.789   6.673  -3.207  0.00  0.00    +0.000 OA
ATOM     33  H   UNL     1      52.664   5.793  -2.822  0.00  0.00    +0.000 HD
ENDBRANCH  29  32
ENDBRANCH  28  29
ENDBRANCH  27  28
ENDBRANCH  24  26
ENDBRANCH   2  24
TORSDOF 9
ENDMDL
MODEL 8
REMARK VINA RESULT:      -6.5     18.562     25.220
REMARK  Name = Calcitriol.pdbqt.pdb
REMARK  9 active torsions:
REMARK  status: ('A' for Active; 'I' for Inactive)
REMARK    1  A    between atoms: C_2  and  C_24
REMARK    2  A    between atoms: C_7  and  C_11
REMARK    3  A    between atoms: C_12  and  C_13
REMARK    4  A    between atoms: C_16  and  O_20
REMARK    5  A    between atoms: C_18  and  O_22
REMARK    6  A    between atoms: C_24  and  C_26
REMARK    7  A    between atoms: C_27  and  C_28
REMARK    8  A    between atoms: C_28  and  C_29
REMARK    9  A    between atoms: C_29  and  O_32
REMARK                            x       y       z     vdW  Elec       q    Type
REMARK                         _______ _______ _______ _____ _____    ______ ____
ROOT
ATOM      1  C   UNL     1      43.509  -5.852  14.173  0.00  0.00    +0.000 C 
ATOM      2  C   UNL     1      43.097  -7.145  14.870  0.00  0.00    +0.000 C 
ATOM      3  C   UNL     1      42.640  -4.724  14.955  0.00  0.00    +0.000 C 
ATOM      4  C   UNL     1      42.261  -6.844  15.985  0.00  0.00    +0.000 C 
ATOM      5  C   UNL     1      41.998  -5.365  16.062  0.00  0.00    +0.000 C 
ATOM      6  C   UNL     1      43.119  -5.773  12.756  0.00  0.00    +0.000 C 
ATOM      7  C   UNL     1      41.976  -3.641  14.221  0.00  0.00    +0.000 C 
ATOM      8  C   UNL     1      45.006  -5.527  14.440  0.00  0.00    +0.000 C 
ATOM      9  C   UNL     1      42.358  -4.860  11.810  0.00  0.00    +0.000 C 
ATOM     10  C   UNL     1      41.893  -3.826  12.815  0.00  0.00    +0.000 C 
ENDROOT
BRANCH   7  11
ATOM     11  C   UNL     1      41.368  -2.642  14.779  0.00  0.00    +0.000 C 
ATOM     12  C   UNL     1      40.657  -1.452  15.433  0.00  0.00    +0.000 C 
BRANCH  12  13
ATOM     13  C   UNL     1      40.057  -0.438  15.980  0.00  0.00    +0.000 A 
ATOM     14  C   UNL     1      40.174   0.860  15.385  0.00  0.00    +0.000 A 
ATOM     15  C   UNL     1      39.265  -0.444  17.251  0.00  0.00    +0.000 A 
ATOM     16  C   UNL     1      39.690   2.148  15.754  0.00  0.00    +0.000 A 
ATOM     17  C   UNL     1      38.969   1.995  16.972  0.00  0.00    +0.000 A 
ATOM     18  C   UNL     1      38.699   0.842  17.764  0.00  0.00    +0.000 A 
ATOM     19  C   UNL     1      39.036  -1.574  17.945  0.00  0.00    +0.000 C 
BRANCH  16  20
ATOM     20  O   UNL     1      39.332   3.067  14.810  0.00  0.00    +0.000 OA
ATOM     21  H   UNL     1      38.460   3.449  15.004  0.00  0.00    +0.000 HD
ENDBRANCH  16  20
BRANCH  18  22
ATOM     22  O   UNL     1      37.957   0.898  18.920  0.00  0.00    +0.000 OA
ATOM     23  H   UNL     1      37.728  -0.004  19.218  0.00  0.00    +0.000 HD
ENDBRANCH  18  22
ENDBRANCH  12  13
ENDBRANCH   7  11
BRANCH   2  24
ATOM     24  C   UNL     1      43.604  -8.444  14.562  0.00  0.00    +0.000 C 
ATOM     25  C   UNL     1      43.237  -9.677  15.347  0.00  0.00    +0.000 C 
BRANCH  24  26
ATOM     26  C   UNL     1      44.639  -8.621  13.602  0.00  0.00    +0.000 C 
ATOM     27  C   UNL     1      45.765  -8.816  12.580  0.00  0.00    +0.000 C 
BRANCH  27  28
ATOM     28  C   UNL     1      46.900  -9.016  11.567  0.00  0.00    +0.000 C 
BRANCH  28  29
ATOM     29  C   UNL     1      47.983  -9.209  10.603  0.00  0.00    +0.000 C 
ATOM     30  C   UNL     1      49.296  -9.645  11.263  0.00  0.00    +0.000 C 
ATOM     31  C   UNL     1      47.611 -10.161   9.461  0.00  0.00    +0.000 C 
BRANCH  29  32
ATOM     32  O   UNL     1      48.267  -7.977   9.979  0.00  0.00    +0.000 OA
ATOM     33  H   UNL     1      47.378  -7.594  10.008  0.00  0.00    +0.000 HD
ENDBRANCH  29  32
ENDBRANCH  28  29
ENDBRANCH  27  28
ENDBRANCH  24  26
ENDBRANCH   2  24
TORSDOF 9
ENDMDL
MODEL 9
REMARK VINA RESULT:      -6.5     11.568     16.555
REMARK  Name = Calcitriol.pdbqt.pdb
REMARK  9 active torsions:
REMARK  status: ('A' for Active; 'I' for Inactive)
REMARK    1  A    between atoms: C_2  and  C_24
REMARK    2  A    between atoms: C_7  and  C_11
REMARK    3  A    between atoms: C_12  and  C_13
REMARK    4  A    between atoms: C_16  and  O_20
REMARK    5  A    between atoms: C_18  and  O_22
REMARK    6  A    between atoms: C_24  and  C_26
REMARK    7  A    between atoms: C_27  and  C_28
REMARK    8  A    between atoms: C_28  and  C_29
REMARK    9  A    between atoms: C_29  and  O_32
REMARK                            x       y       z     vdW  Elec       q    Type
REMARK                         _______ _______ _______ _____ _____    ______ ____
ROOT
ATOM      1  C   UNL     1      41.370   2.186  22.071  0.00  0.00    +0.000 C 
ATOM      2  C   UNL     1      42.879   2.326  22.247  0.00  0.00    +0.000 C 
ATOM      3  C   UNL     1      41.237   1.481  20.615  0.00  0.00    +0.000 C 
ATOM      4  C   UNL     1      43.550   1.673  21.171  0.00  0.00    +0.000 C 
ATOM      5  C   UNL     1      42.555   1.129  20.183  0.00  0.00    +0.000 C 
ATOM      6  C   UNL     1      40.645   3.465  21.986  0.00  0.00    +0.000 C 
ATOM      7  C   UNL     1      40.221   1.925  19.653  0.00  0.00    +0.000 C 
ATOM      8  C   UNL     1      40.779   1.188  23.106  0.00  0.00    +0.000 C 
ATOM      9  C   UNL     1      39.672   4.189  21.073  0.00  0.00    +0.000 C 
ATOM     10  C   UNL     1      39.602   3.167  19.956  0.00  0.00    +0.000 C 
ENDROOT
BRANCH   7  11
ATOM     11  C   UNL     1      39.975   1.339  18.523  0.00  0.00    +0.000 C 
ATOM     12  C   UNL     1      39.697   0.639  17.188  0.00  0.00    +0.000 C 
BRANCH  12  13
ATOM     13  C   UNL     1      39.468   0.040  16.059  0.00  0.00    +0.000 A 
ATOM     14  C   UNL     1      39.213  -1.370  16.043  0.00  0.00    +0.000 A 
ATOM     15  C   UNL     1      39.493   0.658  14.695  0.00  0.00    +0.000 A 
ATOM     16  C   UNL     1      38.977  -2.306  14.995  0.00  0.00    +0.000 A 
ATOM     17  C   UNL     1      39.037  -1.588  13.767  0.00  0.00    +0.000 A 
ATOM     18  C   UNL     1      39.267  -0.209  13.497  0.00  0.00    +0.000 A 
ATOM     19  C   UNL     1      39.704   1.974  14.511  0.00  0.00    +0.000 C 
BRANCH  16  20
ATOM     20  O   UNL     1      38.144  -3.372  15.172  0.00  0.00    +0.000 OA
ATOM     21  H   UNL     1      37.381  -3.326  14.571  0.00  0.00    +0.000 HD
ENDBRANCH  16  20
BRANCH  18  22
ATOM     22  O   UNL     1      39.271   0.303  12.221  0.00  0.00    +0.000 OA
ATOM     23  H   UNL     1      40.171   0.592  11.975  0.00  0.00    +0.000 HD
ENDBRANCH  18  22
ENDBRANCH  12  13
ENDBRANCH   7  11
BRANCH   2  24
ATOM     24  C   UNL     1      43.527   2.878  23.394  0.00  0.00    +0.000 C 
ATOM     25  C   UNL     1      44.559   2.125  24.196  0.00  0.00    +0.000 C 
BRANCH  24  26
ATOM     26  C   UNL     1      43.097   4.109  23.961  0.00  0.00    +0.000 C 
ATOM     27  C   UNL     1      42.642   5.434  24.585  0.00  0.00    +0.000 C 
BRANCH  27  28
ATOM     28  C   UNL     1      42.195   6.756  25.221  0.00  0.00    +0.000 C 
BRANCH  28  29
ATOM     29  C   UNL     1      41.763   8.015  25.827  0.00  0.00    +0.000 C 
ATOM     30  C   UNL     1      42.209   8.157  27.288  0.00  0.00    +0.000 C 
ATOM     31  C   UNL     1      42.176   9.248  25.015  0.00  0.00    +0.000 C 
BRANCH  29  32
ATOM     32  O   UNL     1      40.354   8.049  25.860  0.00  0.00    +0.000 OA
ATOM     33  H   UNL     1      40.182   7.700  24.973  0.00  0.00    +0.000 HD
ENDBRANCH  29  32
ENDBRANCH  28  29
ENDBRANCH  27  28
ENDBRANCH  24  26
ENDBRANCH   2  24
TORSDOF 9
ENDMDL
