MODEL 1
REMARK VINA RESULT:      -7.9      0.000      0.000
REMARK  Name = 
REMARK  17 active torsions:
REMARK  status: ('A' for Active; 'I' for Inactive)
REMARK    1  A    between atoms: O_1  and  C_14
REMARK    2  A    between atoms: O_2  and  C_32
REMARK    3  A    between atoms: O_2  and  C_36
REMARK    4  A    between atoms: O_6  and  C_39
REMARK    5  A    between atoms: O_7  and  C_41
REMARK    6  A    between atoms: O_7  and  C_43
REMARK    7  A    between atoms: O_9  and  C_47
REMARK    8  A    between atoms: O_9  and  C_49
REMARK    9  A    between atoms: O_10  and  C_45
REMARK   10  A    between atoms: O_12  and  C_51
REMARK   11  A    between atoms: O_13  and  C_53
REMARK   12  A    between atoms: C_17  and  C_29
REMARK   13  A    between atoms: C_18  and  C_30
REMARK   14  A    between atoms: C_22  and  C_33
REMARK   15  A    between atoms: C_40  and  C_42
REMARK   16  A    between atoms: C_46  and  C_48
REMARK   17  A    between atoms: C_52  and  C_54
REMARK                            x       y       z     vdW  Elec       q    Type
REMARK                         _______ _______ _______ _____ _____    ______ ____
ROOT
ATOM      1  O   UNL     1      41.263   0.755  21.853  0.00  0.00    +0.000 OA
ATOM      2  C   UNL     1      40.774  -0.359  21.111  0.00  0.00    +0.000 C 
ATOM      3  C   UNL     1      39.299  -0.202  20.731  0.00  0.00    +0.000 C 
ATOM      4  C   UNL     1      38.794   1.202  21.028  0.00  0.00    +0.000 C 
ATOM      5  C   UNL     1      41.219   1.976  21.104  0.00  0.00    +0.000 C 
ATOM      6  C   UNL     1      39.784   2.317  20.637  0.00  0.00    +0.000 C 
ATOM      7  C   UNL     1      41.779   3.070  22.013  0.00  0.00    +0.000 C 
ENDROOT
BRANCH   4   8
ATOM      8  O   UNL     1      37.482   1.406  20.515  0.00  0.00    +0.000 OA
ATOM      9  H   UNL     1      37.116   0.515  20.333  0.00  0.00    +0.000 HD
ENDBRANCH   4   8
BRANCH   2  10
ATOM     10  O   UNL     1      41.003  -1.596  21.786  0.00  0.00    +0.000 OA
BRANCH  10  29
ATOM     11  C   UNL     1      44.320  -6.849  17.101  0.00  0.00    +0.000 C 
ATOM     12  C   UNL     1      43.670  -5.756  17.992  0.00  0.00    +0.000 C 
ATOM     13  C   UNL     1      42.290  -5.275  17.475  0.00  0.00    +0.000 C 
ATOM     14  C   UNL     1      43.372  -8.030  16.745  0.00  0.00    +0.000 C 
ATOM     15  C   UNL     1      41.628  -4.165  18.389  0.00  0.00    +0.000 C 
ATOM     16  C   UNL     1      42.658  -3.022  18.674  0.00  0.00    +0.000 C 
ATOM     17  C   UNL     1      41.375  -6.491  17.217  0.00  0.00    +0.000 C 
ATOM     18  C   UNL     1      42.007  -7.492  16.250  0.00  0.00    +0.000 C 
ATOM     19  C   UNL     1      44.176  -8.732  15.604  0.00  0.00    +0.000 C 
ATOM     20  C   UNL     1      44.615  -4.562  18.193  0.00  0.00    +0.000 C 
ATOM     21  C   UNL     1      44.818  -6.353  15.732  0.00  0.00    +0.000 C 
ATOM     22  C   UNL     1      44.020  -3.550  19.159  0.00  0.00    +0.000 C 
ATOM     23  C   UNL     1      44.769  -7.563  14.791  0.00  0.00    +0.000 C 
ATOM     24  C   UNL     1      41.108  -4.748  19.733  0.00  0.00    +0.000 C 
ATOM     25  C   UNL     1      42.129  -1.979  19.680  0.00  0.00    +0.000 C 
ATOM     26  C   UNL     1      43.149  -8.983  17.936  0.00  0.00    +0.000 C 
ATOM     27  C   UNL     1      40.424  -3.563  17.611  0.00  0.00    +0.000 C 
ATOM     28  C   UNL     1      40.594  -3.687  20.706  0.00  0.00    +0.000 C 
ATOM     29  C   UNL     1      41.633  -2.604  20.988  0.00  0.00    +0.000 C 
BRANCH  19  32
ATOM     30  O   UNL     1      42.582 -11.851  14.287  0.00  0.00    +0.000 OA
ATOM     31  O   UNL     1      41.893 -11.302  12.166  0.00  0.00    +0.000 OA
ATOM     32  C   UNL     1      43.453  -9.779  14.800  0.00  0.00    +0.000 C 
ATOM     33  C   UNL     1      43.235 -11.145  15.340  0.00  0.00    +0.000 C 
ATOM     34  C   UNL     1      42.987  -9.711  13.553  0.00  0.00    +0.000 C 
ATOM     35  C   UNL     1      42.421 -11.018  13.226  0.00  0.00    +0.000 C 
ENDBRANCH  19  32
BRANCH  11  36
ATOM     36  O   UNL     1      45.482  -7.360  17.777  0.00  0.00    +0.000 OA
ATOM     37  H   UNL     1      45.312  -7.352  18.734  0.00  0.00    +0.000 HD
ENDBRANCH  11  36
ENDBRANCH  10  29
ENDBRANCH   2  10
BRANCH   6  38
ATOM     38  O   UNL     1      39.761   2.875  19.320  0.00  0.00    +0.000 OA
BRANCH  38  40
ATOM     39  O   UNL     1      41.030   1.504  17.856  0.00  0.00    +0.000 OA
ATOM     40  C   UNL     1      39.780   2.131  18.111  0.00  0.00    +0.000 C 
ATOM     41  C   UNL     1      39.256   2.858  16.876  0.00  0.00    +0.000 C 
ATOM     42  C   UNL     1      39.943   2.399  15.593  0.00  0.00    +0.000 C 
ATOM     43  C   UNL     1      40.886   0.421  16.918  0.00  0.00    +0.000 C 
ATOM     44  C   UNL     1      40.322   0.905  15.558  0.00  0.00    +0.000 C 
ATOM     45  C   UNL     1      42.270  -0.202  16.750  0.00  0.00    +0.000 C 
BRANCH  42  46
ATOM     46  O   UNL     1      39.190   2.788  14.446  0.00  0.00    +0.000 OA
ATOM     47  H   UNL     1      38.310   2.377  14.505  0.00  0.00    +0.000 HD
ENDBRANCH  42  46
BRANCH  44  48
ATOM     48  O   UNL     1      39.365  -0.017  15.022  0.00  0.00    +0.000 OA
BRANCH  48  50
ATOM     49  O   UNL     1      40.652  -1.890  14.430  0.00  0.00    +0.000 OA
ATOM     50  C   UNL     1      39.761  -0.882  13.965  0.00  0.00    +0.000 C 
ATOM     51  C   UNL     1      40.485  -0.012  12.932  0.00  0.00    +0.000 C 
ATOM     52  C   UNL     1      41.533  -0.797  12.146  0.00  0.00    +0.000 C 
ATOM     53  C   UNL     1      40.946  -2.883  13.430  0.00  0.00    +0.000 C 
ATOM     54  C   UNL     1      41.145  -2.272  12.031  0.00  0.00    +0.000 C 
ATOM     55  C   UNL     1      42.204  -3.601  13.905  0.00  0.00    +0.000 C 
BRANCH  52  56
ATOM     56  O   UNL     1      41.639  -0.235  10.832  0.00  0.00    +0.000 OA
ATOM     57  H   UNL     1      40.872  -0.545  10.318  0.00  0.00    +0.000 HD
ENDBRANCH  52  56
BRANCH  54  58
ATOM     58  O   UNL     1      39.908  -2.356  11.300  0.00  0.00    +0.000 OA
ATOM     59  H   UNL     1      39.773  -3.308  11.113  0.00  0.00    +0.000 HD
ENDBRANCH  54  58
ENDBRANCH  48  50
ENDBRANCH  44  48
ENDBRANCH  38  40
ENDBRANCH   6  38
TORSDOF 12
ENDMDL
MODEL 2
REMARK VINA RESULT:      -7.5     13.713     19.875
REMARK  Name = 
REMARK  17 active torsions:
REMARK  status: ('A' for Active; 'I' for Inactive)
REMARK    1  A    between atoms: O_1  and  C_14
REMARK    2  A    between atoms: O_2  and  C_32
REMARK    3  A    between atoms: O_2  and  C_36
REMARK    4  A    between atoms: O_6  and  C_39
REMARK    5  A    between atoms: O_7  and  C_41
REMARK    6  A    between atoms: O_7  and  C_43
REMARK    7  A    between atoms: O_9  and  C_47
REMARK    8  A    between atoms: O_9  and  C_49
REMARK    9  A    between atoms: O_10  and  C_45
REMARK   10  A    between atoms: O_12  and  C_51
REMARK   11  A    between atoms: O_13  and  C_53
REMARK   12  A    between atoms: C_17  and  C_29
REMARK   13  A    between atoms: C_18  and  C_30
REMARK   14  A    between atoms: C_22  and  C_33
REMARK   15  A    between atoms: C_40  and  C_42
REMARK   16  A    between atoms: C_46  and  C_48
REMARK   17  A    between atoms: C_52  and  C_54
REMARK                            x       y       z     vdW  Elec       q    Type
REMARK                         _______ _______ _______ _____ _____    ______ ____
ROOT
ATOM      1  O   UNL     1      32.321   7.911  24.049  0.00  0.00    +0.000 OA
ATOM      2  C   UNL     1      33.323   8.209  23.080  0.00  0.00    +0.000 C 
ATOM      3  C   UNL     1      33.961   6.947  22.495  0.00  0.00    +0.000 C 
ATOM      4  C   UNL     1      33.203   5.695  22.913  0.00  0.00    +0.000 C 
ATOM      5  C   UNL     1      31.219   7.184  23.493  0.00  0.00    +0.000 C 
ATOM      6  C   UNL     1      31.670   5.847  22.858  0.00  0.00    +0.000 C 
ATOM      7  C   UNL     1      30.229   6.947  24.633  0.00  0.00    +0.000 C 
ENDROOT
BRANCH   4   8
ATOM      8  O   UNL     1      33.682   4.541  22.232  0.00  0.00    +0.000 OA
ATOM      9  H   UNL     1      33.910   3.887  22.926  0.00  0.00    +0.000 HD
ENDBRANCH   4   8
BRANCH   2  10
ATOM     10  O   UNL     1      34.316   9.099  23.590  0.00  0.00    +0.000 OA
BRANCH  10  29
ATOM     11  C   UNL     1      33.610  16.385  20.952  0.00  0.00    +0.000 C 
ATOM     12  C   UNL     1      33.736  14.910  21.420  0.00  0.00    +0.000 C 
ATOM     13  C   UNL     1      35.003  14.197  20.883  0.00  0.00    +0.000 C 
ATOM     14  C   UNL     1      34.900  17.231  21.151  0.00  0.00    +0.000 C 
ATOM     15  C   UNL     1      35.131  12.695  21.368  0.00  0.00    +0.000 C 
ATOM     16  C   UNL     1      33.788  11.933  21.111  0.00  0.00    +0.000 C 
ATOM     17  C   UNL     1      36.252  15.052  21.183  0.00  0.00    +0.000 C 
ATOM     18  C   UNL     1      36.133  16.465  20.612  0.00  0.00    +0.000 C 
ATOM     19  C   UNL     1      34.571  18.494  20.292  0.00  0.00    +0.000 C 
ATOM     20  C   UNL     1      32.476  14.102  21.073  0.00  0.00    +0.000 C 
ATOM     21  C   UNL     1      33.282  16.562  19.459  0.00  0.00    +0.000 C 
ATOM     22  C   UNL     1      32.558  12.693  21.636  0.00  0.00    +0.000 C 
ATOM     23  C   UNL     1      33.855  17.925  19.051  0.00  0.00    +0.000 C 
ATOM     24  C   UNL     1      35.509  12.596  22.872  0.00  0.00    +0.000 C 
ATOM     25  C   UNL     1      33.792  10.505  21.693  0.00  0.00    +0.000 C 
ATOM     26  C   UNL     1      35.132  17.609  22.628  0.00  0.00    +0.000 C 
ATOM     27  C   UNL     1      36.252  12.018  20.530  0.00  0.00    +0.000 C 
ATOM     28  C   UNL     1      35.500  11.167  23.416  0.00  0.00    +0.000 C 
ATOM     29  C   UNL     1      34.166  10.462  23.177  0.00  0.00    +0.000 C 
BRANCH  19  32
ATOM     30  O   UNL     1      37.578  20.275  18.951  0.00  0.00    +0.000 OA
ATOM     31  O   UNL     1      37.903  22.033  20.392  0.00  0.00    +0.000 OA
ATOM     32  C   UNL     1      35.704  19.443  20.008  0.00  0.00    +0.000 C 
ATOM     33  C   UNL     1      36.618  19.222  18.859  0.00  0.00    +0.000 C 
ATOM     34  C   UNL     1      36.108  20.507  20.703  0.00  0.00    +0.000 C 
ATOM     35  C   UNL     1      37.288  21.047  20.030  0.00  0.00    +0.000 C 
ENDBRANCH  19  32
BRANCH  11  36
ATOM     36  O   UNL     1      32.524  17.001  21.665  0.00  0.00    +0.000 OA
ATOM     37  H   UNL     1      31.751  16.412  21.621  0.00  0.00    +0.000 HD
ENDBRANCH  11  36
ENDBRANCH  10  29
ENDBRANCH   2  10
BRANCH   6  38
ATOM     38  O   UNL     1      30.957   5.552  21.653  0.00  0.00    +0.000 OA
BRANCH  38  40
ATOM     39  O   UNL     1      29.173   4.172  22.390  0.00  0.00    +0.000 OA
ATOM     40  C   UNL     1      30.188   4.381  21.418  0.00  0.00    +0.000 C 
ATOM     41  C   UNL     1      30.985   3.107  21.156  0.00  0.00    +0.000 C 
ATOM     42  C   UNL     1      30.261   1.856  21.646  0.00  0.00    +0.000 C 
ATOM     43  C   UNL     1      28.152   3.287  21.891  0.00  0.00    +0.000 C 
ATOM     44  C   UNL     1      28.726   1.898  21.511  0.00  0.00    +0.000 C 
ATOM     45  C   UNL     1      27.100   3.165  22.991  0.00  0.00    +0.000 C 
BRANCH  42  46
ATOM     46  O   UNL     1      30.819   0.683  21.057  0.00  0.00    +0.000 OA
ATOM     47  H   UNL     1      31.591   0.945  20.525  0.00  0.00    +0.000 HD
ENDBRANCH  42  46
BRANCH  44  48
ATOM     48  O   UNL     1      28.146   1.397  20.300  0.00  0.00    +0.000 OA
BRANCH  48  50
ATOM     49  O   UNL     1      26.376   1.588  18.769  0.00  0.00    +0.000 OA
ATOM     50  C   UNL     1      27.392   2.283  19.481  0.00  0.00    +0.000 C 
ATOM     51  C   UNL     1      28.375   2.899  18.479  0.00  0.00    +0.000 C 
ATOM     52  C   UNL     1      27.697   3.282  17.166  0.00  0.00    +0.000 C 
ATOM     53  C   UNL     1      25.487   2.469  18.058  0.00  0.00    +0.000 C 
ATOM     54  C   UNL     1      26.226   3.642  17.388  0.00  0.00    +0.000 C 
ATOM     55  C   UNL     1      24.768   1.605  17.028  0.00  0.00    +0.000 C 
BRANCH  52  56
ATOM     56  O   UNL     1      28.378   4.414  16.609  0.00  0.00    +0.000 OA
ATOM     57  H   UNL     1      29.072   4.678  17.240  0.00  0.00    +0.000 HD
ENDBRANCH  52  56
BRANCH  54  58
ATOM     58  O   UNL     1      26.170   4.791  18.251  0.00  0.00    +0.000 OA
ATOM     59  H   UNL     1      25.222   4.919  18.462  0.00  0.00    +0.000 HD
ENDBRANCH  54  58
ENDBRANCH  48  50
ENDBRANCH  44  48
ENDBRANCH  38  40
ENDBRANCH   6  38
TORSDOF 12
ENDMDL
MODEL 3
REMARK VINA RESULT:      -7.4     13.566     17.224
REMARK  Name = 
REMARK  17 active torsions:
REMARK  status: ('A' for Active; 'I' for Inactive)
REMARK    1  A    between atoms: O_1  and  C_14
REMARK    2  A    between atoms: O_2  and  C_32
REMARK    3  A    between atoms: O_2  and  C_36
REMARK    4  A    between atoms: O_6  and  C_39
REMARK    5  A    between atoms: O_7  and  C_41
REMARK    6  A    between atoms: O_7  and  C_43
REMARK    7  A    between atoms: O_9  and  C_47
REMARK    8  A    between atoms: O_9  and  C_49
REMARK    9  A    between atoms: O_10  and  C_45
REMARK   10  A    between atoms: O_12  and  C_51
REMARK   11  A    between atoms: O_13  and  C_53
REMARK   12  A    between atoms: C_17  and  C_29
REMARK   13  A    between atoms: C_18  and  C_30
REMARK   14  A    between atoms: C_22  and  C_33
REMARK   15  A    between atoms: C_40  and  C_42
REMARK   16  A    between atoms: C_46  and  C_48
REMARK   17  A    between atoms: C_52  and  C_54
REMARK                            x       y       z     vdW  Elec       q    Type
REMARK                         _______ _______ _______ _____ _____    ______ ____
ROOT
ATOM      1  O   UNL     1      53.768   7.160   3.060  0.00  0.00    +0.000 OA
ATOM      2  C   UNL     1      54.387   5.965   3.528  0.00  0.00    +0.000 C 
ATOM      3  C   UNL     1      55.711   6.238   4.246  0.00  0.00    +0.000 C 
ATOM      4  C   UNL     1      55.914   7.725   4.493  0.00  0.00    +0.000 C 
ATOM      5  C   UNL     1      53.413   8.048   4.127  0.00  0.00    +0.000 C 
ATOM      6  C   UNL     1      54.643   8.457   4.972  0.00  0.00    +0.000 C 
ATOM      7  C   UNL     1      52.756   9.268   3.483  0.00  0.00    +0.000 C 
ENDROOT
BRANCH   4   8
ATOM      8  O   UNL     1      57.050   7.970   5.314  0.00  0.00    +0.000 OA
ATOM      9  H   UNL     1      56.723   7.992   6.238  0.00  0.00    +0.000 HD
ENDBRANCH   4   8
BRANCH   2  10
ATOM     10  O   UNL     1      54.556   5.003   2.486  0.00  0.00    +0.000 OA
BRANCH  10  29
ATOM     11  C   UNL     1      51.367  -1.840   4.369  0.00  0.00    +0.000 C 
ATOM     12  C   UNL     1      51.957  -0.445   4.026  0.00  0.00    +0.000 C 
ATOM     13  C   UNL     1      52.650   0.246   5.228  0.00  0.00    +0.000 C 
ATOM     14  C   UNL     1      52.352  -2.785   5.113  0.00  0.00    +0.000 C 
ATOM     15  C   UNL     1      53.255   1.666   4.872  0.00  0.00    +0.000 C 
ATOM     16  C   UNL     1      52.181   2.538   4.141  0.00  0.00    +0.000 C 
ATOM     17  C   UNL     1      53.669  -0.718   5.870  0.00  0.00    +0.000 C 
ATOM     18  C   UNL     1      53.025  -2.039   6.292  0.00  0.00    +0.000 C 
ATOM     19  C   UNL     1      51.384  -3.908   5.605  0.00  0.00    +0.000 C 
ATOM     20  C   UNL     1      50.892   0.479   3.415  0.00  0.00    +0.000 C 
ATOM     21  C   UNL     1      50.128  -1.809   5.282  0.00  0.00    +0.000 C 
ATOM     22  C   UNL     1      51.502   1.800   2.974  0.00  0.00    +0.000 C 
ATOM     23  C   UNL     1      50.115  -3.145   6.035  0.00  0.00    +0.000 C 
ATOM     24  C   UNL     1      54.529   1.553   3.988  0.00  0.00    +0.000 C 
ATOM     25  C   UNL     1      52.748   3.880   3.635  0.00  0.00    +0.000 C 
ATOM     26  C   UNL     1      53.437  -3.357   4.178  0.00  0.00    +0.000 C 
ATOM     27  C   UNL     1      53.638   2.367   6.206  0.00  0.00    +0.000 C 
ATOM     28  C   UNL     1      55.061   2.901   3.502  0.00  0.00    +0.000 C 
ATOM     29  C   UNL     1      53.998   3.715   2.765  0.00  0.00    +0.000 C 
BRANCH  19  32
ATOM     30  O   UNL     1      52.947  -6.799   7.396  0.00  0.00    +0.000 OA
ATOM     31  O   UNL     1      52.552  -6.388   9.620  0.00  0.00    +0.000 OA
ATOM     32  C   UNL     1      51.925  -4.886   6.614  0.00  0.00    +0.000 C 
ATOM     33  C   UNL     1      52.648  -6.109   6.184  0.00  0.00    +0.000 C 
ATOM     34  C   UNL     1      51.803  -4.881   7.942  0.00  0.00    +0.000 C 
ATOM     35  C   UNL     1      52.461  -6.085   8.445  0.00  0.00    +0.000 C 
ENDBRANCH  19  32
BRANCH  11  36
ATOM     36  O   UNL     1      50.936  -2.468   3.149  0.00  0.00    +0.000 OA
ATOM     37  H   UNL     1      50.034  -2.807   3.277  0.00  0.00    +0.000 HD
ENDBRANCH  11  36
ENDBRANCH  10  29
ENDBRANCH   2  10
BRANCH   6  38
ATOM     38  O   UNL     1      54.339   8.539   6.368  0.00  0.00    +0.000 OA
BRANCH  38  40
ATOM     39  O   UNL     1      52.432   7.818   7.583  0.00  0.00    +0.000 OA
ATOM     40  C   UNL     1      53.747   7.506   7.142  0.00  0.00    +0.000 C 
ATOM     41  C   UNL     1      54.603   6.955   8.278  0.00  0.00    +0.000 C 
ATOM     42  C   UNL     1      53.766   6.477   9.461  0.00  0.00    +0.000 C 
ATOM     43  C   UNL     1      51.709   6.626   7.943  0.00  0.00    +0.000 C 
ATOM     44  C   UNL     1      52.410   5.846   9.084  0.00  0.00    +0.000 C 
ATOM     45  C   UNL     1      50.309   7.071   8.359  0.00  0.00    +0.000 C 
BRANCH  42  46
ATOM     46  O   UNL     1      54.532   5.631  10.316  0.00  0.00    +0.000 OA
ATOM     47  H   UNL     1      54.137   4.741  10.297  0.00  0.00    +0.000 HD
ENDBRANCH  42  46
BRANCH  44  48
ATOM     48  O   UNL     1      52.368   4.431   8.864  0.00  0.00    +0.000 OA
BRANCH  48  50
ATOM     49  O   UNL     1      51.430   2.694  10.136  0.00  0.00    +0.000 OA
ATOM     50  C   UNL     1      51.178   3.721   9.185  0.00  0.00    +0.000 C 
ATOM     51  C   UNL     1      50.681   3.085   7.882  0.00  0.00    +0.000 C 
ATOM     52  C   UNL     1      49.897   1.798   8.128  0.00  0.00    +0.000 C 
ATOM     53  C   UNL     1      50.227   2.062  10.611  0.00  0.00    +0.000 C 
ATOM     54  C   UNL     1      49.199   1.830   9.489  0.00  0.00    +0.000 C 
ATOM     55  C   UNL     1      50.663   0.745  11.245  0.00  0.00    +0.000 C 
BRANCH  52  56
ATOM     56  O   UNL     1      48.911   1.655   7.098  0.00  0.00    +0.000 OA
ATOM     57  H   UNL     1      49.383   1.589   6.248  0.00  0.00    +0.000 HD
ENDBRANCH  52  56
BRANCH  54  58
ATOM     58  O   UNL     1      48.253   2.914   9.484  0.00  0.00    +0.000 OA
ATOM     59  H   UNL     1      47.636   2.732  10.223  0.00  0.00    +0.000 HD
ENDBRANCH  54  58
ENDBRANCH  48  50
ENDBRANCH  44  48
ENDBRANCH  38  40
ENDBRANCH   6  38
TORSDOF 12
ENDMDL
MODEL 4
REMARK VINA RESULT:      -7.2     15.013     18.280
REMARK  Name = 
REMARK  17 active torsions:
REMARK  status: ('A' for Active; 'I' for Inactive)
REMARK    1  A    between atoms: O_1  and  C_14
REMARK    2  A    between atoms: O_2  and  C_32
REMARK    3  A    between atoms: O_2  and  C_36
REMARK    4  A    between atoms: O_6  and  C_39
REMARK    5  A    between atoms: O_7  and  C_41
REMARK    6  A    between atoms: O_7  and  C_43
REMARK    7  A    between atoms: O_9  and  C_47
REMARK    8  A    between atoms: O_9  and  C_49
REMARK    9  A    between atoms: O_10  and  C_45
REMARK   10  A    between atoms: O_12  and  C_51
REMARK   11  A    between atoms: O_13  and  C_53
REMARK   12  A    between atoms: C_17  and  C_29
REMARK   13  A    between atoms: C_18  and  C_30
REMARK   14  A    between atoms: C_22  and  C_33
REMARK   15  A    between atoms: C_40  and  C_42
REMARK   16  A    between atoms: C_46  and  C_48
REMARK   17  A    between atoms: C_52  and  C_54
REMARK                            x       y       z     vdW  Elec       q    Type
REMARK                         _______ _______ _______ _____ _____    ______ ____
ROOT
ATOM      1  O   UNL     1      32.884   8.938  24.869  0.00  0.00    +0.000 OA
ATOM      2  C   UNL     1      33.977   9.848  24.965  0.00  0.00    +0.000 C 
ATOM      3  C   UNL     1      35.071   9.554  23.935  0.00  0.00    +0.000 C 
ATOM      4  C   UNL     1      34.612   8.523  22.915  0.00  0.00    +0.000 C 
ATOM      5  C   UNL     1      32.211   9.019  23.607  0.00  0.00    +0.000 C 
ATOM      6  C   UNL     1      33.166   8.733  22.423  0.00  0.00    +0.000 C 
ATOM      7  C   UNL     1      31.068   8.006  23.652  0.00  0.00    +0.000 C 
ENDROOT
BRANCH   4   8
ATOM      8  O   UNL     1      35.553   8.378  21.857  0.00  0.00    +0.000 OA
ATOM      9  H   UNL     1      35.387   7.497  21.459  0.00  0.00    +0.000 HD
ENDBRANCH   4   8
BRANCH   2  10
ATOM     10  O   UNL     1      34.515   9.904  26.286  0.00  0.00    +0.000 OA
BRANCH  10  29
ATOM     11  C   UNL     1      42.082   8.317  27.164  0.00  0.00    +0.000 C 
ATOM     12  C   UNL     1      40.559   8.593  27.036  0.00  0.00    +0.000 C 
ATOM     13  C   UNL     1      39.986   9.447  28.197  0.00  0.00    +0.000 C 
ATOM     14  C   UNL     1      42.939   9.583  27.454  0.00  0.00    +0.000 C 
ATOM     15  C   UNL     1      38.434   9.730  28.059  0.00  0.00    +0.000 C 
ATOM     16  C   UNL     1      37.667   8.394  27.784  0.00  0.00    +0.000 C 
ATOM     17  C   UNL     1      40.834  10.722  28.378  0.00  0.00    +0.000 C 
ATOM     18  C   UNL     1      42.312  10.403  28.608  0.00  0.00    +0.000 C 
ATOM     19  C   UNL     1      44.303   8.940  27.863  0.00  0.00    +0.000 C 
ATOM     20  C   UNL     1      39.764   7.288  26.885  0.00  0.00    +0.000 C 
ATOM     21  C   UNL     1      42.469   7.347  28.294  0.00  0.00    +0.000 C 
ATOM     22  C   UNL     1      38.290   7.570  26.643  0.00  0.00    +0.000 C 
ATOM     23  C   UNL     1      43.899   7.714  28.708  0.00  0.00    +0.000 C 
ATOM     24  C   UNL     1      38.125  10.754  26.931  0.00  0.00    +0.000 C 
ATOM     25  C   UNL     1      36.169   8.616  27.493  0.00  0.00    +0.000 C 
ATOM     26  C   UNL     1      43.099  10.481  26.211  0.00  0.00    +0.000 C 
ATOM     27  C   UNL     1      37.936  10.317  29.410  0.00  0.00    +0.000 C 
ATOM     28  C   UNL     1      36.631  10.946  26.668  0.00  0.00    +0.000 C 
ATOM     29  C   UNL     1      35.918   9.628  26.371  0.00  0.00    +0.000 C 
BRANCH  19  32
ATOM     30  O   UNL     1      47.142  11.268  28.590  0.00  0.00    +0.000 OA
ATOM     31  O   UNL     1      47.180  11.442  30.880  0.00  0.00    +0.000 OA
ATOM     32  C   UNL     1      45.328   9.848  28.488  0.00  0.00    +0.000 C 
ATOM     33  C   UNL     1      46.321  10.570  27.655  0.00  0.00    +0.000 C 
ATOM     34  C   UNL     1      45.565  10.090  29.778  0.00  0.00    +0.000 C 
ATOM     35  C   UNL     1      46.706  11.001  29.849  0.00  0.00    +0.000 C 
ENDBRANCH  19  32
BRANCH  11  36
ATOM     36  O   UNL     1      42.540   7.702  25.948  0.00  0.00    +0.000 OA
ATOM     37  H   UNL     1      42.693   8.399  25.287  0.00  0.00    +0.000 HD
ENDBRANCH  11  36
ENDBRANCH  10  29
ENDBRANCH   2  10
BRANCH   6  38
ATOM     38  O   UNL     1      32.900   9.573  21.296  0.00  0.00    +0.000 OA
BRANCH  38  40
ATOM     39  O   UNL     1      34.611  11.197  21.039  0.00  0.00    +0.000 OA
ATOM     40  C   UNL     1      33.221  10.954  21.206  0.00  0.00    +0.000 C 
ATOM     41  C   UNL     1      32.622  11.845  22.289  0.00  0.00    +0.000 C 
ATOM     42  C   UNL     1      33.512  13.040  22.619  0.00  0.00    +0.000 C 
ATOM     43  C   UNL     1      34.847  12.511  20.498  0.00  0.00    +0.000 C 
ATOM     44  C   UNL     1      34.287  13.624  21.420  0.00  0.00    +0.000 C 
ATOM     45  C   UNL     1      36.357  12.650  20.323  0.00  0.00    +0.000 C 
BRANCH  42  46
ATOM     46  O   UNL     1      32.779  14.041  23.322  0.00  0.00    +0.000 OA
ATOM     47  H   UNL     1      33.230  14.895  23.197  0.00  0.00    +0.000 HD
ENDBRANCH  42  46
BRANCH  44  48
ATOM     48  O   UNL     1      33.665  14.674  20.668  0.00  0.00    +0.000 OA
BRANCH  48  50
ATOM     49  O   UNL     1      35.766  15.661  20.315  0.00  0.00    +0.000 OA
ATOM     50  C   UNL     1      34.371  15.893  20.477  0.00  0.00    +0.000 C 
ATOM     51  C   UNL     1      34.147  16.734  21.738  0.00  0.00    +0.000 C 
ATOM     52  C   UNL     1      35.311  17.682  22.017  0.00  0.00    +0.000 C 
ATOM     53  C   UNL     1      36.493  16.850  19.955  0.00  0.00    +0.000 C 
ATOM     54  C   UNL     1      36.008  18.095  20.719  0.00  0.00    +0.000 C 
ATOM     55  C   UNL     1      37.960  16.554  20.250  0.00  0.00    +0.000 C 
BRANCH  52  56
ATOM     56  O   UNL     1      34.805  18.853  22.671  0.00  0.00    +0.000 OA
ATOM     57  H   UNL     1      35.487  19.545  22.600  0.00  0.00    +0.000 HD
ENDBRANCH  52  56
BRANCH  54  58
ATOM     58  O   UNL     1      35.059  18.808  19.906  0.00  0.00    +0.000 OA
ATOM     59  H   UNL     1      34.268  18.233  19.856  0.00  0.00    +0.000 HD
ENDBRANCH  54  58
ENDBRANCH  48  50
ENDBRANCH  44  48
ENDBRANCH  38  40
ENDBRANCH   6  38
TORSDOF 12
ENDMDL
MODEL 5
REMARK VINA RESULT:      -7.0     12.267     15.481
REMARK  Name = 
REMARK  17 active torsions:
REMARK  status: ('A' for Active; 'I' for Inactive)
REMARK    1  A    between atoms: O_1  and  C_14
REMARK    2  A    between atoms: O_2  and  C_32
REMARK    3  A    between atoms: O_2  and  C_36
REMARK    4  A    between atoms: O_6  and  C_39
REMARK    5  A    between atoms: O_7  and  C_41
REMARK    6  A    between atoms: O_7  and  C_43
REMARK    7  A    between atoms: O_9  and  C_47
REMARK    8  A    between atoms: O_9  and  C_49
REMARK    9  A    between atoms: O_10  and  C_45
REMARK   10  A    between atoms: O_12  and  C_51
REMARK   11  A    between atoms: O_13  and  C_53
REMARK   12  A    between atoms: C_17  and  C_29
REMARK   13  A    between atoms: C_18  and  C_30
REMARK   14  A    between atoms: C_22  and  C_33
REMARK   15  A    between atoms: C_40  and  C_42
REMARK   16  A    between atoms: C_46  and  C_48
REMARK   17  A    between atoms: C_52  and  C_54
REMARK                            x       y       z     vdW  Elec       q    Type
REMARK                         _______ _______ _______ _____ _____    ______ ____
ROOT
ATOM      1  O   UNL     1      52.590   7.514   9.226  0.00  0.00    +0.000 OA
ATOM      2  C   UNL     1      51.508   6.889   9.911  0.00  0.00    +0.000 C 
ATOM      3  C   UNL     1      50.204   6.944   9.112  0.00  0.00    +0.000 C 
ATOM      4  C   UNL     1      50.442   7.432   7.691  0.00  0.00    +0.000 C 
ATOM      5  C   UNL     1      52.906   6.862   7.989  0.00  0.00    +0.000 C 
ATOM      6  C   UNL     1      51.696   6.830   7.026  0.00  0.00    +0.000 C 
ATOM      7  C   UNL     1      54.080   7.625   7.377  0.00  0.00    +0.000 C 
ENDROOT
BRANCH   4   8
ATOM      8  O   UNL     1      49.269   7.316   6.893  0.00  0.00    +0.000 OA
ATOM      9  H   UNL     1      48.517   7.568   7.470  0.00  0.00    +0.000 HD
ENDBRANCH   4   8
BRANCH   2  10
ATOM     10  O   UNL     1      51.329   7.417  11.226  0.00  0.00    +0.000 OA
BRANCH  10  29
ATOM     11  C   UNL     1      54.416   2.958  16.806  0.00  0.00    +0.000 C 
ATOM     12  C   UNL     1      53.853   3.883  15.692  0.00  0.00    +0.000 C 
ATOM     13  C   UNL     1      54.524   3.668  14.312  0.00  0.00    +0.000 C 
ATOM     14  C   UNL     1      54.496   1.457  16.409  0.00  0.00    +0.000 C 
ATOM     15  C   UNL     1      53.943   4.609  13.178  0.00  0.00    +0.000 C 
ATOM     16  C   UNL     1      53.919   6.093  13.674  0.00  0.00    +0.000 C 
ATOM     17  C   UNL     1      54.499   2.170  13.945  0.00  0.00    +0.000 C 
ATOM     18  C   UNL     1      55.159   1.304  15.018  0.00  0.00    +0.000 C 
ATOM     19  C   UNL     1      55.393   0.886  17.554  0.00  0.00    +0.000 C 
ATOM     20  C   UNL     1      53.927   5.362  16.102  0.00  0.00    +0.000 C 
ATOM     21  C   UNL     1      55.847   3.294  17.261  0.00  0.00    +0.000 C 
ATOM     22  C   UNL     1      53.269   6.252  15.060  0.00  0.00    +0.000 C 
ATOM     23  C   UNL     1      56.453   1.984  17.779  0.00  0.00    +0.000 C 
ATOM     24  C   UNL     1      52.515   4.181  12.738  0.00  0.00    +0.000 C 
ATOM     25  C   UNL     1      53.228   7.045  12.676  0.00  0.00    +0.000 C 
ATOM     26  C   UNL     1      53.111   0.778  16.398  0.00  0.00    +0.000 C 
ATOM     27  C   UNL     1      54.890   4.514  11.949  0.00  0.00    +0.000 C 
ATOM     28  C   UNL     1      51.861   5.148  11.751  0.00  0.00    +0.000 C 
ATOM     29  C   UNL     1      51.824   6.581  12.278  0.00  0.00    +0.000 C 
BRANCH  19  32
ATOM     30  O   UNL     1      55.961  -2.811  17.454  0.00  0.00    +0.000 OA
ATOM     31  O   UNL     1      58.132  -3.047  16.744  0.00  0.00    +0.000 OA
ATOM     32  C   UNL     1      55.932  -0.507  17.372  0.00  0.00    +0.000 C 
ATOM     33  C   UNL     1      55.103  -1.697  17.692  0.00  0.00    +0.000 C 
ATOM     34  C   UNL     1      57.153  -0.898  17.004  0.00  0.00    +0.000 C 
ATOM     35  C   UNL     1      57.173  -2.359  17.040  0.00  0.00    +0.000 C 
ENDBRANCH  19  32
BRANCH  11  36
ATOM     36  O   UNL     1      53.592   3.097  17.976  0.00  0.00    +0.000 OA
ATOM     37  H   UNL     1      53.234   4.001  17.998  0.00  0.00    +0.000 HD
ENDBRANCH  11  36
ENDBRANCH  10  29
ENDBRANCH   2  10
BRANCH   6  38
ATOM     38  O   UNL     1      51.611   5.598   6.303  0.00  0.00    +0.000 OA
BRANCH  38  40
ATOM     39  O   UNL     1      53.369   4.295   7.220  0.00  0.00    +0.000 OA
ATOM     40  C   UNL     1      52.014   4.328   6.793  0.00  0.00    +0.000 C 
ATOM     41  C   UNL     1      51.677   3.136   5.902  0.00  0.00    +0.000 C 
ATOM     42  C   UNL     1      52.697   2.008   6.027  0.00  0.00    +0.000 C 
ATOM     43  C   UNL     1      53.605   3.187   8.111  0.00  0.00    +0.000 C 
ATOM     44  C   UNL     1      53.296   1.827   7.437  0.00  0.00    +0.000 C 
ATOM     45  C   UNL     1      55.069   3.271   8.536  0.00  0.00    +0.000 C 
BRANCH  42  46
ATOM     46  O   UNL     1      52.172   0.788   5.507  0.00  0.00    +0.000 OA
ATOM     47  H   UNL     1      52.827   0.084   5.659  0.00  0.00    +0.000 HD
ENDBRANCH  42  46
BRANCH  44  48
ATOM     48  O   UNL     1      52.634   0.927   8.335  0.00  0.00    +0.000 OA
BRANCH  48  50
ATOM     49  O   UNL     1      51.769   0.879  10.517  0.00  0.00    +0.000 OA
ATOM     50  C   UNL     1      51.644   1.442   9.217  0.00  0.00    +0.000 C 
ATOM     51  C   UNL     1      50.285   1.048   8.629  0.00  0.00    +0.000 C 
ATOM     52  C   UNL     1      49.214   0.885   9.705  0.00  0.00    +0.000 C 
ATOM     53  C   UNL     1      50.894   1.494  11.481  0.00  0.00    +0.000 C 
ATOM     54  C   UNL     1      49.496   1.791  10.906  0.00  0.00    +0.000 C 
ATOM     55  C   UNL     1      50.815   0.528  12.658  0.00  0.00    +0.000 C 
BRANCH  52  56
ATOM     56  O   UNL     1      47.941   1.232   9.145  0.00  0.00    +0.000 OA
ATOM     57  H   UNL     1      48.054   2.067   8.657  0.00  0.00    +0.000 HD
ENDBRANCH  52  56
BRANCH  54  58
ATOM     58  O   UNL     1      49.451   3.157  10.459  0.00  0.00    +0.000 OA
ATOM     59  H   UNL     1      49.148   3.122   9.528  0.00  0.00    +0.000 HD
ENDBRANCH  54  58
ENDBRANCH  48  50
ENDBRANCH  44  48
ENDBRANCH  38  40
ENDBRANCH   6  38
TORSDOF 12
ENDMDL
MODEL 6
REMARK VINA RESULT:      -6.7     18.148     24.059
REMARK  Name = 
REMARK  17 active torsions:
REMARK  status: ('A' for Active; 'I' for Inactive)
REMARK    1  A    between atoms: O_1  and  C_14
REMARK    2  A    between atoms: O_2  and  C_32
REMARK    3  A    between atoms: O_2  and  C_36
REMARK    4  A    between atoms: O_6  and  C_39
REMARK    5  A    between atoms: O_7  and  C_41
REMARK    6  A    between atoms: O_7  and  C_43
REMARK    7  A    between atoms: O_9  and  C_47
REMARK    8  A    between atoms: O_9  and  C_49
REMARK    9  A    between atoms: O_10  and  C_45
REMARK   10  A    between atoms: O_12  and  C_51
REMARK   11  A    between atoms: O_13  and  C_53
REMARK   12  A    between atoms: C_17  and  C_29
REMARK   13  A    between atoms: C_18  and  C_30
REMARK   14  A    between atoms: C_22  and  C_33
REMARK   15  A    between atoms: C_40  and  C_42
REMARK   16  A    between atoms: C_46  and  C_48
REMARK   17  A    between atoms: C_52  and  C_54
REMARK                            x       y       z     vdW  Elec       q    Type
REMARK                         _______ _______ _______ _____ _____    ______ ____
ROOT
ATOM      1  O   UNL     1      35.425  22.879  19.824  0.00  0.00    +0.000 OA
ATOM      2  C   UNL     1      35.469  21.633  20.514  0.00  0.00    +0.000 C 
ATOM      3  C   UNL     1      36.888  21.067  20.603  0.00  0.00    +0.000 C 
ATOM      4  C   UNL     1      37.923  22.085  20.148  0.00  0.00    +0.000 C 
ATOM      5  C   UNL     1      36.173  23.903  20.491  0.00  0.00    +0.000 C 
ATOM      6  C   UNL     1      37.660  23.514  20.663  0.00  0.00    +0.000 C 
ATOM      7  C   UNL     1      36.027  25.172  19.652  0.00  0.00    +0.000 C 
ENDROOT
BRANCH   4   8
ATOM      8  O   UNL     1      39.249  21.630  20.395  0.00  0.00    +0.000 OA
ATOM      9  H   UNL     1      39.526  21.140  19.592  0.00  0.00    +0.000 HD
ENDBRANCH   4   8
BRANCH   2  10
ATOM     10  O   UNL     1      34.567  20.678  19.956  0.00  0.00    +0.000 OA
BRANCH  10  29
ATOM     11  C   UNL     1      35.278  13.319  22.383  0.00  0.00    +0.000 C 
ATOM     12  C   UNL     1      35.160  14.770  21.842  0.00  0.00    +0.000 C 
ATOM     13  C   UNL     1      34.028  14.952  20.799  0.00  0.00    +0.000 C 
ATOM     14  C   UNL     1      33.930  12.701  22.852  0.00  0.00    +0.000 C 
ATOM     15  C   UNL     1      33.908  16.434  20.255  0.00  0.00    +0.000 C 
ATOM     16  C   UNL     1      35.313  16.953  19.799  0.00  0.00    +0.000 C 
ATOM     17  C   UNL     1      32.705  14.390  21.360  0.00  0.00    +0.000 C 
ATOM     18  C   UNL     1      32.835  12.926  21.781  0.00  0.00    +0.000 C 
ATOM     19  C   UNL     1      34.317  11.194  22.989  0.00  0.00    +0.000 C 
ATOM     20  C   UNL     1      36.499  15.267  21.275  0.00  0.00    +0.000 C 
ATOM     21  C   UNL     1      35.817  12.295  21.369  0.00  0.00    +0.000 C 
ATOM     22  C   UNL     1      36.408  16.725  20.856  0.00  0.00    +0.000 C 
ATOM     23  C   UNL     1      35.242  10.935  21.782  0.00  0.00    +0.000 C 
ATOM     24  C   UNL     1      33.313  17.401  21.317  0.00  0.00    +0.000 C 
ATOM     25  C   UNL     1      35.296  18.441  19.395  0.00  0.00    +0.000 C 
ATOM     26  C   UNL     1      33.458  13.278  24.202  0.00  0.00    +0.000 C 
ATOM     27  C   UNL     1      32.964  16.413  19.020  0.00  0.00    +0.000 C 
ATOM     28  C   UNL     1      33.315  18.867  20.885  0.00  0.00    +0.000 C 
ATOM     29  C   UNL     1      34.705  19.351  20.476  0.00  0.00    +0.000 C 
BRANCH  19  32
ATOM     30  O   UNL     1      31.618   8.945  24.279  0.00  0.00    +0.000 OA
ATOM     31  O   UNL     1      30.903   7.777  22.436  0.00  0.00    +0.000 OA
ATOM     32  C   UNL     1      33.192  10.210  23.166  0.00  0.00    +0.000 C 
ATOM     33  C   UNL     1      32.594   9.962  24.502  0.00  0.00    +0.000 C 
ATOM     34  C   UNL     1      32.628   9.403  22.266  0.00  0.00    +0.000 C 
ATOM     35  C   UNL     1      31.620   8.608  22.963  0.00  0.00    +0.000 C 
ENDBRANCH  19  32
BRANCH  11  36
ATOM     36  O   UNL     1      36.210  13.312  23.478  0.00  0.00    +0.000 OA
ATOM     37  H   UNL     1      35.760  12.963  24.266  0.00  0.00    +0.000 HD
ENDBRANCH  11  36
ENDBRANCH  10  29
ENDBRANCH   2  10
BRANCH   6  38
ATOM     38  O   UNL     1      38.189  23.937  21.923  0.00  0.00    +0.000 OA
BRANCH  38  40
ATOM     39  O   UNL     1      40.138  24.180  23.256  0.00  0.00    +0.000 OA
ATOM     40  C   UNL     1      39.420  24.620  22.111  0.00  0.00    +0.000 C 
ATOM     41  C   UNL     1      39.350  26.143  22.043  0.00  0.00    +0.000 C 
ATOM     42  C   UNL     1      40.390  26.814  22.936  0.00  0.00    +0.000 C 
ATOM     43  C   UNL     1      41.532  24.533  23.162  0.00  0.00    +0.000 C 
ATOM     44  C   UNL     1      41.734  26.065  23.046  0.00  0.00    +0.000 C 
ATOM     45  C   UNL     1      42.209  23.982  24.414  0.00  0.00    +0.000 C 
BRANCH  42  46
ATOM     46  O   UNL     1      40.568  28.181  22.569  0.00  0.00    +0.000 OA
ATOM     47  H   UNL     1      39.855  28.427  21.954  0.00  0.00    +0.000 HD
ENDBRANCH  42  46
BRANCH  44  48
ATOM     48  O   UNL     1      42.763  26.395  22.105  0.00  0.00    +0.000 OA
BRANCH  48  50
ATOM     49  O   UNL     1      44.424  25.457  20.735  0.00  0.00    +0.000 OA
ATOM     50  C   UNL     1      43.035  25.493  21.039  0.00  0.00    +0.000 C 
ATOM     51  C   UNL     1      42.267  26.011  19.818  0.00  0.00    +0.000 C 
ATOM     52  C   UNL     1      42.947  25.633  18.504  0.00  0.00    +0.000 C 
ATOM     53  C   UNL     1      44.762  24.437  19.777  0.00  0.00    +0.000 C 
ATOM     54  C   UNL     1      43.727  24.324  18.643  0.00  0.00    +0.000 C 
ATOM     55  C   UNL     1      46.139  24.805  19.235  0.00  0.00    +0.000 C 
BRANCH  52  56
ATOM     56  O   UNL     1      41.942  25.477  17.494  0.00  0.00    +0.000 OA
ATOM     57  H   UNL     1      42.382  25.563  16.629  0.00  0.00    +0.000 HD
ENDBRANCH  52  56
BRANCH  54  58
ATOM     58  O   UNL     1      42.793  23.276  18.960  0.00  0.00    +0.000 OA
ATOM     59  H   UNL     1      42.100  23.319  18.268  0.00  0.00    +0.000 HD
ENDBRANCH  54  58
ENDBRANCH  48  50
ENDBRANCH  44  48
ENDBRANCH  38  40
ENDBRANCH   6  38
TORSDOF 12
ENDMDL
MODEL 7
REMARK VINA RESULT:      -6.6     10.486     14.967
REMARK  Name = 
REMARK  17 active torsions:
REMARK  status: ('A' for Active; 'I' for Inactive)
REMARK    1  A    between atoms: O_1  and  C_14
REMARK    2  A    between atoms: O_2  and  C_32
REMARK    3  A    between atoms: O_2  and  C_36
REMARK    4  A    between atoms: O_6  and  C_39
REMARK    5  A    between atoms: O_7  and  C_41
REMARK    6  A    between atoms: O_7  and  C_43
REMARK    7  A    between atoms: O_9  and  C_47
REMARK    8  A    between atoms: O_9  and  C_49
REMARK    9  A    between atoms: O_10  and  C_45
REMARK   10  A    between atoms: O_12  and  C_51
REMARK   11  A    between atoms: O_13  and  C_53
REMARK   12  A    between atoms: C_17  and  C_29
REMARK   13  A    between atoms: C_18  and  C_30
REMARK   14  A    between atoms: C_22  and  C_33
REMARK   15  A    between atoms: C_40  and  C_42
REMARK   16  A    between atoms: C_46  and  C_48
REMARK   17  A    between atoms: C_52  and  C_54
REMARK                            x       y       z     vdW  Elec       q    Type
REMARK                         _______ _______ _______ _____ _____    ______ ____
ROOT
ATOM      1  O   UNL     1      33.005   7.296  24.166  0.00  0.00    +0.000 OA
ATOM      2  C   UNL     1      34.145   6.559  24.598  0.00  0.00    +0.000 C 
ATOM      3  C   UNL     1      35.337   6.721  23.651  0.00  0.00    +0.000 C 
ATOM      4  C   UNL     1      35.086   7.814  22.623  0.00  0.00    +0.000 C 
ATOM      5  C   UNL     1      33.244   8.709  24.138  0.00  0.00    +0.000 C 
ATOM      6  C   UNL     1      34.423   9.078  23.206  0.00  0.00    +0.000 C 
ATOM      7  C   UNL     1      31.945   9.365  23.671  0.00  0.00    +0.000 C 
ENDROOT
BRANCH   4   8
ATOM      8  O   UNL     1      36.253   8.090  21.857  0.00  0.00    +0.000 OA
ATOM      9  H   UNL     1      36.974   7.555  22.250  0.00  0.00    +0.000 HD
ENDBRANCH   4   8
BRANCH   2  10
ATOM     10  O   UNL     1      33.843   5.180  24.814  0.00  0.00    +0.000 OA
BRANCH  10  29
ATOM     11  C   UNL     1      30.237   1.351  19.079  0.00  0.00    +0.000 C 
ATOM     12  C   UNL     1      30.911   2.096  20.264  0.00  0.00    +0.000 C 
ATOM     13  C   UNL     1      31.603   1.148  21.277  0.00  0.00    +0.000 C 
ATOM     14  C   UNL     1      31.148   0.298  18.386  0.00  0.00    +0.000 C 
ATOM     15  C   UNL     1      32.294   1.912  22.480  0.00  0.00    +0.000 C 
ATOM     16  C   UNL     1      31.291   2.932  23.113  0.00  0.00    +0.000 C 
ATOM     17  C   UNL     1      32.549   0.185  20.530  0.00  0.00    +0.000 C 
ATOM     18  C   UNL     1      31.823  -0.608  19.444  0.00  0.00    +0.000 C 
ATOM     19  C   UNL     1      30.106  -0.483  17.521  0.00  0.00    +0.000 C 
ATOM     20  C   UNL     1      29.917   3.019  20.984  0.00  0.00    +0.000 C 
ATOM     21  C   UNL     1      28.975   0.554  19.453  0.00  0.00    +0.000 C 
ATOM     22  C   UNL     1      30.610   3.831  22.066  0.00  0.00    +0.000 C 
ATOM     23  C   UNL     1      28.867  -0.586  18.433  0.00  0.00    +0.000 C 
ATOM     24  C   UNL     1      33.586   2.653  22.036  0.00  0.00    +0.000 C 
ATOM     25  C   UNL     1      31.944   3.816  24.196  0.00  0.00    +0.000 C 
ATOM     26  C   UNL     1      32.228   0.950  17.499  0.00  0.00    +0.000 C 
ATOM     27  C   UNL     1      32.674   0.857  23.558  0.00  0.00    +0.000 C 
ATOM     28  C   UNL     1      34.204   3.521  23.133  0.00  0.00    +0.000 C 
ATOM     29  C   UNL     1      33.209   4.528  23.708  0.00  0.00    +0.000 C 
BRANCH  19  32
ATOM     30  O   UNL     1      30.854  -4.052  16.681  0.00  0.00    +0.000 OA
ATOM     31  O   UNL     1      32.192  -3.943  14.818  0.00  0.00    +0.000 OA
ATOM     32  C   UNL     1      30.563  -1.775  16.900  0.00  0.00    +0.000 C 
ATOM     33  C   UNL     1      30.204  -3.084  17.502  0.00  0.00    +0.000 C 
ATOM     34  C   UNL     1      31.357  -1.970  15.846  0.00  0.00    +0.000 C 
ATOM     35  C   UNL     1      31.535  -3.413  15.694  0.00  0.00    +0.000 C 
ENDBRANCH  19  32
BRANCH  11  36
ATOM     36  O   UNL     1      29.811   2.323  18.110  0.00  0.00    +0.000 OA
ATOM     37  H   UNL     1      30.430   3.073  18.130  0.00  0.00    +0.000 HD
ENDBRANCH  11  36
ENDBRANCH  10  29
ENDBRANCH   2  10
BRANCH   6  38
ATOM     38  O   UNL     1      35.226  10.135  23.740  0.00  0.00    +0.000 OA
BRANCH  38  40
ATOM     39  O   UNL     1      34.576  12.415  23.632  0.00  0.00    +0.000 OA
ATOM     40  C   UNL     1      35.433  11.400  23.127  0.00  0.00    +0.000 C 
ATOM     41  C   UNL     1      35.464  11.400  21.602  0.00  0.00    +0.000 C 
ATOM     42  C   UNL     1      34.942  12.705  21.009  0.00  0.00    +0.000 C 
ATOM     43  C   UNL     1      35.104  13.726  23.351  0.00  0.00    +0.000 C 
ATOM     44  C   UNL     1      35.268  13.969  21.830  0.00  0.00    +0.000 C 
ATOM     45  C   UNL     1      34.134  14.731  23.968  0.00  0.00    +0.000 C 
BRANCH  42  46
ATOM     46  O   UNL     1      35.337  12.837  19.644  0.00  0.00    +0.000 OA
ATOM     47  H   UNL     1      34.644  12.441  19.086  0.00  0.00    +0.000 HD
ENDBRANCH  42  46
BRANCH  44  48
ATOM     48  O   UNL     1      36.484  14.666  21.531  0.00  0.00    +0.000 OA
BRANCH  48  50
ATOM     49  O   UNL     1      37.746  16.176  20.250  0.00  0.00    +0.000 OA
ATOM     50  C   UNL     1      36.438  15.779  20.646  0.00  0.00    +0.000 C 
ATOM     51  C   UNL     1      35.778  16.927  21.417  0.00  0.00    +0.000 C 
ATOM     52  C   UNL     1      36.255  18.296  20.937  0.00  0.00    +0.000 C 
ATOM     53  C   UNL     1      37.738  17.190  19.228  0.00  0.00    +0.000 C 
ATOM     54  C   UNL     1      36.651  18.256  19.459  0.00  0.00    +0.000 C 
ATOM     55  C   UNL     1      39.131  17.809  19.234  0.00  0.00    +0.000 C 
BRANCH  52  56
ATOM     56  O   UNL     1      35.193  19.242  21.113  0.00  0.00    +0.000 OA
ATOM     57  H   UNL     1      34.821  19.103  22.003  0.00  0.00    +0.000 HD
ENDBRANCH  52  56
BRANCH  54  58
ATOM     58  O   UNL     1      35.484  17.914  18.691  0.00  0.00    +0.000 OA
ATOM     59  H   UNL     1      34.756  17.822  19.340  0.00  0.00    +0.000 HD
ENDBRANCH  54  58
ENDBRANCH  48  50
ENDBRANCH  44  48
ENDBRANCH  38  40
ENDBRANCH   6  38
TORSDOF 12
ENDMDL
MODEL 8
REMARK VINA RESULT:      -6.6     13.184     16.775
REMARK  Name = 
REMARK  17 active torsions:
REMARK  status: ('A' for Active; 'I' for Inactive)
REMARK    1  A    between atoms: O_1  and  C_14
REMARK    2  A    between atoms: O_2  and  C_32
REMARK    3  A    between atoms: O_2  and  C_36
REMARK    4  A    between atoms: O_6  and  C_39
REMARK    5  A    between atoms: O_7  and  C_41
REMARK    6  A    between atoms: O_7  and  C_43
REMARK    7  A    between atoms: O_9  and  C_47
REMARK    8  A    between atoms: O_9  and  C_49
REMARK    9  A    between atoms: O_10  and  C_45
REMARK   10  A    between atoms: O_12  and  C_51
REMARK   11  A    between atoms: O_13  and  C_53
REMARK   12  A    between atoms: C_17  and  C_29
REMARK   13  A    between atoms: C_18  and  C_30
REMARK   14  A    between atoms: C_22  and  C_33
REMARK   15  A    between atoms: C_40  and  C_42
REMARK   16  A    between atoms: C_46  and  C_48
REMARK   17  A    between atoms: C_52  and  C_54
REMARK                            x       y       z     vdW  Elec       q    Type
REMARK                         _______ _______ _______ _____ _____    ______ ____
ROOT
ATOM      1  O   UNL     1      54.364   5.783   9.401  0.00  0.00    +0.000 OA
ATOM      2  C   UNL     1      53.433   6.489  10.217  0.00  0.00    +0.000 C 
ATOM      3  C   UNL     1      52.424   7.290   9.390  0.00  0.00    +0.000 C 
ATOM      4  C   UNL     1      52.515   6.942   7.912  0.00  0.00    +0.000 C 
ATOM      5  C   UNL     1      53.732   4.803   8.569  0.00  0.00    +0.000 C 
ATOM      6  C   UNL     1      52.672   5.433   7.635  0.00  0.00    +0.000 C 
ATOM      7  C   UNL     1      54.842   4.125   7.767  0.00  0.00    +0.000 C 
ENDROOT
BRANCH   4   8
ATOM      8  O   UNL     1      51.466   7.547   7.165  0.00  0.00    +0.000 OA
ATOM      9  H   UNL     1      50.850   7.937   7.821  0.00  0.00    +0.000 HD
ENDBRANCH   4   8
BRANCH   2  10
ATOM     10  O   UNL     1      54.083   7.319  11.180  0.00  0.00    +0.000 OA
BRANCH  10  29
ATOM     11  C   UNL     1      54.087   4.948  18.591  0.00  0.00    +0.000 C 
ATOM     12  C   UNL     1      54.075   5.481  17.132  0.00  0.00    +0.000 C 
ATOM     13  C   UNL     1      55.335   6.305  16.764  0.00  0.00    +0.000 C 
ATOM     14  C   UNL     1      55.406   4.234  19.000  0.00  0.00    +0.000 C 
ATOM     15  C   UNL     1      55.322   6.841  15.274  0.00  0.00    +0.000 C 
ATOM     16  C   UNL     1      53.961   7.551  14.973  0.00  0.00    +0.000 C 
ATOM     17  C   UNL     1      56.606   5.506  17.123  0.00  0.00    +0.000 C 
ATOM     18  C   UNL     1      56.629   5.093  18.595  0.00  0.00    +0.000 C 
ATOM     19  C   UNL     1      55.237   4.146  20.551  0.00  0.00    +0.000 C 
ATOM     20  C   UNL     1      52.801   6.288  16.840  0.00  0.00    +0.000 C 
ATOM     21  C   UNL     1      53.903   6.027  19.673  0.00  0.00    +0.000 C 
ATOM     22  C   UNL     1      52.741   6.706  15.380  0.00  0.00    +0.000 C 
ATOM     23  C   UNL     1      54.597   5.496  20.933  0.00  0.00    +0.000 C 
ATOM     24  C   UNL     1      55.559   5.704  14.242  0.00  0.00    +0.000 C 
ATOM     25  C   UNL     1      53.820   7.968  13.495  0.00  0.00    +0.000 C 
ATOM     26  C   UNL     1      55.532   2.830  18.374  0.00  0.00    +0.000 C 
ATOM     27  C   UNL     1      56.466   7.884  15.134  0.00  0.00    +0.000 C 
ATOM     28  C   UNL     1      55.410   6.152  12.788  0.00  0.00    +0.000 C 
ATOM     29  C   UNL     1      54.059   6.812  12.519  0.00  0.00    +0.000 C 
BRANCH  19  32
ATOM     30  O   UNL     1      58.286   4.033  22.718  0.00  0.00    +0.000 OA
ATOM     31  O   UNL     1      59.015   1.860  22.584  0.00  0.00    +0.000 OA
ATOM     32  C   UNL     1      56.450   3.754  21.351  0.00  0.00    +0.000 C 
ATOM     33  C   UNL     1      57.186   4.754  22.165  0.00  0.00    +0.000 C 
ATOM     34  C   UNL     1      57.074   2.578  21.415  0.00  0.00    +0.000 C 
ATOM     35  C   UNL     1      58.231   2.745  22.292  0.00  0.00    +0.000 C 
ENDBRANCH  19  32
BRANCH  11  36
ATOM     36  O   UNL     1      52.984   4.040  18.756  0.00  0.00    +0.000 OA
ATOM     37  H   UNL     1      52.192   4.553  18.988  0.00  0.00    +0.000 HD
ENDBRANCH  11  36
ENDBRANCH  10  29
ENDBRANCH   2  10
BRANCH   6  38
ATOM     38  O   UNL     1      51.518   4.601   7.485  0.00  0.00    +0.000 OA
BRANCH  38  40
ATOM     39  O   UNL     1      50.488   2.492   7.836  0.00  0.00    +0.000 OA
ATOM     40  C   UNL     1      51.065   3.645   8.433  0.00  0.00    +0.000 C 
ATOM     41  C   UNL     1      50.191   4.191   9.558  0.00  0.00    +0.000 C 
ATOM     42  C   UNL     1      49.170   3.169  10.051  0.00  0.00    +0.000 C 
ATOM     43  C   UNL     1      50.473   1.384   8.757  0.00  0.00    +0.000 C 
ATOM     44  C   UNL     1      49.655   1.705  10.034  0.00  0.00    +0.000 C 
ATOM     45  C   UNL     1      49.875   0.197   8.005  0.00  0.00    +0.000 C 
BRANCH  42  46
ATOM     46  O   UNL     1      48.648   3.545  11.324  0.00  0.00    +0.000 OA
ATOM     47  H   UNL     1      48.929   2.881  11.977  0.00  0.00    +0.000 HD
ENDBRANCH  42  46
BRANCH  44  48
ATOM     48  O   UNL     1      50.291   1.196  11.213  0.00  0.00    +0.000 OA
BRANCH  48  50
ATOM     49  O   UNL     1      52.484   0.432  11.558  0.00  0.00    +0.000 OA
ATOM     50  C   UNL     1      51.636   1.572  11.485  0.00  0.00    +0.000 C 
ATOM     51  C   UNL     1      51.628   2.279  12.844  0.00  0.00    +0.000 C 
ATOM     52  C   UNL     1      52.954   2.123  13.586  0.00  0.00    +0.000 C 
ATOM     53  C   UNL     1      53.878   0.778  11.667  0.00  0.00    +0.000 C 
ATOM     54  C   UNL     1      54.120   1.974  12.606  0.00  0.00    +0.000 C 
ATOM     55  C   UNL     1      54.586  -0.474  12.171  0.00  0.00    +0.000 C 
BRANCH  52  56
ATOM     56  O   UNL     1      53.168   3.284  14.397  0.00  0.00    +0.000 OA
ATOM     57  H   UNL     1      52.487   3.284  15.094  0.00  0.00    +0.000 HD
ENDBRANCH  52  56
BRANCH  54  58
ATOM     58  O   UNL     1      54.205   3.178  11.823  0.00  0.00    +0.000 OA
ATOM     59  H   UNL     1      55.056   3.596  12.070  0.00  0.00    +0.000 HD
ENDBRANCH  54  58
ENDBRANCH  48  50
ENDBRANCH  44  48
ENDBRANCH  38  40
ENDBRANCH   6  38
TORSDOF 12
ENDMDL
MODEL 9
REMARK VINA RESULT:      -6.4     10.352     13.178
REMARK  Name = 
REMARK  17 active torsions:
REMARK  status: ('A' for Active; 'I' for Inactive)
REMARK    1  A    between atoms: O_1  and  C_14
REMARK    2  A    between atoms: O_2  and  C_32
REMARK    3  A    between atoms: O_2  and  C_36
REMARK    4  A    between atoms: O_6  and  C_39
REMARK    5  A    between atoms: O_7  and  C_41
REMARK    6  A    between atoms: O_7  and  C_43
REMARK    7  A    between atoms: O_9  and  C_47
REMARK    8  A    between atoms: O_9  and  C_49
REMARK    9  A    between atoms: O_10  and  C_45
REMARK   10  A    between atoms: O_12  and  C_51
REMARK   11  A    between atoms: O_13  and  C_53
REMARK   12  A    between atoms: C_17  and  C_29
REMARK   13  A    between atoms: C_18  and  C_30
REMARK   14  A    between atoms: C_22  and  C_33
REMARK   15  A    between atoms: C_40  and  C_42
REMARK   16  A    between atoms: C_46  and  C_48
REMARK   17  A    between atoms: C_52  and  C_54
REMARK                            x       y       z     vdW  Elec       q    Type
REMARK                         _______ _______ _______ _____ _____    ______ ____
ROOT
ATOM      1  O   UNL     1      56.329  -3.808  12.381  0.00  0.00    +0.000 OA
ATOM      2  C   UNL     1      55.368  -4.764  12.822  0.00  0.00    +0.000 C 
ATOM      3  C   UNL     1      55.316  -4.874  14.348  0.00  0.00    +0.000 C 
ATOM      4  C   UNL     1      56.122  -3.769  15.014  0.00  0.00    +0.000 C 
ATOM      5  C   UNL     1      56.022  -2.479  12.820  0.00  0.00    +0.000 C 
ATOM      6  C   UNL     1      55.940  -2.384  14.362  0.00  0.00    +0.000 C 
ATOM      7  C   UNL     1      57.119  -1.569  12.269  0.00  0.00    +0.000 C 
ENDROOT
BRANCH   4   8
ATOM      8  O   UNL     1      55.933  -3.759  16.425  0.00  0.00    +0.000 OA
ATOM      9  H   UNL     1      55.059  -3.344  16.582  0.00  0.00    +0.000 HD
ENDBRANCH   4   8
BRANCH   2  10
ATOM     10  O   UNL     1      55.568  -6.043  12.221  0.00  0.00    +0.000 OA
BRANCH  10  29
ATOM     11  C   UNL     1      49.335 -10.599  11.255  0.00  0.00    +0.000 C 
ATOM     12  C   UNL     1      50.616  -9.740  11.435  0.00  0.00    +0.000 C 
ATOM     13  C   UNL     1      51.343  -9.426  10.103  0.00  0.00    +0.000 C 
ATOM     14  C   UNL     1      48.366 -10.078  10.156  0.00  0.00    +0.000 C 
ATOM     15  C   UNL     1      52.645  -8.545  10.291  0.00  0.00    +0.000 C 
ATOM     16  C   UNL     1      53.553  -9.163  11.406  0.00  0.00    +0.000 C 
ATOM     17  C   UNL     1      50.341  -8.841   9.086  0.00  0.00    +0.000 C 
ATOM     18  C   UNL     1      49.147  -9.767   8.856  0.00  0.00    +0.000 C 
ATOM     19  C   UNL     1      47.410 -11.302   9.988  0.00  0.00    +0.000 C 
ATOM     20  C   UNL     1      51.586 -10.384  12.438  0.00  0.00    +0.000 C 
ATOM     21  C   UNL     1      49.591 -12.063  10.854  0.00  0.00    +0.000 C 
ATOM     22  C   UNL     1      52.782  -9.483  12.698  0.00  0.00    +0.000 C 
ATOM     23  C   UNL     1      48.346 -12.524  10.087  0.00  0.00    +0.000 C 
ATOM     24  C   UNL     1      52.308  -7.071  10.648  0.00  0.00    +0.000 C 
ATOM     25  C   UNL     1      54.769  -8.276  11.744  0.00  0.00    +0.000 C 
ATOM     26  C   UNL     1      47.590  -8.824  10.604  0.00  0.00    +0.000 C 
ATOM     27  C   UNL     1      53.430  -8.563   8.948  0.00  0.00    +0.000 C 
ATOM     28  C   UNL     1      53.534  -6.222  10.980  0.00  0.00    +0.000 C 
ATOM     29  C   UNL     1      54.382  -6.835  12.093  0.00  0.00    +0.000 C 
BRANCH  19  32
ATOM     30  O   UNL     1      45.821 -11.555   6.609  0.00  0.00    +0.000 OA
ATOM     31  O   UNL     1      43.711 -10.693   6.892  0.00  0.00    +0.000 OA
ATOM     32  C   UNL     1      46.483 -11.291   8.802  0.00  0.00    +0.000 C 
ATOM     33  C   UNL     1      46.935 -11.774   7.473  0.00  0.00    +0.000 C 
ATOM     34  C   UNL     1      45.238 -10.823   8.708  0.00  0.00    +0.000 C 
ATOM     35  C   UNL     1      44.807 -11.000   7.323  0.00  0.00    +0.000 C 
ENDBRANCH  19  32
BRANCH  11  36
ATOM     36  O   UNL     1      48.640 -10.656  12.513  0.00  0.00    +0.000 OA
ATOM     37  H   UNL     1      48.118 -11.475  12.542  0.00  0.00    +0.000 HD
ENDBRANCH  11  36
ENDBRANCH  10  29
ENDBRANCH   2  10
BRANCH   6  38
ATOM     38  O   UNL     1      54.891  -1.513  14.796  0.00  0.00    +0.000 OA
BRANCH  38  40
ATOM     39  O   UNL     1      54.971   0.671  13.872  0.00  0.00    +0.000 OA
ATOM     40  C   UNL     1      54.241  -0.542  13.988  0.00  0.00    +0.000 C 
ATOM     41  C   UNL     1      52.773  -0.284  14.314  0.00  0.00    +0.000 C 
ATOM     42  C   UNL     1      52.354   1.153  14.019  0.00  0.00    +0.000 C 
ATOM     43  C   UNL     1      54.545   1.425  12.720  0.00  0.00    +0.000 C 
ATOM     44  C   UNL     1      53.041   1.792  12.794  0.00  0.00    +0.000 C 
ATOM     45  C   UNL     1      55.415   2.678  12.669  0.00  0.00    +0.000 C 
BRANCH  42  46
ATOM     46  O   UNL     1      50.934   1.266  13.956  0.00  0.00    +0.000 OA
ATOM     47  H   UNL     1      50.692   1.581  13.067  0.00  0.00    +0.000 HD
ENDBRANCH  42  46
BRANCH  44  48
ATOM     48  O   UNL     1      52.398   1.658  11.521  0.00  0.00    +0.000 OA
BRANCH  48  50
ATOM     49  O   UNL     1      51.427   3.742  11.997  0.00  0.00    +0.000 OA
ATOM     50  C   UNL     1      51.682   2.767  10.992  0.00  0.00    +0.000 C 
ATOM     51  C   UNL     1      50.347   2.221  10.474  0.00  0.00    +0.000 C 
ATOM     52  C   UNL     1      49.234   3.265  10.530  0.00  0.00    +0.000 C 
ATOM     53  C   UNL     1      50.851   4.952  11.471  0.00  0.00    +0.000 C 
ATOM     54  C   UNL     1      49.797   4.681  10.382  0.00  0.00    +0.000 C 
ATOM     55  C   UNL     1      50.243   5.684  12.662  0.00  0.00    +0.000 C 
BRANCH  52  56
ATOM     56  O   UNL     1      48.311   3.013   9.463  0.00  0.00    +0.000 OA
ATOM     57  H   UNL     1      48.567   3.581   8.714  0.00  0.00    +0.000 HD
ENDBRANCH  52  56
BRANCH  54  58
ATOM     58  O   UNL     1      50.417   4.784   9.088  0.00  0.00    +0.000 OA
ATOM     59  H   UNL     1      51.060   4.047   9.042  0.00  0.00    +0.000 HD
ENDBRANCH  54  58
ENDBRANCH  48  50
ENDBRANCH  44  48
ENDBRANCH  38  40
ENDBRANCH   6  38
TORSDOF 12
ENDMDL
