MODEL 1
REMARK VINA RESULT:      -8.4      0.000      0.000
REMARK  Name = Cdk12_Inhibitor.pdbqt.pdb
REMARK  6 active torsions:
REMARK  status: ('A' for Active; 'I' for Inactive)
REMARK    1  A    between atoms: N_1  and  C_23
REMARK    2  A    between atoms: N_9  and  C_11
REMARK    3  A    between atoms: C_14  and  S_17
REMARK    4  A    between atoms: S_17  and  N_20
REMARK    5  A    between atoms: C_23  and  N_25
REMARK    6  A    between atoms: N_25  and  C_27
REMARK                            x       y       z     vdW  Elec       q    Type
REMARK                         _______ _______ _______ _____ _____    ______ ____
ROOT
ATOM      1  N   UNL     1      39.941   0.100  14.856  0.00  0.00    +0.000 N 
ATOM      2  N   UNL     1      39.908   0.889  15.961  0.00  0.00    +0.000 NA
ATOM      3  N   UNL     1      39.396   2.116  14.123  0.00  0.00    +0.000 NA
ATOM      4  N   UNL     1      39.737   0.483  12.449  0.00  0.00    +0.000 N 
ATOM      5  C   UNL     1      39.545   2.074  15.479  0.00  0.00    +0.000 A 
ATOM      6  C   UNL     1      39.687   0.900  13.739  0.00  0.00    +0.000 A 
ATOM      7  H   UNL     1      40.562  -0.053  12.176  0.00  0.00    +0.000 HD
ATOM      8  H   UNL     1      39.609   1.250  11.787  0.00  0.00    +0.000 HD
ATOM      9  N   UNL     1      39.322   3.222  16.140  0.00  0.00    +0.000 N 
ATOM     10  H   UNL     1      39.050   4.010  15.565  0.00  0.00    +0.000 HD
ENDROOT
BRANCH   9  11
ATOM     11  C   UNL     1      39.381   3.505  17.516  0.00  0.00    +0.000 A 
ATOM     12  C   UNL     1      39.315   4.838  17.941  0.00  0.00    +0.000 A 
ATOM     13  C   UNL     1      39.384   5.170  19.292  0.00  0.00    +0.000 A 
ATOM     14  C   UNL     1      39.537   4.156  20.228  0.00  0.00    +0.000 A 
ATOM     15  C   UNL     1      39.586   2.822  19.844  0.00  0.00    +0.000 A 
ATOM     16  C   UNL     1      39.518   2.507  18.490  0.00  0.00    +0.000 A 
BRANCH  14  17
ATOM     17  S   UNL     1      39.560   4.554  21.929  0.00  0.00    +0.000 S 
ATOM     18  O   UNL     1      40.720   5.368  22.212  0.00  0.00    +0.000 OA
ATOM     19  O   UNL     1      38.234   4.935  22.351  0.00  0.00    +0.000 OA
BRANCH  17  20
ATOM     20  N   UNL     1      39.867   3.065  22.642  0.00  0.00    +0.000 NA
ATOM     21  H   UNL     1      40.332   2.452  21.971  0.00  0.00    +0.000 HD
ATOM     22  H   UNL     1      40.391   3.201  23.508  0.00  0.00    +0.000 HD
ENDBRANCH  17  20
ENDBRANCH  14  17
ENDBRANCH   9  11
BRANCH   1  23
ATOM     23  C   UNL     1      40.187  -1.300  14.968  0.00  0.00    +0.000 C 
ATOM     24  S   UNL     1      39.057  -2.437  15.495  0.00  0.00    +0.000 S 
BRANCH  23  25
ATOM     25  N   UNL     1      41.454  -1.596  14.451  0.00  0.00    +0.000 N 
ATOM     26  H   UNL     1      42.062  -0.790  14.268  0.00  0.00    +0.000 HD
BRANCH  25  27
ATOM     27  C   UNL     1      41.949  -2.810  13.905  0.00  0.00    +0.000 A 
ATOM     28  C   UNL     1      42.633  -3.669  14.773  0.00  0.00    +0.000 A 
ATOM     29  F   UNL     1      42.802  -3.308  16.055  0.00  0.00    +0.000 F 
ATOM     30  C   UNL     1      43.153  -4.886  14.343  0.00  0.00    +0.000 A 
ATOM     31  C   UNL     1      42.970  -5.278  13.022  0.00  0.00    +0.000 A 
ATOM     32  C   UNL     1      42.237  -4.474  12.155  0.00  0.00    +0.000 A 
ATOM     33  C   UNL     1      41.724  -3.254  12.599  0.00  0.00    +0.000 A 
ATOM     34  F   UNL     1      40.878  -2.606  11.787  0.00  0.00    +0.000 F 
ENDBRANCH  25  27
ENDBRANCH  23  25
ENDBRANCH   1  23
TORSDOF 6
ENDMDL
MODEL 2
REMARK VINA RESULT:      -7.6      2.673      3.499
REMARK  Name = Cdk12_Inhibitor.pdbqt.pdb
REMARK  6 active torsions:
REMARK  status: ('A' for Active; 'I' for Inactive)
REMARK    1  A    between atoms: N_1  and  C_23
REMARK    2  A    between atoms: N_9  and  C_11
REMARK    3  A    between atoms: C_14  and  S_17
REMARK    4  A    between atoms: S_17  and  N_20
REMARK    5  A    between atoms: C_23  and  N_25
REMARK    6  A    between atoms: N_25  and  C_27
REMARK                            x       y       z     vdW  Elec       q    Type
REMARK                         _______ _______ _______ _____ _____    ______ ____
ROOT
ATOM      1  N   UNL     1      41.725  -2.031  16.870  0.00  0.00    +0.000 N 
ATOM      2  N   UNL     1      41.296  -0.814  17.294  0.00  0.00    +0.000 NA
ATOM      3  N   UNL     1      39.570  -2.285  17.308  0.00  0.00    +0.000 NA
ATOM      4  N   UNL     1      40.643  -4.165  16.359  0.00  0.00    +0.000 N 
ATOM      5  C   UNL     1      40.013  -1.023  17.576  0.00  0.00    +0.000 A 
ATOM      6  C   UNL     1      40.624  -2.892  16.828  0.00  0.00    +0.000 A 
ATOM      7  H   UNL     1      41.094  -4.308  15.454  0.00  0.00    +0.000 HD
ATOM      8  H   UNL     1      39.713  -4.584  16.333  0.00  0.00    +0.000 HD
ATOM      9  N   UNL     1      39.106  -0.163  18.070  0.00  0.00    +0.000 N 
ATOM     10  H   UNL     1      38.178  -0.542  18.209  0.00  0.00    +0.000 HD
ENDROOT
BRANCH   9  11
ATOM     11  C   UNL     1      39.245   1.182  18.453  0.00  0.00    +0.000 A 
ATOM     12  C   UNL     1      39.512   1.484  19.795  0.00  0.00    +0.000 A 
ATOM     13  C   UNL     1      39.643   2.801  20.228  0.00  0.00    +0.000 A 
ATOM     14  C   UNL     1      39.488   3.830  19.308  0.00  0.00    +0.000 A 
ATOM     15  C   UNL     1      39.242   3.568  17.966  0.00  0.00    +0.000 A 
ATOM     16  C   UNL     1      39.112   2.245  17.552  0.00  0.00    +0.000 A 
BRANCH  14  17
ATOM     17  S   UNL     1      39.713   5.484  19.825  0.00  0.00    +0.000 S 
ATOM     18  O   UNL     1      40.695   5.523  20.883  0.00  0.00    +0.000 OA
ATOM     19  O   UNL     1      39.797   6.341  18.668  0.00  0.00    +0.000 OA
BRANCH  17  20
ATOM     20  N   UNL     1      38.243   5.833  20.559  0.00  0.00    +0.000 NA
ATOM     21  H   UNL     1      38.407   6.235  21.482  0.00  0.00    +0.000 HD
ATOM     22  H   UNL     1      37.685   6.427  19.944  0.00  0.00    +0.000 HD
ENDBRANCH  17  20
ENDBRANCH  14  17
ENDBRANCH   9  11
BRANCH   1  23
ATOM     23  C   UNL     1      43.101  -2.255  16.572  0.00  0.00    +0.000 C 
ATOM     24  S   UNL     1      44.180  -3.081  17.571  0.00  0.00    +0.000 S 
BRANCH  23  25
ATOM     25  N   UNL     1      43.378  -1.805  15.275  0.00  0.00    +0.000 N 
ATOM     26  H   UNL     1      44.134  -1.118  15.192  0.00  0.00    +0.000 HD
BRANCH  25  27
ATOM     27  C   UNL     1      42.620  -1.956  14.083  0.00  0.00    +0.000 A 
ATOM     28  C   UNL     1      41.882  -0.847  13.652  0.00  0.00    +0.000 A 
ATOM     29  F   UNL     1      41.910   0.282  14.377  0.00  0.00    +0.000 F 
ATOM     30  C   UNL     1      41.111  -0.883  12.493  0.00  0.00    +0.000 A 
ATOM     31  C   UNL     1      41.087  -2.042  11.725  0.00  0.00    +0.000 A 
ATOM     32  C   UNL     1      41.864  -3.136  12.096  0.00  0.00    +0.000 A 
ATOM     33  C   UNL     1      42.629  -3.086  13.262  0.00  0.00    +0.000 A 
ATOM     34  F   UNL     1      43.494  -4.088  13.477  0.00  0.00    +0.000 F 
ENDBRANCH  25  27
ENDBRANCH  23  25
ENDBRANCH   1  23
TORSDOF 6
ENDMDL
MODEL 3
REMARK VINA RESULT:      -7.4      2.178      2.845
REMARK  Name = Cdk12_Inhibitor.pdbqt.pdb
REMARK  6 active torsions:
REMARK  status: ('A' for Active; 'I' for Inactive)
REMARK    1  A    between atoms: N_1  and  C_23
REMARK    2  A    between atoms: N_9  and  C_11
REMARK    3  A    between atoms: C_14  and  S_17
REMARK    4  A    between atoms: S_17  and  N_20
REMARK    5  A    between atoms: C_23  and  N_25
REMARK    6  A    between atoms: N_25  and  C_27
REMARK                            x       y       z     vdW  Elec       q    Type
REMARK                         _______ _______ _______ _____ _____    ______ ____
ROOT
ATOM      1  N   UNL     1      40.691  -1.185  15.058  0.00  0.00    +0.000 N 
ATOM      2  N   UNL     1      40.432  -0.101  15.836  0.00  0.00    +0.000 NA
ATOM      3  N   UNL     1      39.341  -1.914  16.654  0.00  0.00    +0.000 NA
ATOM      4  N   UNL     1      39.876  -3.490  14.976  0.00  0.00    +0.000 N 
ATOM      5  C   UNL     1      39.651  -0.593  16.793  0.00  0.00    +0.000 A 
ATOM      6  C   UNL     1      39.952  -2.264  15.552  0.00  0.00    +0.000 A 
ATOM      7  H   UNL     1      39.687  -3.510  13.973  0.00  0.00    +0.000 HD
ATOM      8  H   UNL     1      39.209  -4.101  15.449  0.00  0.00    +0.000 HD
ATOM      9  N   UNL     1      39.123   0.036  17.857  0.00  0.00    +0.000 N 
ATOM     10  H   UNL     1      38.553  -0.540  18.464  0.00  0.00    +0.000 HD
ENDROOT
BRANCH   9  11
ATOM     11  C   UNL     1      39.255   1.370  18.283  0.00  0.00    +0.000 A 
ATOM     12  C   UNL     1      39.584   1.628  19.620  0.00  0.00    +0.000 A 
ATOM     13  C   UNL     1      39.712   2.932  20.093  0.00  0.00    +0.000 A 
ATOM     14  C   UNL     1      39.491   3.990  19.221  0.00  0.00    +0.000 A 
ATOM     15  C   UNL     1      39.182   3.771  17.885  0.00  0.00    +0.000 A 
ATOM     16  C   UNL     1      39.056   2.462  17.428  0.00  0.00    +0.000 A 
BRANCH  14  17
ATOM     17  S   UNL     1      39.711   5.628  19.787  0.00  0.00    +0.000 S 
ATOM     18  O   UNL     1      40.686   5.638  20.853  0.00  0.00    +0.000 OA
ATOM     19  O   UNL     1      39.802   6.518  18.656  0.00  0.00    +0.000 OA
BRANCH  17  20
ATOM     20  N   UNL     1      38.236   5.955  20.521  0.00  0.00    +0.000 NA
ATOM     21  H   UNL     1      38.171   5.448  21.404  0.00  0.00    +0.000 HD
ATOM     22  H   UNL     1      38.116   6.964  20.615  0.00  0.00    +0.000 HD
ENDBRANCH  17  20
ENDBRANCH  14  17
ENDBRANCH   9  11
BRANCH   1  23
ATOM     23  C   UNL     1      41.602  -1.096  13.965  0.00  0.00    +0.000 C 
ATOM     24  S   UNL     1      41.204  -0.537  12.424  0.00  0.00    +0.000 S 
BRANCH  23  25
ATOM     25  N   UNL     1      42.892  -1.415  14.405  0.00  0.00    +0.000 N 
ATOM     26  H   UNL     1      43.597  -0.678  14.296  0.00  0.00    +0.000 HD
BRANCH  25  27
ATOM     27  C   UNL     1      43.446  -2.677  14.748  0.00  0.00    +0.000 A 
ATOM     28  C   UNL     1      43.820  -2.867  16.084  0.00  0.00    +0.000 A 
ATOM     29  F   UNL     1      43.656  -1.864  16.961  0.00  0.00    +0.000 F 
ATOM     30  C   UNL     1      44.366  -4.068  16.530  0.00  0.00    +0.000 A 
ATOM     31  C   UNL     1      44.525  -5.120  15.635  0.00  0.00    +0.000 A 
ATOM     32  C   UNL     1      44.100  -4.979  14.317  0.00  0.00    +0.000 A 
ATOM     33  C   UNL     1      43.558  -3.768  13.884  0.00  0.00    +0.000 A 
ATOM     34  F   UNL     1      43.001  -3.741  12.664  0.00  0.00    +0.000 F 
ENDBRANCH  25  27
ENDBRANCH  23  25
ENDBRANCH   1  23
TORSDOF 6
ENDMDL
MODEL 4
REMARK VINA RESULT:      -7.1     13.847     16.111
REMARK  Name = Cdk12_Inhibitor.pdbqt.pdb
REMARK  6 active torsions:
REMARK  status: ('A' for Active; 'I' for Inactive)
REMARK    1  A    between atoms: N_1  and  C_23
REMARK    2  A    between atoms: N_9  and  C_11
REMARK    3  A    between atoms: C_14  and  S_17
REMARK    4  A    between atoms: S_17  and  N_20
REMARK    5  A    between atoms: C_23  and  N_25
REMARK    6  A    between atoms: N_25  and  C_27
REMARK                            x       y       z     vdW  Elec       q    Type
REMARK                         _______ _______ _______ _____ _____    ______ ____
ROOT
ATOM      1  N   UNL     1      51.144   4.294  10.493  0.00  0.00    +0.000 N 
ATOM      2  N   UNL     1      51.025   3.268   9.610  0.00  0.00    +0.000 NA
ATOM      3  N   UNL     1      49.122   3.460  10.830  0.00  0.00    +0.000 NA
ATOM      4  N   UNL     1      49.777   5.171  12.323  0.00  0.00    +0.000 N 
ATOM      5  C   UNL     1      49.790   2.824   9.825  0.00  0.00    +0.000 A 
ATOM      6  C   UNL     1      49.983   4.341  11.269  0.00  0.00    +0.000 A 
ATOM      7  H   UNL     1      50.529   5.223  13.013  0.00  0.00    +0.000 HD
ATOM      8  H   UNL     1      48.900   4.976  12.806  0.00  0.00    +0.000 HD
ATOM      9  N   UNL     1      49.129   1.835   9.200  0.00  0.00    +0.000 N 
ATOM     10  H   UNL     1      48.186   1.666   9.529  0.00  0.00    +0.000 HD
ENDROOT
BRANCH   9  11
ATOM     11  C   UNL     1      49.527   1.006   8.137  0.00  0.00    +0.000 A 
ATOM     12  C   UNL     1      49.805  -0.344   8.393  0.00  0.00    +0.000 A 
ATOM     13  C   UNL     1      50.217  -1.202   7.377  0.00  0.00    +0.000 A 
ATOM     14  C   UNL     1      50.369  -0.699   6.091  0.00  0.00    +0.000 A 
ATOM     15  C   UNL     1      50.083   0.628   5.797  0.00  0.00    +0.000 A 
ATOM     16  C   UNL     1      49.674   1.473   6.825  0.00  0.00    +0.000 A 
BRANCH  14  17
ATOM     17  S   UNL     1      50.823  -1.780   4.795  0.00  0.00    +0.000 S 
ATOM     18  O   UNL     1      50.118  -1.404   3.591  0.00  0.00    +0.000 OA
ATOM     19  O   UNL     1      52.251  -1.982   4.817  0.00  0.00    +0.000 OA
BRANCH  17  20
ATOM     20  N   UNL     1      50.138  -3.234   5.284  0.00  0.00    +0.000 NA
ATOM     21  H   UNL     1      49.414  -3.056   5.980  0.00  0.00    +0.000 HD
ATOM     22  H   UNL     1      49.806  -3.748   4.467  0.00  0.00    +0.000 HD
ENDBRANCH  17  20
ENDBRANCH  14  17
ENDBRANCH   9  11
BRANCH   1  23
ATOM     23  C   UNL     1      52.308   5.118  10.500  0.00  0.00    +0.000 C 
ATOM     24  S   UNL     1      53.869   4.575  10.839  0.00  0.00    +0.000 S 
BRANCH  23  25
ATOM     25  N   UNL     1      51.975   6.403  10.054  0.00  0.00    +0.000 N 
ATOM     26  H   UNL     1      51.537   7.018  10.749  0.00  0.00    +0.000 HD
BRANCH  25  27
ATOM     27  C   UNL     1      51.915   6.916   8.731  0.00  0.00    +0.000 A 
ATOM     28  C   UNL     1      50.651   6.994   8.134  0.00  0.00    +0.000 A 
ATOM     29  F   UNL     1      49.575   6.577   8.818  0.00  0.00    +0.000 F 
ATOM     30  C   UNL     1      50.478   7.488   6.844  0.00  0.00    +0.000 A 
ATOM     31  C   UNL     1      51.583   7.939   6.131  0.00  0.00    +0.000 A 
ATOM     32  C   UNL     1      52.841   7.933   6.726  0.00  0.00    +0.000 A 
ATOM     33  C   UNL     1      53.000   7.433   8.019  0.00  0.00    +0.000 A 
ATOM     34  F   UNL     1      54.189   7.615   8.611  0.00  0.00    +0.000 F 
ENDBRANCH  25  27
ENDBRANCH  23  25
ENDBRANCH   1  23
TORSDOF 6
ENDMDL
MODEL 5
REMARK VINA RESULT:      -7.0      2.202      2.829
REMARK  Name = Cdk12_Inhibitor.pdbqt.pdb
REMARK  6 active torsions:
REMARK  status: ('A' for Active; 'I' for Inactive)
REMARK    1  A    between atoms: N_1  and  C_23
REMARK    2  A    between atoms: N_9  and  C_11
REMARK    3  A    between atoms: C_14  and  S_17
REMARK    4  A    between atoms: S_17  and  N_20
REMARK    5  A    between atoms: C_23  and  N_25
REMARK    6  A    between atoms: N_25  and  C_27
REMARK                            x       y       z     vdW  Elec       q    Type
REMARK                         _______ _______ _______ _____ _____    ______ ____
ROOT
ATOM      1  N   UNL     1      39.904  -0.426  15.672  0.00  0.00    +0.000 N 
ATOM      2  N   UNL     1      40.088   0.317  16.794  0.00  0.00    +0.000 NA
ATOM      3  N   UNL     1      38.955  -1.581  17.304  0.00  0.00    +0.000 NA
ATOM      4  N   UNL     1      38.679  -2.475  15.134  0.00  0.00    +0.000 N 
ATOM      5  C   UNL     1      39.535  -0.429  17.747  0.00  0.00    +0.000 A 
ATOM      6  C   UNL     1      39.147  -1.552  16.011  0.00  0.00    +0.000 A 
ATOM      7  H   UNL     1      38.211  -2.113  14.301  0.00  0.00    +0.000 HD
ATOM      8  H   UNL     1      38.073  -3.163  15.580  0.00  0.00    +0.000 HD
ATOM      9  N   UNL     1      39.462  -0.192  19.068  0.00  0.00    +0.000 N 
ATOM     10  H   UNL     1      38.992  -0.904  19.612  0.00  0.00    +0.000 HD
ENDROOT
BRANCH   9  11
ATOM     11  C   UNL     1      39.960   0.881  19.828  0.00  0.00    +0.000 A 
ATOM     12  C   UNL     1      39.222   2.071  19.890  0.00  0.00    +0.000 A 
ATOM     13  C   UNL     1      39.680   3.167  20.617  0.00  0.00    +0.000 A 
ATOM     14  C   UNL     1      40.899   3.077  21.275  0.00  0.00    +0.000 A 
ATOM     15  C   UNL     1      41.647   1.907  21.251  0.00  0.00    +0.000 A 
ATOM     16  C   UNL     1      41.177   0.822  20.519  0.00  0.00    +0.000 A 
BRANCH  14  17
ATOM     17  S   UNL     1      41.453   4.423  22.243  0.00  0.00    +0.000 S 
ATOM     18  O   UNL     1      40.864   5.644  21.743  0.00  0.00    +0.000 OA
ATOM     19  O   UNL     1      41.405   4.063  23.639  0.00  0.00    +0.000 OA
BRANCH  17  20
ATOM     20  N   UNL     1      43.081   4.509  21.838  0.00  0.00    +0.000 NA
ATOM     21  H   UNL     1      43.521   3.600  21.987  0.00  0.00    +0.000 HD
ATOM     22  H   UNL     1      43.180   4.863  20.886  0.00  0.00    +0.000 HD
ENDBRANCH  17  20
ENDBRANCH  14  17
ENDBRANCH   9  11
BRANCH   1  23
ATOM     23  C   UNL     1      40.463  -0.015  14.427  0.00  0.00    +0.000 C 
ATOM     24  S   UNL     1      39.598   0.717  13.177  0.00  0.00    +0.000 S 
BRANCH  23  25
ATOM     25  N   UNL     1      41.852  -0.190  14.458  0.00  0.00    +0.000 N 
ATOM     26  H   UNL     1      42.413   0.636  14.223  0.00  0.00    +0.000 HD
BRANCH  25  27
ATOM     27  C   UNL     1      42.613  -1.388  14.518  0.00  0.00    +0.000 A 
ATOM     28  C   UNL     1      43.167  -1.730  15.758  0.00  0.00    +0.000 A 
ATOM     29  F   UNL     1      42.971  -0.920  16.810  0.00  0.00    +0.000 F 
ATOM     30  C   UNL     1      43.924  -2.886  15.930  0.00  0.00    +0.000 A 
ATOM     31  C   UNL     1      44.120  -3.741  14.852  0.00  0.00    +0.000 A 
ATOM     32  C   UNL     1      43.525  -3.458  13.626  0.00  0.00    +0.000 A 
ATOM     33  C   UNL     1      42.772  -2.294  13.467  0.00  0.00    +0.000 A 
ATOM     34  F   UNL     1      42.075  -2.158  12.330  0.00  0.00    +0.000 F 
ENDBRANCH  25  27
ENDBRANCH  23  25
ENDBRANCH   1  23
TORSDOF 6
ENDMDL
MODEL 6
REMARK VINA RESULT:      -6.9     12.466     13.486
REMARK  Name = Cdk12_Inhibitor.pdbqt.pdb
REMARK  6 active torsions:
REMARK  status: ('A' for Active; 'I' for Inactive)
REMARK    1  A    between atoms: N_1  and  C_23
REMARK    2  A    between atoms: N_9  and  C_11
REMARK    3  A    between atoms: C_14  and  S_17
REMARK    4  A    between atoms: S_17  and  N_20
REMARK    5  A    between atoms: C_23  and  N_25
REMARK    6  A    between atoms: N_25  and  C_27
REMARK                            x       y       z     vdW  Elec       q    Type
REMARK                         _______ _______ _______ _____ _____    ______ ____
ROOT
ATOM      1  N   UNL     1      51.263   3.958   9.301  0.00  0.00    +0.000 N 
ATOM      2  N   UNL     1      51.772   3.280  10.362  0.00  0.00    +0.000 NA
ATOM      3  N   UNL     1      50.280   4.829  11.083  0.00  0.00    +0.000 NA
ATOM      4  N   UNL     1      49.781   5.887   9.029  0.00  0.00    +0.000 N 
ATOM      5  C   UNL     1      51.130   3.810  11.399  0.00  0.00    +0.000 A 
ATOM      6  C   UNL     1      50.400   4.945   9.786  0.00  0.00    +0.000 A 
ATOM      7  H   UNL     1      50.367   6.388   8.361  0.00  0.00    +0.000 HD
ATOM      8  H   UNL     1      49.270   6.566   9.594  0.00  0.00    +0.000 HD
ATOM      9  N   UNL     1      51.220   3.488  12.701  0.00  0.00    +0.000 N 
ATOM     10  H   UNL     1      50.632   4.028  13.324  0.00  0.00    +0.000 HD
ENDROOT
BRANCH   9  11
ATOM     11  C   UNL     1      51.985   2.497  13.342  0.00  0.00    +0.000 A 
ATOM     12  C   UNL     1      53.263   2.824  13.815  0.00  0.00    +0.000 A 
ATOM     13  C   UNL     1      54.064   1.874  14.443  0.00  0.00    +0.000 A 
ATOM     14  C   UNL     1      53.588   0.578  14.584  0.00  0.00    +0.000 A 
ATOM     15  C   UNL     1      52.318   0.223  14.145  0.00  0.00    +0.000 A 
ATOM     16  C   UNL     1      51.531   1.184  13.517  0.00  0.00    +0.000 A 
BRANCH  14  17
ATOM     17  S   UNL     1      54.558  -0.606  15.427  0.00  0.00    +0.000 S 
ATOM     18  O   UNL     1      54.525  -1.855  14.700  0.00  0.00    +0.000 OA
ATOM     19  O   UNL     1      55.795   0.002  15.852  0.00  0.00    +0.000 OA
BRANCH  17  20
ATOM     20  N   UNL     1      53.664  -0.873  16.824  0.00  0.00    +0.000 NA
ATOM     21  H   UNL     1      54.158  -1.531  17.427  0.00  0.00    +0.000 HD
ATOM     22  H   UNL     1      53.454   0.019  17.272  0.00  0.00    +0.000 HD
ENDBRANCH  17  20
ENDBRANCH  14  17
ENDBRANCH   9  11
BRANCH   1  23
ATOM     23  C   UNL     1      51.621   3.602   7.968  0.00  0.00    +0.000 C 
ATOM     24  S   UNL     1      53.115   3.924   7.254  0.00  0.00    +0.000 S 
BRANCH  23  25
ATOM     25  N   UNL     1      50.599   2.832   7.399  0.00  0.00    +0.000 N 
ATOM     26  H   UNL     1      50.024   3.304   6.692  0.00  0.00    +0.000 HD
BRANCH  25  27
ATOM     27  C   UNL     1      50.067   1.583   7.815  0.00  0.00    +0.000 A 
ATOM     28  C   UNL     1      50.736   0.430   7.389  0.00  0.00    +0.000 A 
ATOM     29  F   UNL     1      51.822   0.553   6.609  0.00  0.00    +0.000 F 
ATOM     30  C   UNL     1      50.305  -0.845   7.744  0.00  0.00    +0.000 A 
ATOM     31  C   UNL     1      49.191  -0.984   8.565  0.00  0.00    +0.000 A 
ATOM     32  C   UNL     1      48.546   0.147   9.057  0.00  0.00    +0.000 A 
ATOM     33  C   UNL     1      48.989   1.419   8.689  0.00  0.00    +0.000 A 
ATOM     34  F   UNL     1      48.454   2.469   9.327  0.00  0.00    +0.000 F 
ENDBRANCH  25  27
ENDBRANCH  23  25
ENDBRANCH   1  23
TORSDOF 6
ENDMDL
MODEL 7
REMARK VINA RESULT:      -6.8     14.183     16.497
REMARK  Name = Cdk12_Inhibitor.pdbqt.pdb
REMARK  6 active torsions:
REMARK  status: ('A' for Active; 'I' for Inactive)
REMARK    1  A    between atoms: N_1  and  C_23
REMARK    2  A    between atoms: N_9  and  C_11
REMARK    3  A    between atoms: C_14  and  S_17
REMARK    4  A    between atoms: S_17  and  N_20
REMARK    5  A    between atoms: C_23  and  N_25
REMARK    6  A    between atoms: N_25  and  C_27
REMARK                            x       y       z     vdW  Elec       q    Type
REMARK                         _______ _______ _______ _____ _____    ______ ____
ROOT
ATOM      1  N   UNL     1      50.502   4.383   9.539  0.00  0.00    +0.000 N 
ATOM      2  N   UNL     1      50.569   3.304   8.717  0.00  0.00    +0.000 NA
ATOM      3  N   UNL     1      49.323   2.802  10.545  0.00  0.00    +0.000 NA
ATOM      4  N   UNL     1      49.596   4.802  11.774  0.00  0.00    +0.000 N 
ATOM      5  C   UNL     1      49.823   2.398   9.341  0.00  0.00    +0.000 A 
ATOM      6  C   UNL     1      49.784   4.018  10.682  0.00  0.00    +0.000 A 
ATOM      7  H   UNL     1      50.426   5.264  12.149  0.00  0.00    +0.000 HD
ATOM      8  H   UNL     1      49.124   4.308  12.531  0.00  0.00    +0.000 HD
ATOM      9  N   UNL     1      49.513   1.148   8.955  0.00  0.00    +0.000 N 
ATOM     10  H   UNL     1      48.922   0.630   9.592  0.00  0.00    +0.000 HD
ENDROOT
BRANCH   9  11
ATOM     11  C   UNL     1      49.857   0.447   7.785  0.00  0.00    +0.000 A 
ATOM     12  C   UNL     1      49.794   1.109   6.552  0.00  0.00    +0.000 A 
ATOM     13  C   UNL     1      50.111   0.455   5.364  0.00  0.00    +0.000 A 
ATOM     14  C   UNL     1      50.478  -0.884   5.410  0.00  0.00    +0.000 A 
ATOM     15  C   UNL     1      50.569  -1.566   6.617  0.00  0.00    +0.000 A 
ATOM     16  C   UNL     1      50.248  -0.897   7.794  0.00  0.00    +0.000 A 
BRANCH  14  17
ATOM     17  S   UNL     1      50.938  -1.698   3.934  0.00  0.00    +0.000 S 
ATOM     18  O   UNL     1      52.358  -1.967   3.961  0.00  0.00    +0.000 OA
ATOM     19  O   UNL     1      49.969  -2.722   3.628  0.00  0.00    +0.000 OA
BRANCH  17  20
ATOM     20  N   UNL     1      50.728  -0.496   2.780  0.00  0.00    +0.000 NA
ATOM     21  H   UNL     1      49.815  -0.057   2.904  0.00  0.00    +0.000 HD
ATOM     22  H   UNL     1      51.509   0.159   2.821  0.00  0.00    +0.000 HD
ENDBRANCH  17  20
ENDBRANCH  14  17
ENDBRANCH   9  11
BRANCH   1  23
ATOM     23  C   UNL     1      51.093   5.625   9.162  0.00  0.00    +0.000 C 
ATOM     24  S   UNL     1      52.230   6.467  10.080  0.00  0.00    +0.000 S 
BRANCH  23  25
ATOM     25  N   UNL     1      50.686   5.962   7.866  0.00  0.00    +0.000 N 
ATOM     26  H   UNL     1      49.763   5.615   7.582  0.00  0.00    +0.000 HD
BRANCH  25  27
ATOM     27  C   UNL     1      51.443   6.494   6.789  0.00  0.00    +0.000 A 
ATOM     28  C   UNL     1      52.212   5.594   6.042  0.00  0.00    +0.000 A 
ATOM     29  F   UNL     1      52.211   4.294   6.379  0.00  0.00    +0.000 F 
ATOM     30  C   UNL     1      52.985   6.008   4.961  0.00  0.00    +0.000 A 
ATOM     31  C   UNL     1      52.981   7.348   4.592  0.00  0.00    +0.000 A 
ATOM     32  C   UNL     1      52.174   8.253   5.276  0.00  0.00    +0.000 A 
ATOM     33  C   UNL     1      51.407   7.823   6.360  0.00  0.00    +0.000 A 
ATOM     34  F   UNL     1      50.515   8.687   6.867  0.00  0.00    +0.000 F 
ENDBRANCH  25  27
ENDBRANCH  23  25
ENDBRANCH   1  23
TORSDOF 6
ENDMDL
MODEL 8
REMARK VINA RESULT:      -6.7      4.809      8.811
REMARK  Name = Cdk12_Inhibitor.pdbqt.pdb
REMARK  6 active torsions:
REMARK  status: ('A' for Active; 'I' for Inactive)
REMARK    1  A    between atoms: N_1  and  C_23
REMARK    2  A    between atoms: N_9  and  C_11
REMARK    3  A    between atoms: C_14  and  S_17
REMARK    4  A    between atoms: S_17  and  N_20
REMARK    5  A    between atoms: C_23  and  N_25
REMARK    6  A    between atoms: N_25  and  C_27
REMARK                            x       y       z     vdW  Elec       q    Type
REMARK                         _______ _______ _______ _____ _____    ______ ____
ROOT
ATOM      1  N   UNL     1      41.178   0.628  19.915  0.00  0.00    +0.000 N 
ATOM      2  N   UNL     1      41.214   0.269  18.606  0.00  0.00    +0.000 NA
ATOM      3  N   UNL     1      43.298   0.825  19.310  0.00  0.00    +0.000 NA
ATOM      4  N   UNL     1      42.796   1.547  21.504  0.00  0.00    +0.000 N 
ATOM      5  C   UNL     1      42.504   0.369  18.298  0.00  0.00    +0.000 A 
ATOM      6  C   UNL     1      42.463   1.027  20.296  0.00  0.00    +0.000 A 
ATOM      7  H   UNL     1      42.199   2.297  21.855  0.00  0.00    +0.000 HD
ATOM      8  H   UNL     1      43.768   1.856  21.539  0.00  0.00    +0.000 HD
ATOM      9  N   UNL     1      43.117   0.097  17.134  0.00  0.00    +0.000 N 
ATOM     10  H   UNL     1      44.119   0.245  17.125  0.00  0.00    +0.000 HD
ENDROOT
BRANCH   9  11
ATOM     11  C   UNL     1      42.594  -0.389  15.923  0.00  0.00    +0.000 A 
ATOM     12  C   UNL     1      41.566   0.324  15.290  0.00  0.00    +0.000 A 
ATOM     13  C   UNL     1      41.005  -0.124  14.098  0.00  0.00    +0.000 A 
ATOM     14  C   UNL     1      41.466  -1.309  13.539  0.00  0.00    +0.000 A 
ATOM     15  C   UNL     1      42.496  -2.031  14.128  0.00  0.00    +0.000 A 
ATOM     16  C   UNL     1      43.045  -1.571  15.321  0.00  0.00    +0.000 A 
BRANCH  14  17
ATOM     17  S   UNL     1      40.814  -1.848  12.010  0.00  0.00    +0.000 S 
ATOM     18  O   UNL     1      39.377  -1.963  12.118  0.00  0.00    +0.000 OA
ATOM     19  O   UNL     1      41.446  -1.122  10.936  0.00  0.00    +0.000 OA
BRANCH  17  20
ATOM     20  N   UNL     1      41.388  -3.423  11.911  0.00  0.00    +0.000 NA
ATOM     21  H   UNL     1      41.831  -3.684  12.792  0.00  0.00    +0.000 HD
ATOM     22  H   UNL     1      40.630  -4.047  11.630  0.00  0.00    +0.000 HD
ENDBRANCH  17  20
ENDBRANCH  14  17
ENDBRANCH   9  11
BRANCH   1  23
ATOM     23  C   UNL     1      39.965   0.544  20.661  0.00  0.00    +0.000 C 
ATOM     24  S   UNL     1      39.754  -0.384  22.053  0.00  0.00    +0.000 S 
BRANCH  23  25
ATOM     25  N   UNL     1      39.031   1.446  20.137  0.00  0.00    +0.000 N 
ATOM     26  H   UNL     1      38.135   1.042  19.842  0.00  0.00    +0.000 HD
BRANCH  25  27
ATOM     27  C   UNL     1      39.207   2.790  19.716  0.00  0.00    +0.000 A 
ATOM     28  C   UNL     1      39.509   3.735  20.704  0.00  0.00    +0.000 A 
ATOM     29  F   UNL     1      39.601   3.338  21.984  0.00  0.00    +0.000 F 
ATOM     30  C   UNL     1      39.709   5.079  20.401  0.00  0.00    +0.000 A 
ATOM     31  C   UNL     1      39.632   5.498  19.077  0.00  0.00    +0.000 A 
ATOM     32  C   UNL     1      39.400   4.568  18.068  0.00  0.00    +0.000 A 
ATOM     33  C   UNL     1      39.198   3.225  18.388  0.00  0.00    +0.000 A 
ATOM     34  F   UNL     1      39.159   2.347  17.376  0.00  0.00    +0.000 F 
ENDBRANCH  25  27
ENDBRANCH  23  25
ENDBRANCH   1  23
TORSDOF 6
ENDMDL
MODEL 9
REMARK VINA RESULT:      -6.6      4.683      7.435
REMARK  Name = Cdk12_Inhibitor.pdbqt.pdb
REMARK  6 active torsions:
REMARK  status: ('A' for Active; 'I' for Inactive)
REMARK    1  A    between atoms: N_1  and  C_23
REMARK    2  A    between atoms: N_9  and  C_11
REMARK    3  A    between atoms: C_14  and  S_17
REMARK    4  A    between atoms: S_17  and  N_20
REMARK    5  A    between atoms: C_23  and  N_25
REMARK    6  A    between atoms: N_25  and  C_27
REMARK                            x       y       z     vdW  Elec       q    Type
REMARK                         _______ _______ _______ _____ _____    ______ ____
ROOT
ATOM      1  N   UNL     1      40.823   1.564  19.731  0.00  0.00    +0.000 N 
ATOM      2  N   UNL     1      40.758   1.088  18.461  0.00  0.00    +0.000 NA
ATOM      3  N   UNL     1      39.061   2.549  18.823  0.00  0.00    +0.000 NA
ATOM      4  N   UNL     1      39.402   2.992  21.120  0.00  0.00    +0.000 N 
ATOM      5  C   UNL     1      39.712   1.730  17.948  0.00  0.00    +0.000 A 
ATOM      6  C   UNL     1      39.729   2.408  19.939  0.00  0.00    +0.000 A 
ATOM      7  H   UNL     1      39.395   2.384  21.940  0.00  0.00    +0.000 HD
ATOM      8  H   UNL     1      38.514   3.493  21.074  0.00  0.00    +0.000 HD
ATOM      9  N   UNL     1      39.211   1.667  16.703  0.00  0.00    +0.000 N 
ATOM     10  H   UNL     1      38.401   2.249  16.530  0.00  0.00    +0.000 HD
ENDROOT
BRANCH   9  11
ATOM     11  C   UNL     1      39.647   0.937  15.583  0.00  0.00    +0.000 A 
ATOM     12  C   UNL     1      40.169  -0.350  15.771  0.00  0.00    +0.000 A 
ATOM     13  C   UNL     1      40.628  -1.107  14.696  0.00  0.00    +0.000 A 
ATOM     14  C   UNL     1      40.580  -0.563  13.420  0.00  0.00    +0.000 A 
ATOM     15  C   UNL     1      40.052   0.702  13.194  0.00  0.00    +0.000 A 
ATOM     16  C   UNL     1      39.599   1.446  14.280  0.00  0.00    +0.000 A 
BRANCH  14  17
ATOM     17  S   UNL     1      41.094  -1.527  12.056  0.00  0.00    +0.000 S 
ATOM     18  O   UNL     1      42.312  -2.225  12.397  0.00  0.00    +0.000 OA
ATOM     19  O   UNL     1      39.953  -2.205  11.491  0.00  0.00    +0.000 OA
BRANCH  17  20
ATOM     20  N   UNL     1      41.542  -0.356  10.938  0.00  0.00    +0.000 NA
ATOM     21  H   UNL     1      42.554  -0.369  10.813  0.00  0.00    +0.000 HD
ATOM     22  H   UNL     1      41.018  -0.490  10.072  0.00  0.00    +0.000 HD
ENDBRANCH  17  20
ENDBRANCH  14  17
ENDBRANCH   9  11
BRANCH   1  23
ATOM     23  C   UNL     1      41.898   1.196  20.592  0.00  0.00    +0.000 C 
ATOM     24  S   UNL     1      42.895   2.286  21.408  0.00  0.00    +0.000 S 
BRANCH  23  25
ATOM     25  N   UNL     1      41.910  -0.194  20.758  0.00  0.00    +0.000 N 
ATOM     26  H   UNL     1      41.552  -0.541  21.655  0.00  0.00    +0.000 HD
BRANCH  25  27
ATOM     27  C   UNL     1      42.565  -1.193  19.990  0.00  0.00    +0.000 A 
ATOM     28  C   UNL     1      41.755  -2.080  19.272  0.00  0.00    +0.000 A 
ATOM     29  F   UNL     1      40.420  -1.960  19.352  0.00  0.00    +0.000 F 
ATOM     30  C   UNL     1      42.293  -3.091  18.481  0.00  0.00    +0.000 A 
ATOM     31  C   UNL     1      43.674  -3.215  18.378  0.00  0.00    +0.000 A 
ATOM     32  C   UNL     1      44.502  -2.305  19.028  0.00  0.00    +0.000 A 
ATOM     33  C   UNL     1      43.948  -1.298  19.820  0.00  0.00    +0.000 A 
ATOM     34  F   UNL     1      44.773  -0.344  20.274  0.00  0.00    +0.000 F 
ENDBRANCH  25  27
ENDBRANCH  23  25
ENDBRANCH   1  23
TORSDOF 6
ENDMDL
