MODEL 1
REMARK VINA RESULT:      -7.7      0.000      0.000
REMARK  Name = CHEMBL35349.pdbqt.pdb
REMARK  2 active torsions:
REMARK  status: ('A' for Active; 'I' for Inactive)
REMARK    1  A    between atoms: C_2  and  C_11
REMARK    2  A    between atoms: C_5  and  O_21
REMARK                            x       y       z     vdW  Elec       q    Type
REMARK                         _______ _______ _______ _____ _____    ______ ____
ROOT
ATOM      1  N   UNL     1      40.333   0.652  12.539  0.00  0.00    +0.000 N 
ATOM      2  C   UNL     1      41.423  -1.073  13.446  0.00  0.00    +0.000 A 
ATOM      3  C   UNL     1      40.855  -0.267  14.493  0.00  0.00    +0.000 A 
ATOM      4  C   UNL     1      40.184   0.798  13.894  0.00  0.00    +0.000 A 
ATOM      5  C   UNL     1      41.073  -0.464  12.250  0.00  0.00    +0.000 A 
ATOM      6  C   UNL     1      40.852  -0.346  15.900  0.00  0.00    +0.000 A 
ATOM      7  C   UNL     1      39.511   1.786  14.619  0.00  0.00    +0.000 A 
ATOM      8  C   UNL     1      40.185   0.629  16.645  0.00  0.00    +0.000 A 
ATOM      9  C   UNL     1      39.527   1.676  16.010  0.00  0.00    +0.000 A 
ATOM     10  H   UNL     1      39.955   1.273  11.838  0.00  0.00    +0.000 HD
ENDROOT
BRANCH   2  11
ATOM     11  C   UNL     1      42.204  -2.279  13.608  0.00  0.00    +0.000 C 
ATOM     12  N   UNL     1      43.200  -2.362  14.452  0.00  0.00    +0.000 NA
ATOM     13  C   UNL     1      43.714  -3.669  14.334  0.00  0.00    +0.000 A 
ATOM     14  C   UNL     1      43.047  -4.457  13.399  0.00  0.00    +0.000 A 
ATOM     15  C   UNL     1      44.776  -4.203  15.039  0.00  0.00    +0.000 A 
ATOM     16  C   UNL     1      42.013  -3.596  12.862  0.00  0.00    +0.000 C 
ATOM     17  C   UNL     1      43.373  -5.765  13.115  0.00  0.00    +0.000 A 
ATOM     18  O   UNL     1      41.179  -3.834  12.020  0.00  0.00    +0.000 OA
ATOM     19  C   UNL     1      44.445  -6.298  13.828  0.00  0.00    +0.000 A 
ATOM     20  C   UNL     1      45.139  -5.529  14.778  0.00  0.00    +0.000 A 
ENDBRANCH   2  11
BRANCH   5  21
ATOM     21  O   UNL     1      41.299  -0.734  10.969  0.00  0.00    +0.000 OA
ATOM     22  H   UNL     1      40.451  -0.928  10.509  0.00  0.00    +0.000 HD
ENDBRANCH   5  21
TORSDOF 2
ENDMDL
MODEL 2
REMARK VINA RESULT:      -6.5      2.663      4.051
REMARK  Name = CHEMBL35349.pdbqt.pdb
REMARK  2 active torsions:
REMARK  status: ('A' for Active; 'I' for Inactive)
REMARK    1  A    between atoms: C_2  and  C_11
REMARK    2  A    between atoms: C_5  and  O_21
REMARK                            x       y       z     vdW  Elec       q    Type
REMARK                         _______ _______ _______ _____ _____    ______ ____
ROOT
ATOM      1  N   UNL     1      43.078  -1.663  15.431  0.00  0.00    +0.000 N 
ATOM      2  C   UNL     1      43.485  -3.601  14.399  0.00  0.00    +0.000 A 
ATOM      3  C   UNL     1      42.671  -2.773  13.551  0.00  0.00    +0.000 A 
ATOM      4  C   UNL     1      42.436  -1.575  14.223  0.00  0.00    +0.000 A 
ATOM      5  C   UNL     1      43.713  -2.870  15.556  0.00  0.00    +0.000 A 
ATOM      6  C   UNL     1      42.109  -2.935  12.268  0.00  0.00    +0.000 A 
ATOM      7  C   UNL     1      41.673  -0.531  13.689  0.00  0.00    +0.000 A 
ATOM      8  C   UNL     1      41.345  -1.906  11.714  0.00  0.00    +0.000 A 
ATOM      9  C   UNL     1      41.134  -0.725  12.417  0.00  0.00    +0.000 A 
ATOM     10  H   UNL     1      43.091  -0.945  16.141  0.00  0.00    +0.000 HD
ENDROOT
BRANCH   2  11
ATOM     11  C   UNL     1      43.970  -4.930  14.104  0.00  0.00    +0.000 C 
ATOM     12  N   UNL     1      45.178  -5.153  13.654  0.00  0.00    +0.000 NA
ATOM     13  C   UNL     1      45.290  -6.548  13.486  0.00  0.00    +0.000 A 
ATOM     14  C   UNL     1      44.140  -7.253  13.832  0.00  0.00    +0.000 A 
ATOM     15  C   UNL     1      46.398  -7.236  13.029  0.00  0.00    +0.000 A 
ATOM     16  C   UNL     1      43.199  -6.238  14.260  0.00  0.00    +0.000 C 
ATOM     17  C   UNL     1      44.017  -8.623  13.750  0.00  0.00    +0.000 A 
ATOM     18  O   UNL     1      42.063  -6.362  14.653  0.00  0.00    +0.000 OA
ATOM     19  C   UNL     1      45.136  -9.312  13.288  0.00  0.00    +0.000 A 
ATOM     20  C   UNL     1      46.312  -8.629  12.931  0.00  0.00    +0.000 A 
ENDBRANCH   2  11
BRANCH   5  21
ATOM     21  O   UNL     1      44.381  -3.098  16.681  0.00  0.00    +0.000 OA
ATOM     22  H   UNL     1      44.992  -3.861  16.564  0.00  0.00    +0.000 HD
ENDBRANCH   5  21
TORSDOF 2
ENDMDL
MODEL 3
REMARK VINA RESULT:      -6.4     11.419     12.773
REMARK  Name = CHEMBL35349.pdbqt.pdb
REMARK  2 active torsions:
REMARK  status: ('A' for Active; 'I' for Inactive)
REMARK    1  A    between atoms: C_2  and  C_11
REMARK    2  A    between atoms: C_5  and  O_21
REMARK                            x       y       z     vdW  Elec       q    Type
REMARK                         _______ _______ _______ _____ _____    ______ ____
ROOT
ATOM      1  N   UNL     1      48.845   2.584   9.453  0.00  0.00    +0.000 N 
ATOM      2  C   UNL     1      50.240   3.807  10.696  0.00  0.00    +0.000 A 
ATOM      3  C   UNL     1      50.905   2.599  10.285  0.00  0.00    +0.000 A 
ATOM      4  C   UNL     1      50.009   1.862   9.514  0.00  0.00    +0.000 A 
ATOM      5  C   UNL     1      48.964   3.754  10.156  0.00  0.00    +0.000 A 
ATOM      6  C   UNL     1      52.191   2.066  10.501  0.00  0.00    +0.000 A 
ATOM      7  C   UNL     1      50.324   0.622   8.947  0.00  0.00    +0.000 A 
ATOM      8  C   UNL     1      52.528   0.830   9.944  0.00  0.00    +0.000 A 
ATOM      9  C   UNL     1      51.606   0.124   9.180  0.00  0.00    +0.000 A 
ATOM     10  H   UNL     1      48.008   2.305   8.963  0.00  0.00    +0.000 HD
ENDROOT
BRANCH   2  11
ATOM     11  C   UNL     1      50.793   4.866  11.510  0.00  0.00    +0.000 C 
ATOM     12  N   UNL     1      50.180   5.330  12.568  0.00  0.00    +0.000 NA
ATOM     13  C   UNL     1      51.009   6.340  13.098  0.00  0.00    +0.000 A 
ATOM     14  C   UNL     1      52.183   6.543  12.378  0.00  0.00    +0.000 A 
ATOM     15  C   UNL     1      50.759   7.107  14.221  0.00  0.00    +0.000 A 
ATOM     16  C   UNL     1      52.118   5.589  11.289  0.00  0.00    +0.000 C 
ATOM     17  C   UNL     1      53.143   7.476  12.707  0.00  0.00    +0.000 A 
ATOM     18  O   UNL     1      52.910   5.388  10.398  0.00  0.00    +0.000 OA
ATOM     19  C   UNL     1      52.886   8.246  13.839  0.00  0.00    +0.000 A 
ATOM     20  C   UNL     1      51.710   8.066  14.587  0.00  0.00    +0.000 A 
ENDBRANCH   2  11
BRANCH   5  21
ATOM     21  O   UNL     1      47.909   4.561  10.186  0.00  0.00    +0.000 OA
ATOM     22  H   UNL     1      47.583   4.726   9.272  0.00  0.00    +0.000 HD
ENDBRANCH   5  21
TORSDOF 2
ENDMDL
MODEL 4
REMARK VINA RESULT:      -6.3      9.779     11.060
REMARK  Name = CHEMBL35349.pdbqt.pdb
REMARK  2 active torsions:
REMARK  status: ('A' for Active; 'I' for Inactive)
REMARK    1  A    between atoms: C_2  and  C_11
REMARK    2  A    between atoms: C_5  and  O_21
REMARK                            x       y       z     vdW  Elec       q    Type
REMARK                         _______ _______ _______ _____ _____    ______ ____
ROOT
ATOM      1  N   UNL     1      48.634   2.807   9.380  0.00  0.00    +0.000 N 
ATOM      2  C   UNL     1      50.228   2.169  10.808  0.00  0.00    +0.000 A 
ATOM      3  C   UNL     1      50.313   1.372   9.613  0.00  0.00    +0.000 A 
ATOM      4  C   UNL     1      49.307   1.795   8.747  0.00  0.00    +0.000 A 
ATOM      5  C   UNL     1      49.170   3.046  10.617  0.00  0.00    +0.000 A 
ATOM      6  C   UNL     1      51.158   0.326   9.191  0.00  0.00    +0.000 A 
ATOM      7  C   UNL     1      49.097   1.233   7.483  0.00  0.00    +0.000 A 
ATOM      8  C   UNL     1      50.967  -0.250   7.933  0.00  0.00    +0.000 A 
ATOM      9  C   UNL     1      49.952   0.200   7.097  0.00  0.00    +0.000 A 
ATOM     10  H   UNL     1      47.849   3.315   8.999  0.00  0.00    +0.000 HD
ENDROOT
BRANCH   2  11
ATOM     11  C   UNL     1      51.076   2.075  11.974  0.00  0.00    +0.000 C 
ATOM     12  N   UNL     1      51.958   2.992  12.277  0.00  0.00    +0.000 NA
ATOM     13  C   UNL     1      52.586   2.565  13.464  0.00  0.00    +0.000 A 
ATOM     14  C   UNL     1      52.111   1.349  13.949  0.00  0.00    +0.000 A 
ATOM     15  C   UNL     1      53.588   3.226  14.150  0.00  0.00    +0.000 A 
ATOM     16  C   UNL     1      51.089   0.948  13.004  0.00  0.00    +0.000 C 
ATOM     17  C   UNL     1      52.576   0.736  15.092  0.00  0.00    +0.000 A 
ATOM     18  O   UNL     1      50.393  -0.040  13.000  0.00  0.00    +0.000 OA
ATOM     19  C   UNL     1      53.585   1.406  15.780  0.00  0.00    +0.000 A 
ATOM     20  C   UNL     1      54.086   2.635  15.316  0.00  0.00    +0.000 A 
ENDBRANCH   2  11
BRANCH   5  21
ATOM     21  O   UNL     1      48.617   4.006  11.350  0.00  0.00    +0.000 OA
ATOM     22  H   UNL     1      48.098   4.614  10.776  0.00  0.00    +0.000 HD
ENDBRANCH   5  21
TORSDOF 2
ENDMDL
MODEL 5
REMARK VINA RESULT:      -6.2      3.364      8.023
REMARK  Name = CHEMBL35349.pdbqt.pdb
REMARK  2 active torsions:
REMARK  status: ('A' for Active; 'I' for Inactive)
REMARK    1  A    between atoms: C_2  and  C_11
REMARK    2  A    between atoms: C_5  and  O_21
REMARK                            x       y       z     vdW  Elec       q    Type
REMARK                         _______ _______ _______ _____ _____    ______ ____
ROOT
ATOM      1  N   UNL     1      43.593  -9.643  13.259  0.00  0.00    +0.000 N 
ATOM      2  C   UNL     1      43.685  -7.414  13.168  0.00  0.00    +0.000 A 
ATOM      3  C   UNL     1      44.986  -7.954  12.880  0.00  0.00    +0.000 A 
ATOM      4  C   UNL     1      44.893  -9.343  12.946  0.00  0.00    +0.000 A 
ATOM      5  C   UNL     1      42.852  -8.499  13.397  0.00  0.00    +0.000 A 
ATOM      6  C   UNL     1      46.237  -7.386  12.570  0.00  0.00    +0.000 A 
ATOM      7  C   UNL     1      45.979 -10.196  12.719  0.00  0.00    +0.000 A 
ATOM      8  C   UNL     1      47.335  -8.218  12.339  0.00  0.00    +0.000 A 
ATOM      9  C   UNL     1      47.203  -9.600  12.414  0.00  0.00    +0.000 A 
ATOM     10  H   UNL     1      43.218 -10.573  13.375  0.00  0.00    +0.000 HD
ENDROOT
BRANCH   2  11
ATOM     11  C   UNL     1      43.317  -6.016  13.210  0.00  0.00    +0.000 C 
ATOM     12  N   UNL     1      42.426  -5.500  12.403  0.00  0.00    +0.000 NA
ATOM     13  C   UNL     1      42.332  -4.133  12.734  0.00  0.00    +0.000 A 
ATOM     14  C   UNL     1      43.174  -3.744  13.773  0.00  0.00    +0.000 A 
ATOM     15  C   UNL     1      41.511  -3.195  12.138  0.00  0.00    +0.000 A 
ATOM     16  C   UNL     1      43.875  -4.954  14.153  0.00  0.00    +0.000 C 
ATOM     17  C   UNL     1      43.254  -2.460  14.266  0.00  0.00    +0.000 A 
ATOM     18  O   UNL     1      44.712  -5.119  15.010  0.00  0.00    +0.000 OA
ATOM     19  C   UNL     1      42.425  -1.518  13.661  0.00  0.00    +0.000 A 
ATOM     20  C   UNL     1      41.564  -1.880  12.610  0.00  0.00    +0.000 A 
ENDBRANCH   2  11
BRANCH   5  21
ATOM     21  O   UNL     1      41.566  -8.635  13.701  0.00  0.00    +0.000 OA
ATOM     22  H   UNL     1      41.193  -7.771  13.988  0.00  0.00    +0.000 HD
ENDBRANCH   5  21
TORSDOF 2
ENDMDL
MODEL 6
REMARK VINA RESULT:      -6.1     19.844     21.654
REMARK  Name = CHEMBL35349.pdbqt.pdb
REMARK  2 active torsions:
REMARK  status: ('A' for Active; 'I' for Inactive)
REMARK    1  A    between atoms: C_2  and  C_11
REMARK    2  A    between atoms: C_5  and  O_21
REMARK                            x       y       z     vdW  Elec       q    Type
REMARK                         _______ _______ _______ _____ _____    ______ ____
ROOT
ATOM      1  N   UNL     1      53.593  16.982  15.514  0.00  0.00    +0.000 N 
ATOM      2  C   UNL     1      52.445  16.656  13.627  0.00  0.00    +0.000 A 
ATOM      3  C   UNL     1      53.124  15.440  13.986  0.00  0.00    +0.000 A 
ATOM      4  C   UNL     1      53.829  15.678  15.164  0.00  0.00    +0.000 A 
ATOM      5  C   UNL     1      52.766  17.586  14.605  0.00  0.00    +0.000 A 
ATOM      6  C   UNL     1      53.204  14.156  13.413  0.00  0.00    +0.000 A 
ATOM      7  C   UNL     1      54.608  14.707  15.802  0.00  0.00    +0.000 A 
ATOM      8  C   UNL     1      53.974  13.170  14.032  0.00  0.00    +0.000 A 
ATOM      9  C   UNL     1      54.664  13.446  15.208  0.00  0.00    +0.000 A 
ATOM     10  H   UNL     1      53.971  17.448  16.327  0.00  0.00    +0.000 HD
ENDROOT
BRANCH   2  11
ATOM     11  C   UNL     1      51.596  16.867  12.477  0.00  0.00    +0.000 C 
ATOM     12  N   UNL     1      52.015  17.480  11.399  0.00  0.00    +0.000 NA
ATOM     13  C   UNL     1      50.927  17.498  10.503  0.00  0.00    +0.000 A 
ATOM     14  C   UNL     1      49.777  16.889  10.998  0.00  0.00    +0.000 A 
ATOM     15  C   UNL     1      50.913  18.046   9.234  0.00  0.00    +0.000 A 
ATOM     16  C   UNL     1      50.141  16.435  12.325  0.00  0.00    +0.000 C 
ATOM     17  C   UNL     1      48.592  16.787  10.301  0.00  0.00    +0.000 A 
ATOM     18  O   UNL     1      49.473  15.850  13.145  0.00  0.00    +0.000 OA
ATOM     19  C   UNL     1      48.584  17.341   9.023  0.00  0.00    +0.000 A 
ATOM     20  C   UNL     1      49.729  17.963   8.494  0.00  0.00    +0.000 A 
ENDBRANCH   2  11
BRANCH   5  21
ATOM     21  O   UNL     1      52.448  18.858  14.816  0.00  0.00    +0.000 OA
ATOM     22  H   UNL     1      53.210  19.337  15.216  0.00  0.00    +0.000 HD
ENDBRANCH   5  21
TORSDOF 2
ENDMDL
MODEL 7
REMARK VINA RESULT:      -6.1      1.811      2.579
REMARK  Name = CHEMBL35349.pdbqt.pdb
REMARK  2 active torsions:
REMARK  status: ('A' for Active; 'I' for Inactive)
REMARK    1  A    between atoms: C_2  and  C_11
REMARK    2  A    between atoms: C_5  and  O_21
REMARK                            x       y       z     vdW  Elec       q    Type
REMARK                         _______ _______ _______ _____ _____    ______ ____
ROOT
ATOM      1  N   UNL     1      40.717  -0.996  13.446  0.00  0.00    +0.000 N 
ATOM      2  C   UNL     1      42.070  -2.712  13.904  0.00  0.00    +0.000 A 
ATOM      3  C   UNL     1      42.047  -1.812  15.026  0.00  0.00    +0.000 A 
ATOM      4  C   UNL     1      41.196  -0.756  14.707  0.00  0.00    +0.000 A 
ATOM      5  C   UNL     1      41.229  -2.164  12.946  0.00  0.00    +0.000 A 
ATOM      6  C   UNL     1      42.676  -1.801  16.287  0.00  0.00    +0.000 A 
ATOM      7  C   UNL     1      40.938   0.310  15.575  0.00  0.00    +0.000 A 
ATOM      8  C   UNL     1      42.432  -0.747  17.170  0.00  0.00    +0.000 A 
ATOM      9  C   UNL     1      41.577   0.289  16.816  0.00  0.00    +0.000 A 
ATOM     10  H   UNL     1      40.075  -0.403  12.941  0.00  0.00    +0.000 HD
ENDROOT
BRANCH   2  11
ATOM     11  C   UNL     1      42.820  -3.943  13.796  0.00  0.00    +0.000 C 
ATOM     12  N   UNL     1      42.253  -5.087  13.512  0.00  0.00    +0.000 NA
ATOM     13  C   UNL     1      43.284  -6.049  13.492  0.00  0.00    +0.000 A 
ATOM     14  C   UNL     1      44.547  -5.530  13.767  0.00  0.00    +0.000 A 
ATOM     15  C   UNL     1      43.146  -7.400  13.234  0.00  0.00    +0.000 A 
ATOM     16  C   UNL     1      44.325  -4.115  13.984  0.00  0.00    +0.000 C 
ATOM     17  C   UNL     1      45.702  -6.279  13.802  0.00  0.00    +0.000 A 
ATOM     18  O   UNL     1      45.121  -3.246  14.253  0.00  0.00    +0.000 OA
ATOM     19  C   UNL     1      45.558  -7.641  13.542  0.00  0.00    +0.000 A 
ATOM     20  C   UNL     1      44.296  -8.195  13.261  0.00  0.00    +0.000 A 
ENDBRANCH   2  11
BRANCH   5  21
ATOM     21  O   UNL     1      40.851  -2.527  11.727  0.00  0.00    +0.000 OA
ATOM     22  H   UNL     1      41.639  -2.740  11.177  0.00  0.00    +0.000 HD
ENDBRANCH   5  21
TORSDOF 2
ENDMDL
MODEL 8
REMARK VINA RESULT:      -6.0      2.669      7.427
REMARK  Name = CHEMBL35349.pdbqt.pdb
REMARK  2 active torsions:
REMARK  status: ('A' for Active; 'I' for Inactive)
REMARK    1  A    between atoms: C_2  and  C_11
REMARK    2  A    between atoms: C_5  and  O_21
REMARK                            x       y       z     vdW  Elec       q    Type
REMARK                         _______ _______ _______ _____ _____    ______ ____
ROOT
ATOM      1  N   UNL     1      44.401  -7.977  16.092  0.00  0.00    +0.000 N 
ATOM      2  C   UNL     1      43.940  -6.223  14.791  0.00  0.00    +0.000 A 
ATOM      3  C   UNL     1      44.905  -7.061  14.133  0.00  0.00    +0.000 A 
ATOM      4  C   UNL     1      45.170  -8.143  14.970  0.00  0.00    +0.000 A 
ATOM      5  C   UNL     1      43.657  -6.832  16.005  0.00  0.00    +0.000 A 
ATOM      6  C   UNL     1      45.580  -6.996  12.897  0.00  0.00    +0.000 A 
ATOM      7  C   UNL     1      46.070  -9.164  14.643  0.00  0.00    +0.000 A 
ATOM      8  C   UNL     1      46.481  -8.004  12.549  0.00  0.00    +0.000 A 
ATOM      9  C   UNL     1      46.719  -9.068  13.412  0.00  0.00    +0.000 A 
ATOM     10  H   UNL     1      44.377  -8.605  16.883  0.00  0.00    +0.000 HD
ENDROOT
BRANCH   2  11
ATOM     11  C   UNL     1      43.376  -4.990  14.288  0.00  0.00    +0.000 C 
ATOM     12  N   UNL     1      43.443  -3.865  14.952  0.00  0.00    +0.000 NA
ATOM     13  C   UNL     1      42.795  -2.896  14.160  0.00  0.00    +0.000 A 
ATOM     14  C   UNL     1      42.295  -3.390  12.958  0.00  0.00    +0.000 A 
ATOM     15  C   UNL     1      42.626  -1.559  14.469  0.00  0.00    +0.000 A 
ATOM     16  C   UNL     1      42.644  -4.796  12.964  0.00  0.00    +0.000 C 
ATOM     17  C   UNL     1      41.625  -2.628  12.026  0.00  0.00    +0.000 A 
ATOM     18  O   UNL     1      42.421  -5.644  12.131  0.00  0.00    +0.000 OA
ATOM     19  C   UNL     1      41.457  -1.281  12.342  0.00  0.00    +0.000 A 
ATOM     20  C   UNL     1      41.950  -0.752  13.547  0.00  0.00    +0.000 A 
ENDBRANCH   2  11
BRANCH   5  21
ATOM     21  O   UNL     1      42.859  -6.539  17.026  0.00  0.00    +0.000 OA
ATOM     22  H   UNL     1      42.307  -5.754  16.811  0.00  0.00    +0.000 HD
ENDBRANCH   5  21
TORSDOF 2
ENDMDL
MODEL 9
REMARK VINA RESULT:      -5.9     15.009     17.807
REMARK  Name = CHEMBL35349.pdbqt.pdb
REMARK  2 active torsions:
REMARK  status: ('A' for Active; 'I' for Inactive)
REMARK    1  A    between atoms: C_2  and  C_11
REMARK    2  A    between atoms: C_5  and  O_21
REMARK                            x       y       z     vdW  Elec       q    Type
REMARK                         _______ _______ _______ _____ _____    ______ ____
ROOT
ATOM      1  N   UNL     1      34.083   6.939  22.231  0.00  0.00    +0.000 N 
ATOM      2  C   UNL     1      34.061   9.171  22.287  0.00  0.00    +0.000 A 
ATOM      3  C   UNL     1      32.738   8.676  22.557  0.00  0.00    +0.000 A 
ATOM      4  C   UNL     1      32.787   7.284  22.515  0.00  0.00    +0.000 A 
ATOM      5  C   UNL     1      34.863   8.056  22.090  0.00  0.00    +0.000 A 
ATOM      6  C   UNL     1      31.500   9.289  22.834  0.00  0.00    +0.000 A 
ATOM      7  C   UNL     1      31.671   6.470  22.733  0.00  0.00    +0.000 A 
ATOM      8  C   UNL     1      30.372   8.496  23.057  0.00  0.00    +0.000 A 
ATOM      9  C   UNL     1      30.461   7.110  23.006  0.00  0.00    +0.000 A 
ATOM     10  H   UNL     1      34.430   5.996  22.136  0.00  0.00    +0.000 HD
ENDROOT
BRANCH   2  11
ATOM     11  C   UNL     1      34.474  10.555  22.231  0.00  0.00    +0.000 C 
ATOM     12  N   UNL     1      35.111  11.057  21.204  0.00  0.00    +0.000 NA
ATOM     13  C   UNL     1      35.344  12.414  21.503  0.00  0.00    +0.000 A 
ATOM     14  C   UNL     1      34.853  12.812  22.745  0.00  0.00    +0.000 A 
ATOM     15  C   UNL     1      35.989  13.336  20.701  0.00  0.00    +0.000 A 
ATOM     16  C   UNL     1      34.250  11.618  23.302  0.00  0.00    +0.000 C 
ATOM     17  C   UNL     1      34.964  14.089  23.249  0.00  0.00    +0.000 A 
ATOM     18  O   UNL     1      33.693  11.465  24.365  0.00  0.00    +0.000 OA
ATOM     19  C   UNL     1      35.616  15.014  22.437  0.00  0.00    +0.000 A 
ATOM     20  C   UNL     1      36.123  14.644  21.178  0.00  0.00    +0.000 A 
ENDBRANCH   2  11
BRANCH   5  21
ATOM     21  O   UNL     1      36.149   7.875  21.813  0.00  0.00    +0.000 OA
ATOM     22  H   UNL     1      36.285   6.992  21.400  0.00  0.00    +0.000 HD
ENDBRANCH   5  21
TORSDOF 2
ENDMDL
