MODEL 1
REMARK VINA RESULT:      -6.6      0.000      0.000
REMARK  Name = Chlortetracycline.pdbqt.pdb
REMARK  7 active torsions:
REMARK  status: ('A' for Active; 'I' for Inactive)
REMARK    1  A    between atoms: C_7  and  O_30
REMARK    2  A    between atoms: C_8  and  N_32
REMARK    3  A    between atoms: C_9  and  O_37
REMARK    4  A    between atoms: C_12  and  O_28
REMARK    5  A    between atoms: C_15  and  O_35
REMARK    6  A    between atoms: C_16  and  C_23
REMARK    7  A    between atoms: C_20  and  O_39
REMARK                            x       y       z     vdW  Elec       q    Type
REMARK                         _______ _______ _______ _____ _____    ______ ____
ROOT
ATOM      1 CL   UNL     1      45.856  -6.150  18.381  0.00  0.00    +0.000 Cl
ATOM      2  O   UNL     1      38.547  -4.139  16.426  0.00  0.00    +0.000 OA
ATOM      3  O   UNL     1      42.321   0.319  14.459  0.00  0.00    +0.000 OA
ATOM      4  C   UNL     1      40.872  -1.306  17.127  0.00  0.00    +0.000 C 
ATOM      5  C   UNL     1      42.057  -3.655  17.329  0.00  0.00    +0.000 C 
ATOM      6  C   UNL     1      41.856  -2.265  17.445  0.00  0.00    +0.000 C 
ATOM      7  C   UNL     1      39.618  -1.921  16.552  0.00  0.00    +0.000 C 
ATOM      8  C   UNL     1      41.275  -0.031  16.561  0.00  0.00    +0.000 C 
ATOM      9  C   UNL     1      43.184  -4.466  17.904  0.00  0.00    +0.000 C 
ATOM     10  C   UNL     1      40.903  -4.314  16.755  0.00  0.00    +0.000 C 
ATOM     11  C   UNL     1      39.612  -3.522  16.572  0.00  0.00    +0.000 C 
ATOM     12  C   UNL     1      39.341  -1.483  15.110  0.00  0.00    +0.000 C 
ATOM     13  C   UNL     1      43.317  -5.849  17.285  0.00  0.00    +0.000 A 
ATOM     14  C   UNL     1      41.323  -0.029  15.072  0.00  0.00    +0.000 C 
ATOM     15  C   UNL     1      40.957  -5.616  16.419  0.00  0.00    +0.000 C 
ATOM     16  C   UNL     1      40.126  -0.634  14.406  0.00  0.00    +0.000 C 
ATOM     17  C   UNL     1      42.231  -6.391  16.532  0.00  0.00    +0.000 A 
ATOM     18  C   UNL     1      42.993  -4.544  19.432  0.00  0.00    +0.000 C 
ATOM     19  C   UNL     1      44.488  -6.629  17.439  0.00  0.00    +0.000 A 
ATOM     20  C   UNL     1      42.407  -7.649  15.914  0.00  0.00    +0.000 A 
ATOM     21  C   UNL     1      44.609  -7.881  16.842  0.00  0.00    +0.000 A 
ATOM     22  C   UNL     1      43.579  -8.384  16.069  0.00  0.00    +0.000 A 
ENDROOT
BRANCH  16  23
ATOM     23  C   UNL     1      39.797  -0.190  13.022  0.00  0.00    +0.000 C 
ATOM     24  O   UNL     1      38.725   0.329  12.744  0.00  0.00    +0.000 OA
ATOM     25  N   UNL     1      40.740  -0.402  12.065  0.00  0.00    +0.000 N 
ATOM     26  H   UNL     1      41.487  -1.069  12.225  0.00  0.00    +0.000 HD
ATOM     27  H   UNL     1      40.471  -0.211  11.109  0.00  0.00    +0.000 HD
ENDBRANCH  16  23
BRANCH   8  28
ATOM     28  N   UNL     1      41.049   1.208  17.256  0.00  0.00    +0.000 NA
ATOM     29  C   UNL     1      40.039   2.058  16.641  0.00  0.00    +0.000 C 
ATOM     30  C   UNL     1      40.703   1.042  18.653  0.00  0.00    +0.000 C 
ENDBRANCH   8  28
BRANCH  12  31
ATOM     31  O   UNL     1      38.149  -1.966  14.562  0.00  0.00    +0.000 OA
ATOM     32  H   UNL     1      37.922  -2.812  15.012  0.00  0.00    +0.000 HD
ENDBRANCH  12  31
BRANCH   7  33
ATOM     33  O   UNL     1      38.502  -1.433  17.298  0.00  0.00    +0.000 OA
ATOM     34  H   UNL     1      38.176  -0.624  16.862  0.00  0.00    +0.000 HD
ENDBRANCH   7  33
BRANCH  15  35
ATOM     35  O   UNL     1      39.859  -6.323  15.974  0.00  0.00    +0.000 OA
ATOM     36  H   UNL     1      39.782  -7.173  16.456  0.00  0.00    +0.000 HD
ENDBRANCH  15  35
BRANCH   9  37
ATOM     37  O   UNL     1      44.359  -3.710  17.686  0.00  0.00    +0.000 OA
ATOM     38  H   UNL     1      43.991  -2.812  17.591  0.00  0.00    +0.000 HD
ENDBRANCH   9  37
BRANCH  20  39
ATOM     39  O   UNL     1      41.451  -8.184  15.095  0.00  0.00    +0.000 OA
ATOM     40  H   UNL     1      41.353  -9.133  15.286  0.00  0.00    +0.000 HD
ENDBRANCH  20  39
TORSDOF 7
ENDMDL
MODEL 2
REMARK VINA RESULT:      -6.5     12.649     14.802
REMARK  Name = Chlortetracycline.pdbqt.pdb
REMARK  7 active torsions:
REMARK  status: ('A' for Active; 'I' for Inactive)
REMARK    1  A    between atoms: C_7  and  O_30
REMARK    2  A    between atoms: C_8  and  N_32
REMARK    3  A    between atoms: C_9  and  O_37
REMARK    4  A    between atoms: C_12  and  O_28
REMARK    5  A    between atoms: C_15  and  O_35
REMARK    6  A    between atoms: C_16  and  C_23
REMARK    7  A    between atoms: C_20  and  O_39
REMARK                            x       y       z     vdW  Elec       q    Type
REMARK                         _______ _______ _______ _____ _____    ______ ____
ROOT
ATOM      1 CL   UNL     1      50.121   1.541   6.554  0.00  0.00    +0.000 Cl
ATOM      2  O   UNL     1      52.969   2.621  13.767  0.00  0.00    +0.000 OA
ATOM      3  O   UNL     1      52.260   8.164  11.168  0.00  0.00    +0.000 OA
ATOM      4  C   UNL     1      53.967   5.174  11.235  0.00  0.00    +0.000 C 
ATOM      5  C   UNL     1      52.346   3.345  10.238  0.00  0.00    +0.000 C 
ATOM      6  C   UNL     1      53.257   4.420  10.277  0.00  0.00    +0.000 C 
ATOM      7  C   UNL     1      53.770   4.665  12.643  0.00  0.00    +0.000 C 
ATOM      8  C   UNL     1      54.057   6.615  11.084  0.00  0.00    +0.000 C 
ATOM      9  C   UNL     1      51.839   2.622   9.022  0.00  0.00    +0.000 C 
ATOM     10  C   UNL     1      52.084   2.819  11.561  0.00  0.00    +0.000 C 
ATOM     11  C   UNL     1      52.937   3.300  12.731  0.00  0.00    +0.000 C 
ATOM     12  C   UNL     1      53.078   5.680  13.558  0.00  0.00    +0.000 C 
ATOM     13  C   UNL     1      50.597   1.784   9.284  0.00  0.00    +0.000 A 
ATOM     14  C   UNL     1      52.957   7.355  11.763  0.00  0.00    +0.000 C 
ATOM     15  C   UNL     1      51.124   1.895  11.752  0.00  0.00    +0.000 C 
ATOM     16  C   UNL     1      52.676   6.911  13.165  0.00  0.00    +0.000 C 
ATOM     17  C   UNL     1      50.237   1.460  10.628  0.00  0.00    +0.000 A 
ATOM     18  C   UNL     1      52.990   1.766   8.453  0.00  0.00    +0.000 C 
ATOM     19  C   UNL     1      49.782   1.302   8.233  0.00  0.00    +0.000 A 
ATOM     20  C   UNL     1      49.044   0.737  10.846  0.00  0.00    +0.000 A 
ATOM     21  C   UNL     1      48.631   0.562   8.488  0.00  0.00    +0.000 A 
ATOM     22  C   UNL     1      48.253   0.292   9.790  0.00  0.00    +0.000 A 
ENDROOT
BRANCH  16  23
ATOM     23  C   UNL     1      52.051   7.893  14.096  0.00  0.00    +0.000 C 
ATOM     24  O   UNL     1      50.950   7.705  14.596  0.00  0.00    +0.000 OA
ATOM     25  N   UNL     1      52.753   9.028  14.359  0.00  0.00    +0.000 N 
ATOM     26  H   UNL     1      53.508   9.313  13.745  0.00  0.00    +0.000 HD
ATOM     27  H   UNL     1      52.279   9.744  14.893  0.00  0.00    +0.000 HD
ENDBRANCH  16  23
BRANCH   8  28
ATOM     28  N   UNL     1      55.319   7.273  10.873  0.00  0.00    +0.000 NA
ATOM     29  C   UNL     1      55.929   7.789  12.091  0.00  0.00    +0.000 C 
ATOM     30  C   UNL     1      56.301   6.454  10.193  0.00  0.00    +0.000 C 
ENDBRANCH   8  28
BRANCH  12  31
ATOM     31  O   UNL     1      52.946   5.282  14.892  0.00  0.00    +0.000 OA
ATOM     32  H   UNL     1      52.916   4.299  14.920  0.00  0.00    +0.000 HD
ENDBRANCH  12  31
BRANCH   7  33
ATOM     33  O   UNL     1      55.059   4.471  13.228  0.00  0.00    +0.000 OA
ATOM     34  H   UNL     1      55.727   4.544  12.522  0.00  0.00    +0.000 HD
ENDBRANCH   7  33
BRANCH  15  35
ATOM     35  O   UNL     1      50.906   1.279  12.965  0.00  0.00    +0.000 OA
ATOM     36  H   UNL     1      50.307   1.821  13.521  0.00  0.00    +0.000 HD
ENDBRANCH  15  35
BRANCH   9  37
ATOM     37  O   UNL     1      51.569   3.621   8.058  0.00  0.00    +0.000 OA
ATOM     38  H   UNL     1      51.364   3.078   7.275  0.00  0.00    +0.000 HD
ENDBRANCH   9  37
BRANCH  20  39
ATOM     39  O   UNL     1      48.583   0.479  12.109  0.00  0.00    +0.000 OA
ATOM     40  H   UNL     1      48.329  -0.457  12.177  0.00  0.00    +0.000 HD
ENDBRANCH  20  39
TORSDOF 7
ENDMDL
MODEL 3
REMARK VINA RESULT:      -6.3     14.129     16.628
REMARK  Name = Chlortetracycline.pdbqt.pdb
REMARK  7 active torsions:
REMARK  status: ('A' for Active; 'I' for Inactive)
REMARK    1  A    between atoms: C_7  and  O_30
REMARK    2  A    between atoms: C_8  and  N_32
REMARK    3  A    between atoms: C_9  and  O_37
REMARK    4  A    between atoms: C_12  and  O_28
REMARK    5  A    between atoms: C_15  and  O_35
REMARK    6  A    between atoms: C_16  and  C_23
REMARK    7  A    between atoms: C_20  and  O_39
REMARK                            x       y       z     vdW  Elec       q    Type
REMARK                         _______ _______ _______ _____ _____    ______ ____
ROOT
ATOM      1 CL   UNL     1      55.276   6.070   5.466  0.00  0.00    +0.000 Cl
ATOM      2  O   UNL     1      49.652   5.227  10.847  0.00  0.00    +0.000 OA
ATOM      3  O   UNL     1      54.801   6.964  13.755  0.00  0.00    +0.000 OA
ATOM      4  C   UNL     1      53.124   4.513  12.011  0.00  0.00    +0.000 C 
ATOM      5  C   UNL     1      53.046   5.286   9.489  0.00  0.00    +0.000 C 
ATOM      6  C   UNL     1      53.557   4.756  10.691  0.00  0.00    +0.000 C 
ATOM      7  C   UNL     1      51.665   4.841  12.219  0.00  0.00    +0.000 C 
ATOM      8  C   UNL     1      54.011   4.817  13.120  0.00  0.00    +0.000 C 
ATOM      9  C   UNL     1      53.709   5.295   8.140  0.00  0.00    +0.000 C 
ATOM     10  C   UNL     1      51.652   5.652   9.618  0.00  0.00    +0.000 C 
ATOM     11  C   UNL     1      50.891   5.240  10.875  0.00  0.00    +0.000 C 
ATOM     12  C   UNL     1      51.441   5.973  13.226  0.00  0.00    +0.000 C 
ATOM     13  C   UNL     1      53.075   6.265   7.155  0.00  0.00    +0.000 A 
ATOM     14  C   UNL     1      53.852   6.201  13.647  0.00  0.00    +0.000 C 
ATOM     15  C   UNL     1      51.026   6.319   8.631  0.00  0.00    +0.000 C 
ATOM     16  C   UNL     1      52.434   6.626  13.873  0.00  0.00    +0.000 C 
ATOM     17  C   UNL     1      51.772   6.786   7.421  0.00  0.00    +0.000 A 
ATOM     18  C   UNL     1      53.712   3.853   7.593  0.00  0.00    +0.000 C 
ATOM     19  C   UNL     1      53.734   6.667   5.969  0.00  0.00    +0.000 A 
ATOM     20  C   UNL     1      51.234   7.735   6.523  0.00  0.00    +0.000 A 
ATOM     21  C   UNL     1      53.154   7.579   5.092  0.00  0.00    +0.000 A 
ATOM     22  C   UNL     1      51.916   8.124   5.373  0.00  0.00    +0.000 A 
ENDROOT
BRANCH  16  23
ATOM     23  C   UNL     1      52.177   7.689  14.885  0.00  0.00    +0.000 C 
ATOM     24  O   UNL     1      51.542   7.472  15.909  0.00  0.00    +0.000 OA
ATOM     25  N   UNL     1      52.665   8.930  14.617  0.00  0.00    +0.000 N 
ATOM     26  H   UNL     1      52.931   9.178  13.670  0.00  0.00    +0.000 HD
ATOM     27  H   UNL     1      52.389   9.674  15.242  0.00  0.00    +0.000 HD
ENDBRANCH  16  23
BRANCH   8  28
ATOM     28  N   UNL     1      54.506   3.787  13.994  0.00  0.00    +0.000 NA
ATOM     29  C   UNL     1      53.969   3.847  15.346  0.00  0.00    +0.000 C 
ATOM     30  C   UNL     1      54.302   2.444  13.491  0.00  0.00    +0.000 C 
ENDBRANCH   8  28
BRANCH  12  31
ATOM     31  O   UNL     1      50.102   6.259  13.509  0.00  0.00    +0.000 OA
ATOM     32  H   UNL     1      50.039   6.546  14.448  0.00  0.00    +0.000 HD
ENDBRANCH  12  31
BRANCH   7  33
ATOM     33  O   UNL     1      51.034   3.703  12.809  0.00  0.00    +0.000 OA
ATOM     34  H   UNL     1      50.900   3.888  13.756  0.00  0.00    +0.000 HD
ENDBRANCH   7  33
BRANCH  15  35
ATOM     35  O   UNL     1      49.675   6.595   8.650  0.00  0.00    +0.000 OA
ATOM     36  H   UNL     1      49.156   5.769   8.558  0.00  0.00    +0.000 HD
ENDBRANCH  15  35
BRANCH   9  37
ATOM     37  O   UNL     1      55.061   5.637   8.373  0.00  0.00    +0.000 OA
ATOM     38  H   UNL     1      54.965   6.504   8.809  0.00  0.00    +0.000 HD
ENDBRANCH   9  37
BRANCH  20  39
ATOM     39  O   UNL     1      50.037   8.353   6.766  0.00  0.00    +0.000 OA
ATOM     40  H   UNL     1      49.314   7.812   6.404  0.00  0.00    +0.000 HD
ENDBRANCH  20  39
TORSDOF 7
ENDMDL
MODEL 4
REMARK VINA RESULT:      -5.9      2.195      2.895
REMARK  Name = Chlortetracycline.pdbqt.pdb
REMARK  7 active torsions:
REMARK  status: ('A' for Active; 'I' for Inactive)
REMARK    1  A    between atoms: C_7  and  O_30
REMARK    2  A    between atoms: C_8  and  N_32
REMARK    3  A    between atoms: C_9  and  O_37
REMARK    4  A    between atoms: C_12  and  O_28
REMARK    5  A    between atoms: C_15  and  O_35
REMARK    6  A    between atoms: C_16  and  C_23
REMARK    7  A    between atoms: C_20  and  O_39
REMARK                            x       y       z     vdW  Elec       q    Type
REMARK                         _______ _______ _______ _____ _____    ______ ____
ROOT
ATOM      1 CL   UNL     1      46.350  -1.934  21.006  0.00  0.00    +0.000 Cl
ATOM      2  O   UNL     1      40.367  -4.258  16.521  0.00  0.00    +0.000 OA
ATOM      3  O   UNL     1      41.182   1.782  15.601  0.00  0.00    +0.000 OA
ATOM      4  C   UNL     1      40.203  -0.734  17.740  0.00  0.00    +0.000 C 
ATOM      5  C   UNL     1      42.400  -1.970  18.523  0.00  0.00    +0.000 C 
ATOM      6  C   UNL     1      41.396  -0.983  18.450  0.00  0.00    +0.000 C 
ATOM      7  C   UNL     1      39.819  -1.872  16.824  0.00  0.00    +0.000 C 
ATOM      8  C   UNL     1      39.936   0.604  17.242  0.00  0.00    +0.000 C 
ATOM      9  C   UNL     1      43.529  -2.053  19.512  0.00  0.00    +0.000 C 
ATOM     10  C   UNL     1      42.114  -3.086  17.647  0.00  0.00    +0.000 C 
ATOM     11  C   UNL     1      40.749  -3.168  16.971  0.00  0.00    +0.000 C 
ATOM     12  C   UNL     1      39.819  -1.478  15.343  0.00  0.00    +0.000 C 
ATOM     13  C   UNL     1      44.639  -3.003  19.091  0.00  0.00    +0.000 A 
ATOM     14  C   UNL     1      40.448   0.840  15.864  0.00  0.00    +0.000 C 
ATOM     15  C   UNL     1      43.028  -4.056  17.456  0.00  0.00    +0.000 C 
ATOM     16  C   UNL     1      40.129  -0.244  14.882  0.00  0.00    +0.000 C 
ATOM     17  C   UNL     1      44.393  -3.960  18.059  0.00  0.00    +0.000 A 
ATOM     18  C   UNL     1      42.942  -2.440  20.885  0.00  0.00    +0.000 C 
ATOM     19  C   UNL     1      45.918  -2.977  19.697  0.00  0.00    +0.000 A 
ATOM     20  C   UNL     1      45.462  -4.785  17.644  0.00  0.00    +0.000 A 
ATOM     21  C   UNL     1      46.935  -3.832  19.281  0.00  0.00    +0.000 A 
ATOM     22  C   UNL     1      46.714  -4.723  18.248  0.00  0.00    +0.000 A 
ENDROOT
BRANCH  16  23
ATOM     23  C   UNL     1      40.068   0.117  13.437  0.00  0.00    +0.000 C 
ATOM     24  O   UNL     1      40.176  -0.721  12.553  0.00  0.00    +0.000 OA
ATOM     25  N   UNL     1      39.905   1.434  13.136  0.00  0.00    +0.000 N 
ATOM     26  H   UNL     1      40.098   2.144  13.834  0.00  0.00    +0.000 HD
ATOM     27  H   UNL     1      39.983   1.692  12.162  0.00  0.00    +0.000 HD
ENDBRANCH  16  23
BRANCH   8  28
ATOM     28  N   UNL     1      38.816   1.373  17.716  0.00  0.00    +0.000 NA
ATOM     29  C   UNL     1      37.987   0.677  18.689  0.00  0.00    +0.000 C 
ATOM     30  C   UNL     1      39.182   2.658  18.277  0.00  0.00    +0.000 C 
ENDBRANCH   8  28
BRANCH  12  31
ATOM     31  O   UNL     1      39.394  -2.478  14.464  0.00  0.00    +0.000 OA
ATOM     32  H   UNL     1      39.867  -3.312  14.690  0.00  0.00    +0.000 HD
ENDBRANCH  12  31
BRANCH   7  33
ATOM     33  O   UNL     1      38.464  -2.228  17.103  0.00  0.00    +0.000 OA
ATOM     34  H   UNL     1      38.444  -2.698  17.957  0.00  0.00    +0.000 HD
ENDBRANCH   7  33
BRANCH  15  35
ATOM     35  O   UNL     1      42.771  -5.195  16.723  0.00  0.00    +0.000 OA
ATOM     36  H   UNL     1      43.360  -5.925  17.009  0.00  0.00    +0.000 HD
ENDBRANCH  15  35
BRANCH   9  37
ATOM     37  O   UNL     1      44.026  -0.736  19.646  0.00  0.00    +0.000 OA
ATOM     38  H   UNL     1      43.565  -0.440  20.452  0.00  0.00    +0.000 HD
ENDBRANCH   9  37
BRANCH  20  39
ATOM     39  O   UNL     1      45.329  -5.653  16.594  0.00  0.00    +0.000 OA
ATOM     40  H   UNL     1      44.463  -5.521  16.171  0.00  0.00    +0.000 HD
ENDBRANCH  20  39
TORSDOF 7
ENDMDL
MODEL 5
REMARK VINA RESULT:      -5.6     14.454     17.188
REMARK  Name = Chlortetracycline.pdbqt.pdb
REMARK  7 active torsions:
REMARK  status: ('A' for Active; 'I' for Inactive)
REMARK    1  A    between atoms: C_7  and  O_30
REMARK    2  A    between atoms: C_8  and  N_32
REMARK    3  A    between atoms: C_9  and  O_37
REMARK    4  A    between atoms: C_12  and  O_28
REMARK    5  A    between atoms: C_15  and  O_35
REMARK    6  A    between atoms: C_16  and  C_23
REMARK    7  A    between atoms: C_20  and  O_39
REMARK                            x       y       z     vdW  Elec       q    Type
REMARK                         _______ _______ _______ _____ _____    ______ ____
ROOT
ATOM      1 CL   UNL     1      33.912   7.836  21.756  0.00  0.00    +0.000 Cl
ATOM      2  O   UNL     1      37.571  10.802  28.010  0.00  0.00    +0.000 OA
ATOM      3  O   UNL     1      41.762   7.835  24.601  0.00  0.00    +0.000 OA
ATOM      4  C   UNL     1      39.001   7.635  26.649  0.00  0.00    +0.000 C 
ATOM      5  C   UNL     1      36.940   8.496  25.243  0.00  0.00    +0.000 C 
ATOM      6  C   UNL     1      37.949   7.630  25.709  0.00  0.00    +0.000 C 
ATOM      7  C   UNL     1      39.050   8.905  27.465  0.00  0.00    +0.000 C 
ATOM      8  C   UNL     1      40.284   7.058  26.288  0.00  0.00    +0.000 C 
ATOM      9  C   UNL     1      35.820   8.168  24.296  0.00  0.00    +0.000 C 
ATOM     10  C   UNL     1      36.943   9.753  25.961  0.00  0.00    +0.000 C 
ATOM     11  C   UNL     1      37.818   9.895  27.203  0.00  0.00    +0.000 C 
ATOM     12  C   UNL     1      40.335   9.710  27.247  0.00  0.00    +0.000 C 
ATOM     13  C   UNL     1      35.145   9.394  23.702  0.00  0.00    +0.000 A 
ATOM     14  C   UNL     1      41.227   8.038  25.681  0.00  0.00    +0.000 C 
ATOM     15  C   UNL     1      36.159  10.771  25.560  0.00  0.00    +0.000 C 
ATOM     16  C   UNL     1      41.335   9.340  26.413  0.00  0.00    +0.000 C 
ATOM     17  C   UNL     1      35.343  10.671  24.311  0.00  0.00    +0.000 A 
ATOM     18  C   UNL     1      34.810   7.266  25.035  0.00  0.00    +0.000 C 
ATOM     19  C   UNL     1      34.312   9.313  22.561  0.00  0.00    +0.000 A 
ATOM     20  C   UNL     1      34.757  11.802  23.700  0.00  0.00    +0.000 A 
ATOM     21  C   UNL     1      33.724  10.448  22.009  0.00  0.00    +0.000 A 
ATOM     22  C   UNL     1      33.957  11.691  22.566  0.00  0.00    +0.000 A 
ENDROOT
BRANCH  16  23
ATOM     23  C   UNL     1      42.594  10.123  26.265  0.00  0.00    +0.000 C 
ATOM     24  O   UNL     1      43.249  10.491  27.231  0.00  0.00    +0.000 OA
ATOM     25  N   UNL     1      42.984  10.432  24.999  0.00  0.00    +0.000 N 
ATOM     26  H   UNL     1      42.319  10.382  24.235  0.00  0.00    +0.000 HD
ATOM     27  H   UNL     1      43.769  11.062  24.904  0.00  0.00    +0.000 HD
ENDBRANCH  16  23
BRANCH   8  28
ATOM     28  N   UNL     1      40.811   5.907  26.971  0.00  0.00    +0.000 NA
ATOM     29  C   UNL     1      41.967   6.193  27.809  0.00  0.00    +0.000 C 
ATOM     30  C   UNL     1      39.835   5.206  27.779  0.00  0.00    +0.000 C 
ENDBRANCH   8  28
BRANCH  12  31
ATOM     31  O   UNL     1      40.459  10.855  28.041  0.00  0.00    +0.000 OA
ATOM     32  H   UNL     1      39.577  11.288  28.100  0.00  0.00    +0.000 HD
ENDBRANCH  12  31
BRANCH   7  33
ATOM     33  O   UNL     1      39.080   8.544  28.847  0.00  0.00    +0.000 OA
ATOM     34  H   UNL     1      38.945   7.580  28.911  0.00  0.00    +0.000 HD
ENDBRANCH   7  33
BRANCH  15  35
ATOM     35  O   UNL     1      36.037  11.948  26.268  0.00  0.00    +0.000 OA
ATOM     36  H   UNL     1      36.292  11.811  27.205  0.00  0.00    +0.000 HD
ENDBRANCH  15  35
BRANCH   9  37
ATOM     37  O   UNL     1      36.393   7.374  23.275  0.00  0.00    +0.000 OA
ATOM     38  H   UNL     1      37.300   7.731  23.244  0.00  0.00    +0.000 HD
ENDBRANCH   9  37
BRANCH  20  39
ATOM     39  O   UNL     1      34.987  13.068  24.168  0.00  0.00    +0.000 OA
ATOM     40  H   UNL     1      34.586  13.166  25.048  0.00  0.00    +0.000 HD
ENDBRANCH  20  39
TORSDOF 7
ENDMDL
MODEL 6
REMARK VINA RESULT:      -5.6     22.323     24.337
REMARK  Name = Chlortetracycline.pdbqt.pdb
REMARK  7 active torsions:
REMARK  status: ('A' for Active; 'I' for Inactive)
REMARK    1  A    between atoms: C_7  and  O_30
REMARK    2  A    between atoms: C_8  and  N_32
REMARK    3  A    between atoms: C_9  and  O_37
REMARK    4  A    between atoms: C_12  and  O_28
REMARK    5  A    between atoms: C_15  and  O_35
REMARK    6  A    between atoms: C_16  and  C_23
REMARK    7  A    between atoms: C_20  and  O_39
REMARK                            x       y       z     vdW  Elec       q    Type
REMARK                         _______ _______ _______ _____ _____    ______ ____
ROOT
ATOM      1 CL   UNL     1      50.178  22.625  17.968  0.00  0.00    +0.000 Cl
ATOM      2  O   UNL     1      49.724  15.784  14.187  0.00  0.00    +0.000 OA
ATOM      3  O   UNL     1      55.557  17.743  13.850  0.00  0.00    +0.000 OA
ATOM      4  C   UNL     1      52.277  18.180  12.896  0.00  0.00    +0.000 C 
ATOM      5  C   UNL     1      50.987  19.118  14.999  0.00  0.00    +0.000 C 
ATOM      6  C   UNL     1      51.820  19.100  13.862  0.00  0.00    +0.000 C 
ATOM      7  C   UNL     1      51.659  16.811  13.054  0.00  0.00    +0.000 C 
ATOM      8  C   UNL     1      53.670  18.208  12.487  0.00  0.00    +0.000 C 
ATOM      9  C   UNL     1      50.545  20.318  15.789  0.00  0.00    +0.000 C 
ATOM     10  C   UNL     1      50.377  17.826  15.233  0.00  0.00    +0.000 C 
ATOM     11  C   UNL     1      50.512  16.739  14.170  0.00  0.00    +0.000 C 
ATOM     12  C   UNL     1      52.684  15.722  13.386  0.00  0.00    +0.000 C 
ATOM     13  C   UNL     1      49.979  19.971  17.158  0.00  0.00    +0.000 A 
ATOM     14  C   UNL     1      54.548  17.324  13.303  0.00  0.00    +0.000 C 
ATOM     15  C   UNL     1      49.673  17.596  16.356  0.00  0.00    +0.000 C 
ATOM     16  C   UNL     1      54.012  15.943  13.528  0.00  0.00    +0.000 C 
ATOM     17  C   UNL     1      49.584  18.627  17.436  0.00  0.00    +0.000 A 
ATOM     18  C   UNL     1      49.531  21.110  14.940  0.00  0.00    +0.000 C 
ATOM     19  C   UNL     1      49.820  20.946  18.172  0.00  0.00    +0.000 A 
ATOM     20  C   UNL     1      49.122  18.321  18.736  0.00  0.00    +0.000 A 
ATOM     21  C   UNL     1      49.328  20.609  19.430  0.00  0.00    +0.000 A 
ATOM     22  C   UNL     1      48.995  19.299  19.718  0.00  0.00    +0.000 A 
ENDROOT
BRANCH  16  23
ATOM     23  C   UNL     1      54.989  14.851  13.800  0.00  0.00    +0.000 C 
ATOM     24  O   UNL     1      54.692  13.864  14.461  0.00  0.00    +0.000 OA
ATOM     25  N   UNL     1      56.242  15.002  13.295  0.00  0.00    +0.000 N 
ATOM     26  H   UNL     1      56.566  15.918  13.003  0.00  0.00    +0.000 HD
ATOM     27  H   UNL     1      56.934  14.322  13.579  0.00  0.00    +0.000 HD
ENDBRANCH  16  23
BRANCH   8  28
ATOM     28  N   UNL     1      54.052  18.522  11.136  0.00  0.00    +0.000 NA
ATOM     29  C   UNL     1      54.620  17.398  10.404  0.00  0.00    +0.000 C 
ATOM     30  C   UNL     1      52.980  19.079  10.338  0.00  0.00    +0.000 C 
ENDBRANCH   8  28
BRANCH  12  31
ATOM     31  O   UNL     1      52.169  14.425  13.463  0.00  0.00    +0.000 OA
ATOM     32  H   UNL     1      51.896  14.256  14.394  0.00  0.00    +0.000 HD
ENDBRANCH  12  31
BRANCH   7  33
ATOM     33  O   UNL     1      51.115  16.422  11.791  0.00  0.00    +0.000 OA
ATOM     34  H   UNL     1      50.152  16.575  11.816  0.00  0.00    +0.000 HD
ENDBRANCH   7  33
BRANCH  15  35
ATOM     35  O   UNL     1      48.979  16.426  16.581  0.00  0.00    +0.000 OA
ATOM     36  H   UNL     1      49.464  15.663  16.202  0.00  0.00    +0.000 HD
ENDBRANCH  15  35
BRANCH   9  37
ATOM     37  O   UNL     1      51.688  21.140  15.919  0.00  0.00    +0.000 OA
ATOM     38  H   UNL     1      51.707  21.287  16.883  0.00  0.00    +0.000 HD
ENDBRANCH   9  37
BRANCH  20  39
ATOM     39  O   UNL     1      48.823  17.037  19.105  0.00  0.00    +0.000 OA
ATOM     40  H   UNL     1      48.242  17.051  19.885  0.00  0.00    +0.000 HD
ENDBRANCH  20  39
TORSDOF 7
ENDMDL
MODEL 7
REMARK VINA RESULT:      -5.6      3.731      4.972
REMARK  Name = Chlortetracycline.pdbqt.pdb
REMARK  7 active torsions:
REMARK  status: ('A' for Active; 'I' for Inactive)
REMARK    1  A    between atoms: C_7  and  O_30
REMARK    2  A    between atoms: C_8  and  N_32
REMARK    3  A    between atoms: C_9  and  O_37
REMARK    4  A    between atoms: C_12  and  O_28
REMARK    5  A    between atoms: C_15  and  O_35
REMARK    6  A    between atoms: C_16  and  C_23
REMARK    7  A    between atoms: C_20  and  O_39
REMARK                            x       y       z     vdW  Elec       q    Type
REMARK                         _______ _______ _______ _____ _____    ______ ____
ROOT
ATOM      1 CL   UNL     1      38.750  -0.735  22.999  0.00  0.00    +0.000 Cl
ATOM      2  O   UNL     1      38.494  -4.240  16.003  0.00  0.00    +0.000 OA
ATOM      3  O   UNL     1      42.895   0.070  15.795  0.00  0.00    +0.000 OA
ATOM      4  C   UNL     1      39.534  -0.656  15.980  0.00  0.00    +0.000 C 
ATOM      5  C   UNL     1      39.079  -1.558  18.418  0.00  0.00    +0.000 C 
ATOM      6  C   UNL     1      39.316  -0.642  17.373  0.00  0.00    +0.000 C 
ATOM      7  C   UNL     1      39.419  -2.039  15.383  0.00  0.00    +0.000 C 
ATOM      8  C   UNL     1      40.557   0.202  15.409  0.00  0.00    +0.000 C 
ATOM      9  C   UNL     1      38.727  -1.244  19.845  0.00  0.00    +0.000 C 
ATOM     10  C   UNL     1      38.984  -2.915  17.926  0.00  0.00    +0.000 C 
ATOM     11  C   UNL     1      38.924  -3.155  16.420  0.00  0.00    +0.000 C 
ATOM     12  C   UNL     1      40.729  -2.539  14.768  0.00  0.00    +0.000 C 
ATOM     13  C   UNL     1      38.913  -2.420  20.792  0.00  0.00    +0.000 A 
ATOM     14  C   UNL     1      41.895  -0.446  15.319  0.00  0.00    +0.000 C 
ATOM     15  C   UNL     1      38.916  -3.951  18.783  0.00  0.00    +0.000 C 
ATOM     16  C   UNL     1      41.883  -1.831  14.750  0.00  0.00    +0.000 C 
ATOM     17  C   UNL     1      39.037  -3.739  20.259  0.00  0.00    +0.000 A 
ATOM     18  C   UNL     1      37.280  -0.711  19.881  0.00  0.00    +0.000 C 
ATOM     19  C   UNL     1      38.960  -2.251  22.196  0.00  0.00    +0.000 A 
ATOM     20  C   UNL     1      39.274  -4.804  21.157  0.00  0.00    +0.000 A 
ATOM     21  C   UNL     1      39.162  -3.333  23.050  0.00  0.00    +0.000 A 
ATOM     22  C   UNL     1      39.333  -4.603  22.533  0.00  0.00    +0.000 A 
ENDROOT
BRANCH  16  23
ATOM     23  C   UNL     1      43.126  -2.329  14.096  0.00  0.00    +0.000 C 
ATOM     24  O   UNL     1      43.182  -2.559  12.896  0.00  0.00    +0.000 OA
ATOM     25  N   UNL     1      44.205  -2.536  14.898  0.00  0.00    +0.000 N 
ATOM     26  H   UNL     1      44.085  -2.621  15.902  0.00  0.00    +0.000 HD
ATOM     27  H   UNL     1      45.007  -2.985  14.477  0.00  0.00    +0.000 HD
ENDBRANCH  16  23
BRANCH   8  28
ATOM     28  N   UNL     1      40.227   1.261  14.492  0.00  0.00    +0.000 NA
ATOM     29  C   UNL     1      39.610   0.803  13.256  0.00  0.00    +0.000 C 
ATOM     30  C   UNL     1      39.378   2.287  15.063  0.00  0.00    +0.000 C 
ENDBRANCH   8  28
BRANCH  12  31
ATOM     31  O   UNL     1      40.650  -3.783  14.134  0.00  0.00    +0.000 OA
ATOM     32  H   UNL     1      40.923  -3.669  13.195  0.00  0.00    +0.000 HD
ENDBRANCH  12  31
BRANCH   7  33
ATOM     33  O   UNL     1      38.506  -1.974  14.286  0.00  0.00    +0.000 OA
ATOM     34  H   UNL     1      37.604  -1.894  14.647  0.00  0.00    +0.000 HD
ENDBRANCH   7  33
BRANCH  15  35
ATOM     35  O   UNL     1      38.713  -5.252  18.375  0.00  0.00    +0.000 OA
ATOM     36  H   UNL     1      39.096  -5.877  19.025  0.00  0.00    +0.000 HD
ENDBRANCH  15  35
BRANCH   9  37
ATOM     37  O   UNL     1      39.560  -0.166  20.224  0.00  0.00    +0.000 OA
ATOM     38  H   UNL     1      39.896   0.127  19.357  0.00  0.00    +0.000 HD
ENDBRANCH   9  37
BRANCH  20  39
ATOM     39  O   UNL     1      39.504  -6.078  20.712  0.00  0.00    +0.000 OA
ATOM     40  H   UNL     1      38.743  -6.380  20.187  0.00  0.00    +0.000 HD
ENDBRANCH  20  39
TORSDOF 7
ENDMDL
MODEL 8
REMARK VINA RESULT:      -5.5     24.174     26.626
REMARK  Name = Chlortetracycline.pdbqt.pdb
REMARK  7 active torsions:
REMARK  status: ('A' for Active; 'I' for Inactive)
REMARK    1  A    between atoms: C_7  and  O_30
REMARK    2  A    between atoms: C_8  and  N_32
REMARK    3  A    between atoms: C_9  and  O_37
REMARK    4  A    between atoms: C_12  and  O_28
REMARK    5  A    between atoms: C_15  and  O_35
REMARK    6  A    between atoms: C_16  and  C_23
REMARK    7  A    between atoms: C_20  and  O_39
REMARK                            x       y       z     vdW  Elec       q    Type
REMARK                         _______ _______ _______ _____ _____    ______ ____
ROOT
ATOM      1 CL   UNL     1      28.778  11.549  -1.506  0.00  0.00    +0.000 Cl
ATOM      2  O   UNL     1      33.833  15.353   3.106  0.00  0.00    +0.000 OA
ATOM      3  O   UNL     1      31.042  19.520  -0.476  0.00  0.00    +0.000 OA
ATOM      4  C   UNL     1      33.239  16.878  -0.247  0.00  0.00    +0.000 C 
ATOM      5  C   UNL     1      31.789  14.708   0.144  0.00  0.00    +0.000 C 
ATOM      6  C   UNL     1      32.398  15.783  -0.534  0.00  0.00    +0.000 C 
ATOM      7  C   UNL     1      33.700  16.901   1.191  0.00  0.00    +0.000 C 
ATOM      8  C   UNL     1      32.958  18.170  -0.848  0.00  0.00    +0.000 C 
ATOM      9  C   UNL     1      31.027  13.561  -0.460  0.00  0.00    +0.000 C 
ATOM     10  C   UNL     1      32.162  14.680   1.542  0.00  0.00    +0.000 C 
ATOM     11  C   UNL     1      33.270  15.608   2.032  0.00  0.00    +0.000 C 
ATOM     12  C   UNL     1      33.205  18.129   1.961  0.00  0.00    +0.000 C 
ATOM     13  C   UNL     1      30.183  12.794   0.546  0.00  0.00    +0.000 A 
ATOM     14  C   UNL     1      32.065  19.029  -0.022  0.00  0.00    +0.000 C 
ATOM     15  C   UNL     1      31.564  13.825   2.392  0.00  0.00    +0.000 C 
ATOM     16  C   UNL     1      32.434  19.105   1.427  0.00  0.00    +0.000 C 
ATOM     17  C   UNL     1      30.433  12.955   1.944  0.00  0.00    +0.000 A 
ATOM     18  C   UNL     1      32.032  12.638  -1.178  0.00  0.00    +0.000 C 
ATOM     19  C   UNL     1      29.154  11.911   0.142  0.00  0.00    +0.000 A 
ATOM     20  C   UNL     1      29.592  12.280   2.856  0.00  0.00    +0.000 A 
ATOM     21  C   UNL     1      28.369  11.238   1.074  0.00  0.00    +0.000 A 
ATOM     22  C   UNL     1      28.575  11.432   2.426  0.00  0.00    +0.000 A 
ENDROOT
BRANCH  16  23
ATOM     23  C   UNL     1      32.013  20.312   2.193  0.00  0.00    +0.000 C 
ATOM     24  O   UNL     1      31.787  20.274   3.395  0.00  0.00    +0.000 OA
ATOM     25  N   UNL     1      31.871  21.470   1.492  0.00  0.00    +0.000 N 
ATOM     26  H   UNL     1      31.780  21.446   0.482  0.00  0.00    +0.000 HD
ATOM     27  H   UNL     1      31.473  22.257   1.987  0.00  0.00    +0.000 HD
ENDBRANCH  16  23
BRANCH   8  28
ATOM     28  N   UNL     1      33.878  18.791  -1.764  0.00  0.00    +0.000 NA
ATOM     29  C   UNL     1      34.800  19.726  -1.135  0.00  0.00    +0.000 C 
ATOM     30  C   UNL     1      34.657  17.849  -2.541  0.00  0.00    +0.000 C 
ENDBRANCH   8  28
BRANCH  12  31
ATOM     31  O   UNL     1      33.672  18.233   3.275  0.00  0.00    +0.000 OA
ATOM     32  H   UNL     1      33.266  17.510   3.806  0.00  0.00    +0.000 HD
ENDBRANCH  12  31
BRANCH   7  33
ATOM     33  O   UNL     1      35.124  17.019   1.199  0.00  0.00    +0.000 OA
ATOM     34  H   UNL     1      35.491  16.290   0.666  0.00  0.00    +0.000 HD
ENDBRANCH   7  33
BRANCH  15  35
ATOM     35  O   UNL     1      31.955  13.677   3.706  0.00  0.00    +0.000 OA
ATOM     36  H   UNL     1      32.547  12.901   3.800  0.00  0.00    +0.000 HD
ENDBRANCH  15  35
BRANCH   9  37
ATOM     37  O   UNL     1      30.210  14.124  -1.467  0.00  0.00    +0.000 OA
ATOM     38  H   UNL     1      30.478  13.600  -2.243  0.00  0.00    +0.000 HD
ENDBRANCH   9  37
BRANCH  20  39
ATOM     39  O   UNL     1      29.707  12.467   4.207  0.00  0.00    +0.000 OA
ATOM     40  H   UNL     1      29.191  11.786   4.673  0.00  0.00    +0.000 HD
ENDBRANCH  20  39
TORSDOF 7
ENDMDL
MODEL 9
REMARK VINA RESULT:      -5.5     21.632     23.807
REMARK  Name = Chlortetracycline.pdbqt.pdb
REMARK  7 active torsions:
REMARK  status: ('A' for Active; 'I' for Inactive)
REMARK    1  A    between atoms: C_7  and  O_30
REMARK    2  A    between atoms: C_8  and  N_32
REMARK    3  A    between atoms: C_9  and  O_37
REMARK    4  A    between atoms: C_12  and  O_28
REMARK    5  A    between atoms: C_15  and  O_35
REMARK    6  A    between atoms: C_16  and  C_23
REMARK    7  A    between atoms: C_20  and  O_39
REMARK                            x       y       z     vdW  Elec       q    Type
REMARK                         _______ _______ _______ _____ _____    ______ ____
ROOT
ATOM      1 CL   UNL     1      52.025  17.592  23.287  0.00  0.00    +0.000 Cl
ATOM      2  O   UNL     1      49.726  19.287  15.997  0.00  0.00    +0.000 OA
ATOM      3  O   UNL     1      54.190  15.053  15.633  0.00  0.00    +0.000 OA
ATOM      4  C   UNL     1      53.304  18.297  16.377  0.00  0.00    +0.000 C 
ATOM      5  C   UNL     1      51.991  18.225  18.665  0.00  0.00    +0.000 C 
ATOM      6  C   UNL     1      53.077  18.217  17.767  0.00  0.00    +0.000 C 
ATOM      7  C   UNL     1      52.037  18.526  15.589  0.00  0.00    +0.000 C 
ATOM      8  C   UNL     1      54.287  17.421  15.764  0.00  0.00    +0.000 C 
ATOM      9  C   UNL     1      52.048  18.272  20.166  0.00  0.00    +0.000 C 
ATOM     10  C   UNL     1      50.731  18.413  17.977  0.00  0.00    +0.000 C 
ATOM     11  C   UNL     1      50.743  18.786  16.497  0.00  0.00    +0.000 C 
ATOM     12  C   UNL     1      51.701  17.370  14.640  0.00  0.00    +0.000 C 
ATOM     13  C   UNL     1      50.740  17.885  20.838  0.00  0.00    +0.000 A 
ATOM     14  C   UNL     1      53.720  16.128  15.291  0.00  0.00    +0.000 C 
ATOM     15  C   UNL     1      49.566  18.294  18.640  0.00  0.00    +0.000 C 
ATOM     16  C   UNL     1      52.449  16.250  14.508  0.00  0.00    +0.000 C 
ATOM     17  C   UNL     1      49.533  17.868  20.073  0.00  0.00    +0.000 A 
ATOM     18  C   UNL     1      52.507  19.683  20.589  0.00  0.00    +0.000 C 
ATOM     19  C   UNL     1      50.673  17.546  22.211  0.00  0.00    +0.000 A 
ATOM     20  C   UNL     1      48.345  17.441  20.707  0.00  0.00    +0.000 A 
ATOM     21  C   UNL     1      49.474  17.164  22.806  0.00  0.00    +0.000 A 
ATOM     22  C   UNL     1      48.316  17.096  22.055  0.00  0.00    +0.000 A 
ENDROOT
BRANCH  16  23
ATOM     23  C   UNL     1      52.120  15.169  13.537  0.00  0.00    +0.000 C 
ATOM     24  O   UNL     1      50.967  14.824  13.315  0.00  0.00    +0.000 OA
ATOM     25  N   UNL     1      53.163  14.559  12.913  0.00  0.00    +0.000 N 
ATOM     26  H   UNL     1      54.101  14.639  13.293  0.00  0.00    +0.000 HD
ATOM     27  H   UNL     1      52.948  13.750  12.347  0.00  0.00    +0.000 HD
ENDBRANCH  16  23
BRANCH   8  28
ATOM     28  N   UNL     1      55.469  17.942  15.130  0.00  0.00    +0.000 NA
ATOM     29  C   UNL     1      55.491  17.772  13.684  0.00  0.00    +0.000 C 
ATOM     30  C   UNL     1      55.723  19.338  15.420  0.00  0.00    +0.000 C 
ENDBRANCH   8  28
BRANCH  12  31
ATOM     31  O   UNL     1      50.578  17.573  13.833  0.00  0.00    +0.000 OA
ATOM     32  H   UNL     1      49.832  17.048  14.203  0.00  0.00    +0.000 HD
ENDBRANCH  12  31
BRANCH   7  33
ATOM     33  O   UNL     1      52.245  19.648  14.730  0.00  0.00    +0.000 OA
ATOM     34  H   UNL     1      52.903  19.396  14.056  0.00  0.00    +0.000 HD
ENDBRANCH   7  33
BRANCH  15  35
ATOM     35  O   UNL     1      48.344  18.570  18.065  0.00  0.00    +0.000 OA
ATOM     36  H   UNL     1      47.632  18.528  18.738  0.00  0.00    +0.000 HD
ENDBRANCH  15  35
BRANCH   9  37
ATOM     37  O   UNL     1      53.082  17.385  20.545  0.00  0.00    +0.000 OA
ATOM     38  H   UNL     1      53.658  17.975  21.063  0.00  0.00    +0.000 HD
ENDBRANCH   9  37
BRANCH  20  39
ATOM     39  O   UNL     1      47.174  17.302  20.012  0.00  0.00    +0.000 OA
ATOM     40  H   UNL     1      47.008  18.107  19.491  0.00  0.00    +0.000 HD
ENDBRANCH  20  39
TORSDOF 7
ENDMDL
