MODEL 1
REMARK VINA RESULT:      -6.5      0.000      0.000
REMARK  Name = Ciclopirox.pdbqt.pdb
REMARK  2 active torsions:
REMARK  status: ('A' for Active; 'I' for Inactive)
REMARK    1  A    between atoms: N_2  and  O_15
REMARK    2  A    between atoms: C_3  and  C_9
REMARK                            x       y       z     vdW  Elec       q    Type
REMARK                         _______ _______ _______ _____ _____    ______ ____
ROOT
ATOM      1  O   UNL     1      34.152  15.542  23.973  0.00  0.00    +0.000 OA
ATOM      2  N   UNL     1      35.477  16.256  22.179  0.00  0.00    +0.000 N 
ATOM      3  C   UNL     1      36.080  15.952  20.951  0.00  0.00    +0.000 C 
ATOM      4  C   UNL     1      35.861  14.707  20.611  0.00  0.00    +0.000 C 
ATOM      5  C   UNL     1      35.194  13.573  21.159  0.00  0.00    +0.000 C 
ATOM      6  C   UNL     1      34.735  15.320  22.921  0.00  0.00    +0.000 C 
ATOM      7  C   UNL     1      34.704  14.030  22.272  0.00  0.00    +0.000 C 
ATOM      8  C   UNL     1      35.820  12.220  21.088  0.00  0.00    +0.000 C 
ENDROOT
BRANCH   3   9
ATOM      9  C   UNL     1      36.827  16.878  20.150  0.00  0.00    +0.000 A 
ATOM     10  C   UNL     1      38.252  16.784  19.929  0.00  0.00    +0.000 A 
ATOM     11  C   UNL     1      39.244  17.805  19.324  0.00  0.00    +0.000 A 
ATOM     12  C   UNL     1      38.644  19.150  18.875  0.00  0.00    +0.000 A 
ATOM     13  C   UNL     1      37.129  19.348  19.067  0.00  0.00    +0.000 A 
ATOM     14  C   UNL     1      36.362  18.165  19.698  0.00  0.00    +0.000 A 
ENDBRANCH   3   9
BRANCH   2  15
ATOM     15  O   UNL     1      35.532  17.579  22.659  0.00  0.00    +0.000 OA
ATOM     16  H   UNL     1      36.208  17.987  22.080  0.00  0.00    +0.000 HD
ENDBRANCH   2  15
TORSDOF 2
ENDMDL
MODEL 2
REMARK VINA RESULT:      -5.4      1.699      5.143
REMARK  Name = Ciclopirox.pdbqt.pdb
REMARK  2 active torsions:
REMARK  status: ('A' for Active; 'I' for Inactive)
REMARK    1  A    between atoms: N_2  and  O_15
REMARK    2  A    between atoms: C_3  and  C_9
REMARK                            x       y       z     vdW  Elec       q    Type
REMARK                         _______ _______ _______ _____ _____    ______ ____
ROOT
ATOM      1  O   UNL     1      33.908  19.092  19.623  0.00  0.00    +0.000 OA
ATOM      2  N   UNL     1      34.613  16.967  20.308  0.00  0.00    +0.000 N 
ATOM      3  C   UNL     1      35.673  16.128  20.682  0.00  0.00    +0.000 C 
ATOM      4  C   UNL     1      36.821  16.754  20.607  0.00  0.00    +0.000 C 
ATOM      5  C   UNL     1      37.287  18.047  20.231  0.00  0.00    +0.000 C 
ATOM      6  C   UNL     1      34.796  18.305  19.915  0.00  0.00    +0.000 C 
ATOM      7  C   UNL     1      36.192  18.676  19.923  0.00  0.00    +0.000 C 
ATOM      8  C   UNL     1      38.522  18.196  19.406  0.00  0.00    +0.000 C 
ENDROOT
BRANCH   3   9
ATOM      9  C   UNL     1      35.532  14.767  21.108  0.00  0.00    +0.000 A 
ATOM     10  C   UNL     1      35.900  14.291  22.422  0.00  0.00    +0.000 A 
ATOM     11  C   UNL     1      36.056  12.851  22.962  0.00  0.00    +0.000 A 
ATOM     12  C   UNL     1      35.779  11.716  21.959  0.00  0.00    +0.000 A 
ATOM     13  C   UNL     1      35.377  12.120  20.528  0.00  0.00    +0.000 A 
ATOM     14  C   UNL     1      35.292  13.636  20.246  0.00  0.00    +0.000 A 
ENDBRANCH   3   9
BRANCH   2  15
ATOM     15  O   UNL     1      33.293  16.488  20.415  0.00  0.00    +0.000 OA
ATOM     16  H   UNL     1      33.380  15.558  20.123  0.00  0.00    +0.000 HD
ENDBRANCH   2  15
TORSDOF 2
ENDMDL
MODEL 3
REMARK VINA RESULT:      -4.5     35.972     36.942
REMARK  Name = Ciclopirox.pdbqt.pdb
REMARK  2 active torsions:
REMARK  status: ('A' for Active; 'I' for Inactive)
REMARK    1  A    between atoms: N_2  and  O_15
REMARK    2  A    between atoms: C_3  and  C_9
REMARK                            x       y       z     vdW  Elec       q    Type
REMARK                         _______ _______ _______ _____ _____    ______ ____
ROOT
ATOM      1  O   UNL     1      51.685   2.654  -9.206  0.00  0.00    +0.000 OA
ATOM      2  N   UNL     1      49.679   1.519  -9.620  0.00  0.00    +0.000 N 
ATOM      3  C   UNL     1      48.913   0.357  -9.451  0.00  0.00    +0.000 C 
ATOM      4  C   UNL     1      49.580  -0.559  -8.794  0.00  0.00    +0.000 C 
ATOM      5  C   UNL     1      50.877  -0.701  -8.221  0.00  0.00    +0.000 C 
ATOM      6  C   UNL     1      50.990   1.651  -9.128  0.00  0.00    +0.000 C 
ATOM      7  C   UNL     1      51.434   0.447  -8.467  0.00  0.00    +0.000 C 
ATOM      8  C   UNL     1      51.636  -1.977  -8.376  0.00  0.00    +0.000 C 
ENDROOT
BRANCH   3   9
ATOM      9  C   UNL     1      47.568   0.184  -9.917  0.00  0.00    +0.000 A 
ATOM     10  C   UNL     1      46.448  -0.116  -9.054  0.00  0.00    +0.000 A 
ATOM     11  C   UNL     1      45.013  -0.577  -9.395  0.00  0.00    +0.000 A 
ATOM     12  C   UNL     1      44.693  -0.753 -10.891  0.00  0.00    +0.000 A 
ATOM     13  C   UNL     1      45.823  -0.456 -11.894  0.00  0.00    +0.000 A 
ATOM     14  C   UNL     1      47.172  -0.007 -11.290  0.00  0.00    +0.000 A 
ENDBRANCH   3   9
BRANCH   2  15
ATOM     15  O   UNL     1      49.088   2.644 -10.227  0.00  0.00    +0.000 OA
ATOM     16  H   UNL     1      49.135   3.318  -9.518  0.00  0.00    +0.000 HD
ENDBRANCH   2  15
TORSDOF 2
ENDMDL
MODEL 4
REMARK VINA RESULT:      -4.3     31.735     33.951
REMARK  Name = Ciclopirox.pdbqt.pdb
REMARK  2 active torsions:
REMARK  status: ('A' for Active; 'I' for Inactive)
REMARK    1  A    between atoms: N_2  and  O_15
REMARK    2  A    between atoms: C_3  and  C_9
REMARK                            x       y       z     vdW  Elec       q    Type
REMARK                         _______ _______ _______ _____ _____    ______ ____
ROOT
ATOM      1  O   UNL     1      43.319 -13.803   6.270  0.00  0.00    +0.000 OA
ATOM      2  N   UNL     1      41.901 -13.155   4.522  0.00  0.00    +0.000 N 
ATOM      3  C   UNL     1      40.841 -12.348   4.088  0.00  0.00    +0.000 C 
ATOM      4  C   UNL     1      40.366 -11.620   5.068  0.00  0.00    +0.000 C 
ATOM      5  C   UNL     1      40.622 -11.442   6.459  0.00  0.00    +0.000 C 
ATOM      6  C   UNL     1      42.372 -13.155   5.847  0.00  0.00    +0.000 C 
ATOM      7  C   UNL     1      41.615 -12.251   6.681  0.00  0.00    +0.000 C 
ATOM      8  C   UNL     1      39.492 -11.321   7.426  0.00  0.00    +0.000 C 
ENDROOT
BRANCH   3   9
ATOM      9  C   UNL     1      40.340 -12.300   2.745  0.00  0.00    +0.000 A 
ATOM     10  C   UNL     1      40.142 -13.467   1.916  0.00  0.00    +0.000 A 
ATOM     11  C   UNL     1      39.863 -13.587   0.401  0.00  0.00    +0.000 A 
ATOM     12  C   UNL     1      39.773 -12.263  -0.380  0.00  0.00    +0.000 A 
ATOM     13  C   UNL     1      39.968 -10.959   0.415  0.00  0.00    +0.000 A 
ATOM     14  C   UNL     1      40.236 -11.117   1.928  0.00  0.00    +0.000 A 
ENDBRANCH   3   9
BRANCH   2  15
ATOM     15  O   UNL     1      42.593 -13.940   3.579  0.00  0.00    +0.000 OA
ATOM     16  H   UNL     1      42.698 -13.323   2.826  0.00  0.00    +0.000 HD
ENDBRANCH   2  15
TORSDOF 2
ENDMDL
MODEL 5
REMARK VINA RESULT:      -4.2     20.604     21.629
REMARK  Name = Ciclopirox.pdbqt.pdb
REMARK  2 active torsions:
REMARK  status: ('A' for Active; 'I' for Inactive)
REMARK    1  A    between atoms: N_2  and  O_15
REMARK    2  A    between atoms: C_3  and  C_9
REMARK                            x       y       z     vdW  Elec       q    Type
REMARK                         _______ _______ _______ _____ _____    ______ ____
ROOT
ATOM      1  O   UNL     1      38.486  20.333  -2.050  0.00  0.00    +0.000 OA
ATOM      2  N   UNL     1      40.117  20.899  -0.468  0.00  0.00    +0.000 N 
ATOM      3  C   UNL     1      40.438  21.145   0.875  0.00  0.00    +0.000 C 
ATOM      4  C   UNL     1      39.376  21.063   1.638  0.00  0.00    +0.000 C 
ATOM      5  C   UNL     1      37.983  20.811   1.472  0.00  0.00    +0.000 C 
ATOM      6  C   UNL     1      38.813  20.600  -0.902  0.00  0.00    +0.000 C 
ATOM      7  C   UNL     1      37.872  20.608   0.193  0.00  0.00    +0.000 C 
ATOM      8  C   UNL     1      36.974  21.621   2.216  0.00  0.00    +0.000 C 
ENDROOT
BRANCH   3   9
ATOM      9  C   UNL     1      41.753  21.433   1.366  0.00  0.00    +0.000 A 
ATOM     10  C   UNL     1      42.306  22.765   1.456  0.00  0.00    +0.000 A 
ATOM     11  C   UNL     1      43.757  23.235   1.712  0.00  0.00    +0.000 A 
ATOM     12  C   UNL     1      44.806  22.125   1.908  0.00  0.00    +0.000 A 
ATOM     13  C   UNL     1      44.315  20.668   1.833  0.00  0.00    +0.000 A 
ATOM     14  C   UNL     1      42.806  20.469   1.565  0.00  0.00    +0.000 A 
ENDBRANCH   3   9
BRANCH   2  15
ATOM     15  O   UNL     1      41.153  20.856  -1.421  0.00  0.00    +0.000 OA
ATOM     16  H   UNL     1      41.414  19.912  -1.409  0.00  0.00    +0.000 HD
ENDBRANCH   2  15
TORSDOF 2
ENDMDL
MODEL 6
REMARK VINA RESULT:      -4.0     34.482     35.816
REMARK  Name = Ciclopirox.pdbqt.pdb
REMARK  2 active torsions:
REMARK  status: ('A' for Active; 'I' for Inactive)
REMARK    1  A    between atoms: N_2  and  O_15
REMARK    2  A    between atoms: C_3  and  C_9
REMARK                            x       y       z     vdW  Elec       q    Type
REMARK                         _______ _______ _______ _____ _____    ______ ____
ROOT
ATOM      1  O   UNL     1      48.904  -6.867  -0.068  0.00  0.00    +0.000 OA
ATOM      2  N   UNL     1      47.172  -8.181  -0.939  0.00  0.00    +0.000 N 
ATOM      3  C   UNL     1      46.655  -9.462  -1.176  0.00  0.00    +0.000 C 
ATOM      4  C   UNL     1      47.486 -10.391  -0.773  0.00  0.00    +0.000 C 
ATOM      5  C   UNL     1      48.779 -10.453  -0.177  0.00  0.00    +0.000 C 
ATOM      6  C   UNL     1      48.425  -7.959  -0.338  0.00  0.00    +0.000 C 
ATOM      7  C   UNL     1      49.096  -9.201  -0.032  0.00  0.00    +0.000 C 
ATOM      8  C   UNL     1      49.781 -11.454  -0.648  0.00  0.00    +0.000 C 
ENDROOT
BRANCH   3   9
ATOM      9  C   UNL     1      45.377  -9.737  -1.767  0.00  0.00    +0.000 A 
ATOM     10  C   UNL     1      44.147  -9.836  -1.016  0.00  0.00    +0.000 A 
ATOM     11  C   UNL     1      42.755 -10.363  -1.434  0.00  0.00    +0.000 A 
ATOM     12  C   UNL     1      42.628 -10.871  -2.882  0.00  0.00    +0.000 A 
ATOM     13  C   UNL     1      43.886 -10.805  -3.767  0.00  0.00    +0.000 A 
ATOM     14  C   UNL     1      45.158 -10.231  -3.103  0.00  0.00    +0.000 A 
ENDBRANCH   3   9
BRANCH   2  15
ATOM     15  O   UNL     1      46.374  -7.057  -1.228  0.00  0.00    +0.000 OA
ATOM     16  H   UNL     1      46.264  -7.119  -2.199  0.00  0.00    +0.000 HD
ENDBRANCH   2  15
TORSDOF 2
ENDMDL
MODEL 7
REMARK VINA RESULT:      -3.9     18.214     18.983
REMARK  Name = Ciclopirox.pdbqt.pdb
REMARK  2 active torsions:
REMARK  status: ('A' for Active; 'I' for Inactive)
REMARK    1  A    between atoms: N_2  and  O_15
REMARK    2  A    between atoms: C_3  and  C_9
REMARK                            x       y       z     vdW  Elec       q    Type
REMARK                         _______ _______ _______ _____ _____    ______ ____
ROOT
ATOM      1  O   UNL     1      32.301  14.517   1.759  0.00  0.00    +0.000 OA
ATOM      2  N   UNL     1      33.550  16.494   1.881  0.00  0.00    +0.000 N 
ATOM      3  C   UNL     1      33.777  17.719   2.523  0.00  0.00    +0.000 C 
ATOM      4  C   UNL     1      32.910  17.919   3.483  0.00  0.00    +0.000 C 
ATOM      5  C   UNL     1      31.787  17.239   4.040  0.00  0.00    +0.000 C 
ATOM      6  C   UNL     1      32.517  15.615   2.252  0.00  0.00    +0.000 C 
ATOM      7  C   UNL     1      31.728  16.148   3.338  0.00  0.00    +0.000 C 
ATOM      8  C   UNL     1      30.551  17.993   4.404  0.00  0.00    +0.000 C 
ENDROOT
BRANCH   3   9
ATOM      9  C   UNL     1      34.828  18.637   2.193  0.00  0.00    +0.000 A 
ATOM     10  C   UNL     1      35.878  19.024   3.109  0.00  0.00    +0.000 A 
ATOM     11  C   UNL     1      36.919  20.163   3.020  0.00  0.00    +0.000 A 
ATOM     12  C   UNL     1      36.853  21.047   1.760  0.00  0.00    +0.000 A 
ATOM     13  C   UNL     1      35.767  20.715   0.720  0.00  0.00    +0.000 A 
ATOM     14  C   UNL     1      34.849  19.517   1.052  0.00  0.00    +0.000 A 
ENDBRANCH   3   9
BRANCH   2  15
ATOM     15  O   UNL     1      34.445  16.071   0.879  0.00  0.00    +0.000 OA
ATOM     16  H   UNL     1      33.966  15.323   0.468  0.00  0.00    +0.000 HD
ENDBRANCH   2  15
TORSDOF 2
ENDMDL
MODEL 8
REMARK VINA RESULT:      -3.8     35.998     37.071
REMARK  Name = Ciclopirox.pdbqt.pdb
REMARK  2 active torsions:
REMARK  status: ('A' for Active; 'I' for Inactive)
REMARK    1  A    between atoms: N_2  and  O_15
REMARK    2  A    between atoms: C_3  and  C_9
REMARK                            x       y       z     vdW  Elec       q    Type
REMARK                         _______ _______ _______ _____ _____    ______ ____
ROOT
ATOM      1  O   UNL     1      53.344  -1.755  -6.941  0.00  0.00    +0.000 OA
ATOM      2  N   UNL     1      51.424  -1.055  -8.083  0.00  0.00    +0.000 N 
ATOM      3  C   UNL     1      50.736  -0.018  -8.731  0.00  0.00    +0.000 C 
ATOM      4  C   UNL     1      51.414   1.101  -8.685  0.00  0.00    +0.000 C 
ATOM      5  C   UNL     1      52.650   1.556  -8.140  0.00  0.00    +0.000 C 
ATOM      6  C   UNL     1      52.681  -0.879  -7.478  0.00  0.00    +0.000 C 
ATOM      7  C   UNL     1      53.140   0.486  -7.590  0.00  0.00    +0.000 C 
ATOM      8  C   UNL     1      52.734   2.882  -7.459  0.00  0.00    +0.000 C 
ENDROOT
BRANCH   3   9
ATOM      9  C   UNL     1      49.464  -0.154  -9.378  0.00  0.00    +0.000 A 
ATOM     10  C   UNL     1      49.273  -0.071 -10.808  0.00  0.00    +0.000 A 
ATOM     11  C   UNL     1      47.979   0.060 -11.643  0.00  0.00    +0.000 A 
ATOM     12  C   UNL     1      46.661   0.110 -10.849  0.00  0.00    +0.000 A 
ATOM     13  C   UNL     1      46.756   0.025  -9.314  0.00  0.00    +0.000 A 
ATOM     14  C   UNL     1      48.179  -0.103  -8.726  0.00  0.00    +0.000 A 
ENDBRANCH   3   9
BRANCH   2  15
ATOM     15  O   UNL     1      50.884  -2.355  -8.112  0.00  0.00    +0.000 OA
ATOM     16  H   UNL     1      51.269  -2.727  -8.932  0.00  0.00    +0.000 HD
ENDBRANCH   2  15
TORSDOF 2
ENDMDL
MODEL 9
REMARK VINA RESULT:      -3.6      5.597      7.917
REMARK  Name = Ciclopirox.pdbqt.pdb
REMARK  2 active torsions:
REMARK  status: ('A' for Active; 'I' for Inactive)
REMARK    1  A    between atoms: N_2  and  O_15
REMARK    2  A    between atoms: C_3  and  C_9
REMARK                            x       y       z     vdW  Elec       q    Type
REMARK                         _______ _______ _______ _____ _____    ______ ____
ROOT
ATOM      1  O   UNL     1      30.858   8.252  25.845  0.00  0.00    +0.000 OA
ATOM      2  N   UNL     1      32.147   9.197  24.133  0.00  0.00    +0.000 N 
ATOM      3  C   UNL     1      32.516   9.191  22.781  0.00  0.00    +0.000 C 
ATOM      4  C   UNL     1      31.926   8.219  22.132  0.00  0.00    +0.000 C 
ATOM      5  C   UNL     1      31.025   7.155  22.431  0.00  0.00    +0.000 C 
ATOM      6  C   UNL     1      31.249   8.266  24.686  0.00  0.00    +0.000 C 
ATOM      7  C   UNL     1      30.795   7.313  23.700  0.00  0.00    +0.000 C 
ATOM      8  C   UNL     1      31.238   5.797  21.848  0.00  0.00    +0.000 C 
ENDROOT
BRANCH   3   9
ATOM      9  C   UNL     1      33.410  10.130  22.169  0.00  0.00    +0.000 A 
ATOM     10  C   UNL     1      34.844  10.111  22.345  0.00  0.00    +0.000 A 
ATOM     11  C   UNL     1      35.915  11.166  21.983  0.00  0.00    +0.000 A 
ATOM     12  C   UNL     1      35.399  12.458  21.323  0.00  0.00    +0.000 A 
ATOM     13  C   UNL     1      33.882  12.575  21.089  0.00  0.00    +0.000 A 
ATOM     14  C   UNL     1      33.027  11.372  21.545  0.00  0.00    +0.000 A 
ENDBRANCH   3   9
BRANCH   2  15
ATOM     15  O   UNL     1      32.617  10.231  24.965  0.00  0.00    +0.000 OA
ATOM     16  H   UNL     1      33.355  10.606  24.442  0.00  0.00    +0.000 HD
ENDBRANCH   2  15
TORSDOF 2
ENDMDL
