MODEL 1
REMARK VINA RESULT:      -7.2      0.000      0.000
REMARK  Name = 
REMARK  5 active torsions:
REMARK  status: ('A' for Active; 'I' for Inactive)
REMARK    1  A    between atoms: O_5  and  C_10
REMARK    2  A    between atoms: N_9  and  C_20
REMARK    3  A    between atoms: N_9  and  C_25
REMARK    4  A    between atoms: C_10  and  C_11
REMARK    5  A    between atoms: C_18  and  C_19
REMARK                            x       y       z     vdW  Elec       q    Type
REMARK                         _______ _______ _______ _____ _____    ______ ____
ROOT
ATOM      1  F   UNL     1      50.684   7.166   6.206  0.00  0.00    +0.000 F 
ATOM      2  F   UNL     1      50.459   9.526   7.498  0.00  0.00    +0.000 F 
ATOM      3  C   UNL     1      51.568   6.174   9.594  0.00  0.00    +0.000 A 
ATOM      4  C   UNL     1      51.313   6.043   8.211  0.00  0.00    +0.000 A 
ATOM      5  C   UNL     1      51.463   7.409  10.257  0.00  0.00    +0.000 A 
ATOM      6  C   UNL     1      50.928   7.204   7.525  0.00  0.00    +0.000 A 
ATOM      7  C   UNL     1      51.088   8.543   9.541  0.00  0.00    +0.000 A 
ATOM      8  C   UNL     1      50.824   8.431   8.182  0.00  0.00    +0.000 A 
ENDROOT
BRANCH   3  14
ATOM      9  O   UNL     1      53.115   4.616  10.388  0.00  0.00    +0.000 OA
ATOM     10  N   UNL     1      50.920   4.303  11.009  0.00  0.00    +0.000 N 
ATOM     11  C   UNL     1      49.760   2.605  10.653  0.00  0.00    +0.000 C 
ATOM     12  C   UNL     1      49.537   4.142  10.565  0.00  0.00    +0.000 C 
ATOM     13  C   UNL     1      51.002   2.940  11.532  0.00  0.00    +0.000 C 
ATOM     14  C   UNL     1      51.942   4.976  10.378  0.00  0.00    +0.000 C 
BRANCH  11  16
ATOM     15  N   UNL     1      50.637   0.509   9.659  0.00  0.00    +0.000 NA
ATOM     16  C   UNL     1      50.145   1.874   9.340  0.00  0.00    +0.000 C 
ATOM     17  C   UNL     1      48.946   1.768   8.380  0.00  0.00    +0.000 C 
ATOM     18  C   UNL     1      49.333   1.022   7.102  0.00  0.00    +0.000 C 
ATOM     19  C   UNL     1      51.122  -0.149   8.437  0.00  0.00    +0.000 C 
ATOM     20  C   UNL     1      49.996  -0.314   7.418  0.00  0.00    +0.000 C 
ATOM     21  H   UNL     1      49.842  -0.039   9.997  0.00  0.00    +0.000 HD
ENDBRANCH  11  16
BRANCH  11  22
ATOM     22  O   UNL     1      48.707   1.872  11.344  0.00  0.00    +0.000 OA
ATOM     23  H   UNL     1      48.369   1.270  10.654  0.00  0.00    +0.000 HD
ENDBRANCH  11  22
ENDBRANCH   3  14
BRANCH   4  24
ATOM     24  N   UNL     1      51.370   4.771   7.601  0.00  0.00    +0.000 N 
ATOM     25  H   UNL     1      50.670   4.112   7.961  0.00  0.00    +0.000 HD
BRANCH  24  28
ATOM     26  I   UNL     1      54.552   2.757   2.549  0.00  0.00    +0.000 I 
ATOM     27  F   UNL     1      54.091   5.007   7.394  0.00  0.00    +0.000 F 
ATOM     28  C   UNL     1      52.033   4.296   6.454  0.00  0.00    +0.000 A 
ATOM     29  C   UNL     1      53.430   4.446   6.369  0.00  0.00    +0.000 A 
ATOM     30  C   UNL     1      51.383   3.705   5.368  0.00  0.00    +0.000 A 
ATOM     31  C   UNL     1      54.161   4.015   5.265  0.00  0.00    +0.000 A 
ATOM     32  C   UNL     1      52.104   3.267   4.248  0.00  0.00    +0.000 A 
ATOM     33  C   UNL     1      53.489   3.422   4.203  0.00  0.00    +0.000 A 
ENDBRANCH  24  28
ENDBRANCH   4  24
TORSDOF 5
ENDMDL
MODEL 2
REMARK VINA RESULT:      -6.7     12.931     14.862
REMARK  Name = 
REMARK  5 active torsions:
REMARK  status: ('A' for Active; 'I' for Inactive)
REMARK    1  A    between atoms: O_5  and  C_10
REMARK    2  A    between atoms: N_9  and  C_20
REMARK    3  A    between atoms: N_9  and  C_25
REMARK    4  A    between atoms: C_10  and  C_11
REMARK    5  A    between atoms: C_18  and  C_19
REMARK                            x       y       z     vdW  Elec       q    Type
REMARK                         _______ _______ _______ _____ _____    ______ ____
ROOT
ATOM      1  F   UNL     1      39.598   1.066  16.462  0.00  0.00    +0.000 F 
ATOM      2  F   UNL     1      39.263   2.264  14.065  0.00  0.00    +0.000 F 
ATOM      3  C   UNL     1      40.385  -1.683  14.212  0.00  0.00    +0.000 A 
ATOM      4  C   UNL     1      40.191  -0.998  15.431  0.00  0.00    +0.000 A 
ATOM      5  C   UNL     1      40.195  -1.057  12.968  0.00  0.00    +0.000 A 
ATOM      6  C   UNL     1      39.817   0.351  15.348  0.00  0.00    +0.000 A 
ATOM      7  C   UNL     1      39.813   0.281  12.924  0.00  0.00    +0.000 A 
ATOM      8  C   UNL     1      39.627   0.974  14.114  0.00  0.00    +0.000 A 
ENDROOT
BRANCH   3  14
ATOM      9  O   UNL     1      40.073  -3.936  14.735  0.00  0.00    +0.000 OA
ATOM     10  N   UNL     1      42.071  -3.373  13.739  0.00  0.00    +0.000 N 
ATOM     11  C   UNL     1      43.980  -3.711  14.511  0.00  0.00    +0.000 C 
ATOM     12  C   UNL     1      43.266  -2.533  13.789  0.00  0.00    +0.000 C 
ATOM     13  C   UNL     1      42.821  -4.605  13.976  0.00  0.00    +0.000 C 
ATOM     14  C   UNL     1      40.817  -3.098  14.237  0.00  0.00    +0.000 C 
BRANCH  11  16
ATOM     15  N   UNL     1      43.483  -4.934  16.611  0.00  0.00    +0.000 NA
ATOM     16  C   UNL     1      44.023  -3.664  16.062  0.00  0.00    +0.000 C 
ATOM     17  C   UNL     1      45.456  -3.457  16.582  0.00  0.00    +0.000 C 
ATOM     18  C   UNL     1      45.487  -3.439  18.110  0.00  0.00    +0.000 C 
ATOM     19  C   UNL     1      43.401  -4.855  18.076  0.00  0.00    +0.000 C 
ATOM     20  C   UNL     1      44.785  -4.660  18.694  0.00  0.00    +0.000 C 
ATOM     21  H   UNL     1      44.149  -5.679  16.390  0.00  0.00    +0.000 HD
ENDBRANCH  11  16
BRANCH  11  22
ATOM     22  O   UNL     1      45.298  -4.044  13.984  0.00  0.00    +0.000 OA
ATOM     23  H   UNL     1      45.902  -3.579  14.593  0.00  0.00    +0.000 HD
ENDBRANCH  11  22
ENDBRANCH   3  14
BRANCH   4  24
ATOM     24  N   UNL     1      40.455  -1.650  16.656  0.00  0.00    +0.000 N 
ATOM     25  H   UNL     1      39.964  -2.545  16.758  0.00  0.00    +0.000 HD
BRANCH  24  28
ATOM     26  I   UNL     1      44.623  -0.803  21.305  0.00  0.00    +0.000 I 
ATOM     27  F   UNL     1      40.158  -2.812  19.118  0.00  0.00    +0.000 F 
ATOM     28  C   UNL     1      41.421  -1.435  17.657  0.00  0.00    +0.000 A 
ATOM     29  C   UNL     1      41.233  -2.032  18.917  0.00  0.00    +0.000 A 
ATOM     30  C   UNL     1      42.553  -0.634  17.488  0.00  0.00    +0.000 A 
ATOM     31  C   UNL     1      42.133  -1.861  19.966  0.00  0.00    +0.000 A 
ATOM     32  C   UNL     1      43.468  -0.450  18.533  0.00  0.00    +0.000 A 
ATOM     33  C   UNL     1      43.255  -1.066  19.766  0.00  0.00    +0.000 A 
ENDBRANCH  24  28
ENDBRANCH   4  24
TORSDOF 5
ENDMDL
MODEL 3
REMARK VINA RESULT:      -6.4     12.523     15.479
REMARK  Name = 
REMARK  5 active torsions:
REMARK  status: ('A' for Active; 'I' for Inactive)
REMARK    1  A    between atoms: O_5  and  C_10
REMARK    2  A    between atoms: N_9  and  C_20
REMARK    3  A    between atoms: N_9  and  C_25
REMARK    4  A    between atoms: C_10  and  C_11
REMARK    5  A    between atoms: C_18  and  C_19
REMARK                            x       y       z     vdW  Elec       q    Type
REMARK                         _______ _______ _______ _____ _____    ______ ____
ROOT
ATOM      1  F   UNL     1      41.898  -6.914  16.882  0.00  0.00    +0.000 F 
ATOM      2  F   UNL     1      42.360  -8.883  15.094  0.00  0.00    +0.000 F 
ATOM      3  C   UNL     1      43.264  -5.001  14.104  0.00  0.00    +0.000 A 
ATOM      4  C   UNL     1      42.714  -5.255  15.380  0.00  0.00    +0.000 A 
ATOM      5  C   UNL     1      43.515  -6.033  13.184  0.00  0.00    +0.000 A 
ATOM      6  C   UNL     1      42.408  -6.589  15.684  0.00  0.00    +0.000 A 
ATOM      7  C   UNL     1      43.208  -7.348  13.525  0.00  0.00    +0.000 A 
ATOM      8  C   UNL     1      42.657  -7.615  14.772  0.00  0.00    +0.000 A 
ENDROOT
BRANCH   3  14
ATOM      9  O   UNL     1      44.563  -3.064  14.187  0.00  0.00    +0.000 OA
ATOM     10  N   UNL     1      42.678  -2.989  12.867  0.00  0.00    +0.000 N 
ATOM     11  C   UNL     1      41.095  -1.641  13.041  0.00  0.00    +0.000 C 
ATOM     12  C   UNL     1      41.230  -3.170  12.796  0.00  0.00    +0.000 C 
ATOM     13  C   UNL     1      42.596  -1.548  12.634  0.00  0.00    +0.000 C 
ATOM     14  C   UNL     1      43.572  -3.609  13.712  0.00  0.00    +0.000 C 
BRANCH  11  16
ATOM     15  N   UNL     1      41.018   0.291  14.595  0.00  0.00    +0.000 NA
ATOM     16  C   UNL     1      40.849  -1.182  14.503  0.00  0.00    +0.000 C 
ATOM     17  C   UNL     1      39.437  -1.560  14.985  0.00  0.00    +0.000 C 
ATOM     18  C   UNL     1      39.199  -1.079  16.416  0.00  0.00    +0.000 C 
ATOM     19  C   UNL     1      40.911   0.724  15.995  0.00  0.00    +0.000 C 
ATOM     20  C   UNL     1      39.531   0.402  16.566  0.00  0.00    +0.000 C 
ATOM     21  H   UNL     1      40.243   0.727  14.089  0.00  0.00    +0.000 HD
ENDBRANCH  11  16
BRANCH  11  22
ATOM     22  O   UNL     1      40.177  -0.954  12.140  0.00  0.00    +0.000 OA
ATOM     23  H   UNL     1      39.313  -1.068  12.579  0.00  0.00    +0.000 HD
ENDBRANCH  11  22
ENDBRANCH   3  14
BRANCH   4  24
ATOM     24  N   UNL     1      42.420  -4.180  16.246  0.00  0.00    +0.000 N 
ATOM     25  H   UNL     1      41.503  -3.752  16.073  0.00  0.00    +0.000 HD
BRANCH  24  28
ATOM     26  I   UNL     1      45.172  -1.929  21.449  0.00  0.00    +0.000 I 
ATOM     27  F   UNL     1      43.218  -1.569  16.469  0.00  0.00    +0.000 F 
ATOM     28  C   UNL     1      43.022  -3.726  17.435  0.00  0.00    +0.000 A 
ATOM     29  C   UNL     1      43.436  -2.383  17.514  0.00  0.00    +0.000 A 
ATOM     30  C   UNL     1      43.265  -4.540  18.545  0.00  0.00    +0.000 A 
ATOM     31  C   UNL     1      44.051  -1.857  18.647  0.00  0.00    +0.000 A 
ATOM     32  C   UNL     1      43.884  -4.026  19.693  0.00  0.00    +0.000 A 
ATOM     33  C   UNL     1      44.271  -2.687  19.739  0.00  0.00    +0.000 A 
ENDBRANCH  24  28
ENDBRANCH   4  24
TORSDOF 5
ENDMDL
MODEL 4
REMARK VINA RESULT:      -6.3     12.822     14.783
REMARK  Name = 
REMARK  5 active torsions:
REMARK  status: ('A' for Active; 'I' for Inactive)
REMARK    1  A    between atoms: O_5  and  C_10
REMARK    2  A    between atoms: N_9  and  C_20
REMARK    3  A    between atoms: N_9  and  C_25
REMARK    4  A    between atoms: C_10  and  C_11
REMARK    5  A    between atoms: C_18  and  C_19
REMARK                            x       y       z     vdW  Elec       q    Type
REMARK                         _______ _______ _______ _____ _____    ______ ____
ROOT
ATOM      1  F   UNL     1      39.855  -0.495  15.081  0.00  0.00    +0.000 F 
ATOM      2  F   UNL     1      39.941   0.096  12.448  0.00  0.00    +0.000 F 
ATOM      3  C   UNL     1      41.947  -3.203  13.845  0.00  0.00    +0.000 A 
ATOM      4  C   UNL     1      41.234  -2.412  14.773  0.00  0.00    +0.000 A 
ATOM      5  C   UNL     1      41.975  -2.897  12.473  0.00  0.00    +0.000 A 
ATOM      6  C   UNL     1      40.567  -1.288  14.266  0.00  0.00    +0.000 A 
ATOM      7  C   UNL     1      41.293  -1.778  12.005  0.00  0.00    +0.000 A 
ATOM      8  C   UNL     1      40.594  -0.983  12.905  0.00  0.00    +0.000 A 
ENDROOT
BRANCH   3  14
ATOM      9  O   UNL     1      42.091  -5.416  14.574  0.00  0.00    +0.000 OA
ATOM     10  N   UNL     1      44.055  -4.215  14.520  0.00  0.00    +0.000 N 
ATOM     11  C   UNL     1      45.336  -3.859  16.128  0.00  0.00    +0.000 C 
ATOM     12  C   UNL     1      44.764  -3.013  14.955  0.00  0.00    +0.000 C 
ATOM     13  C   UNL     1      44.912  -5.108  15.298  0.00  0.00    +0.000 C 
ATOM     14  C   UNL     1      42.702  -4.381  14.326  0.00  0.00    +0.000 C 
BRANCH  11  16
ATOM     15  N   UNL     1      44.338  -5.143  18.001  0.00  0.00    +0.000 NA
ATOM     16  C   UNL     1      44.592  -3.772  17.487  0.00  0.00    +0.000 C 
ATOM     17  C   UNL     1      45.406  -2.984  18.528  0.00  0.00    +0.000 C 
ATOM     18  C   UNL     1      44.673  -2.929  19.869  0.00  0.00    +0.000 C 
ATOM     19  C   UNL     1      43.525  -5.079  19.224  0.00  0.00    +0.000 C 
ATOM     20  C   UNL     1      44.256  -4.321  20.330  0.00  0.00    +0.000 C 
ATOM     21  H   UNL     1      45.239  -5.550  18.264  0.00  0.00    +0.000 HD
ENDBRANCH  11  16
BRANCH  11  22
ATOM     22  O   UNL     1      46.773  -3.726  16.335  0.00  0.00    +0.000 OA
ATOM     23  H   UNL     1      46.845  -2.899  16.848  0.00  0.00    +0.000 HD
ENDBRANCH  11  22
ENDBRANCH   3  14
BRANCH   4  24
ATOM     24  N   UNL     1      41.287  -2.721  16.149  0.00  0.00    +0.000 N 
ATOM     25  H   UNL     1      41.315  -3.729  16.342  0.00  0.00    +0.000 HD
BRANCH  24  28
ATOM     26  I   UNL     1      42.589   0.906  21.134  0.00  0.00    +0.000 I 
ATOM     27  F   UNL     1      43.050  -0.630  16.018  0.00  0.00    +0.000 F 
ATOM     28  C   UNL     1      41.535  -1.936  17.291  0.00  0.00    +0.000 A 
ATOM     29  C   UNL     1      42.458  -0.879  17.197  0.00  0.00    +0.000 A 
ATOM     30  C   UNL     1      40.938  -2.160  18.535  0.00  0.00    +0.000 A 
ATOM     31  C   UNL     1      42.771  -0.062  18.281  0.00  0.00    +0.000 A 
ATOM     32  C   UNL     1      41.243  -1.349  19.636  0.00  0.00    +0.000 A 
ATOM     33  C   UNL     1      42.155  -0.302  19.503  0.00  0.00    +0.000 A 
ENDBRANCH  24  28
ENDBRANCH   4  24
TORSDOF 5
ENDMDL
MODEL 5
REMARK VINA RESULT:      -6.3     12.931     14.937
REMARK  Name = 
REMARK  5 active torsions:
REMARK  status: ('A' for Active; 'I' for Inactive)
REMARK    1  A    between atoms: O_5  and  C_10
REMARK    2  A    between atoms: N_9  and  C_20
REMARK    3  A    between atoms: N_9  and  C_25
REMARK    4  A    between atoms: C_10  and  C_11
REMARK    5  A    between atoms: C_18  and  C_19
REMARK                            x       y       z     vdW  Elec       q    Type
REMARK                         _______ _______ _______ _____ _____    ______ ____
ROOT
ATOM      1  F   UNL     1      41.058  -0.154  20.077  0.00  0.00    +0.000 F 
ATOM      2  F   UNL     1      40.307   2.428  19.841  0.00  0.00    +0.000 F 
ATOM      3  C   UNL     1      39.740  -0.137  16.685  0.00  0.00    +0.000 A 
ATOM      4  C   UNL     1      40.330  -0.646  17.863  0.00  0.00    +0.000 A 
ATOM      5  C   UNL     1      39.339   1.206  16.575  0.00  0.00    +0.000 A 
ATOM      6  C   UNL     1      40.519   0.256  18.919  0.00  0.00    +0.000 A 
ATOM      7  C   UNL     1      39.532   2.071  17.648  0.00  0.00    +0.000 A 
ATOM      8  C   UNL     1      40.120   1.589  18.811  0.00  0.00    +0.000 A 
ENDROOT
BRANCH   3  14
ATOM      9  O   UNL     1      38.699  -1.913  15.586  0.00  0.00    +0.000 OA
ATOM     10  N   UNL     1      40.396  -0.849  14.452  0.00  0.00    +0.000 N 
ATOM     11  C   UNL     1      42.136  -1.730  13.711  0.00  0.00    +0.000 C 
ATOM     12  C   UNL     1      41.793  -0.417  14.469  0.00  0.00    +0.000 C 
ATOM     13  C   UNL     1      40.617  -1.812  13.375  0.00  0.00    +0.000 C 
ATOM     14  C   UNL     1      39.551  -1.033  15.523  0.00  0.00    +0.000 C 
BRANCH  11  16
ATOM     15  N   UNL     1      41.886  -4.157  14.158  0.00  0.00    +0.000 NA
ATOM     16  C   UNL     1      42.619  -2.931  14.567  0.00  0.00    +0.000 C 
ATOM     17  C   UNL     1      44.131  -3.169  14.408  0.00  0.00    +0.000 C 
ATOM     18  C   UNL     1      44.587  -4.370  15.236  0.00  0.00    +0.000 C 
ATOM     19  C   UNL     1      42.241  -5.275  15.043  0.00  0.00    +0.000 C 
ATOM     20  C   UNL     1      43.731  -5.599  14.948  0.00  0.00    +0.000 C 
ATOM     21  H   UNL     1      42.201  -4.410  13.218  0.00  0.00    +0.000 HD
ENDBRANCH  11  16
BRANCH  11  22
ATOM     22  O   UNL     1      43.006  -1.560  12.553  0.00  0.00    +0.000 OA
ATOM     23  H   UNL     1      42.938  -2.421  12.099  0.00  0.00    +0.000 HD
ENDBRANCH  11  22
ENDBRANCH   3  14
BRANCH   4  24
ATOM     24  N   UNL     1      40.776  -1.985  17.905  0.00  0.00    +0.000 N 
ATOM     25  H   UNL     1      40.157  -2.639  17.411  0.00  0.00    +0.000 HD
BRANCH  24  28
ATOM     26  I   UNL     1      46.371  -4.418  19.479  0.00  0.00    +0.000 I 
ATOM     27  F   UNL     1      43.136  -0.717  17.337  0.00  0.00    +0.000 F 
ATOM     28  C   UNL     1      41.998  -2.568  18.287  0.00  0.00    +0.000 A 
ATOM     29  C   UNL     1      43.195  -1.901  17.968  0.00  0.00    +0.000 A 
ATOM     30  C   UNL     1      42.103  -3.797  18.945  0.00  0.00    +0.000 A 
ATOM     31  C   UNL     1      44.447  -2.415  18.297  0.00  0.00    +0.000 A 
ATOM     32  C   UNL     1      43.355  -4.328  19.284  0.00  0.00    +0.000 A 
ATOM     33  C   UNL     1      44.520  -3.634  18.961  0.00  0.00    +0.000 A 
ENDBRANCH  24  28
ENDBRANCH   4  24
TORSDOF 5
ENDMDL
MODEL 6
REMARK VINA RESULT:      -6.2      4.211      7.197
REMARK  Name = 
REMARK  5 active torsions:
REMARK  status: ('A' for Active; 'I' for Inactive)
REMARK    1  A    between atoms: O_5  and  C_10
REMARK    2  A    between atoms: N_9  and  C_20
REMARK    3  A    between atoms: N_9  and  C_25
REMARK    4  A    between atoms: C_10  and  C_11
REMARK    5  A    between atoms: C_18  and  C_19
REMARK                            x       y       z     vdW  Elec       q    Type
REMARK                         _______ _______ _______ _____ _____    ______ ____
ROOT
ATOM      1  F   UNL     1      49.237   0.641  11.350  0.00  0.00    +0.000 F 
ATOM      2  F   UNL     1      47.877  -0.106   9.140  0.00  0.00    +0.000 F 
ATOM      3  C   UNL     1      50.936   2.613   8.807  0.00  0.00    +0.000 A 
ATOM      4  C   UNL     1      50.632   2.103  10.089  0.00  0.00    +0.000 A 
ATOM      5  C   UNL     1      50.234   2.208   7.659  0.00  0.00    +0.000 A 
ATOM      6  C   UNL     1      49.577   1.184  10.170  0.00  0.00    +0.000 A 
ATOM      7  C   UNL     1      49.198   1.285   7.777  0.00  0.00    +0.000 A 
ATOM      8  C   UNL     1      48.878   0.780   9.031  0.00  0.00    +0.000 A 
ENDROOT
BRANCH   3  14
ATOM      9  O   UNL     1      53.177   3.265   8.840  0.00  0.00    +0.000 OA
ATOM     10  N   UNL     1      51.629   4.908   8.391  0.00  0.00    +0.000 N 
ATOM     11  C   UNL     1      51.353   6.678   9.462  0.00  0.00    +0.000 C 
ATOM     12  C   UNL     1      50.422   5.602   8.835  0.00  0.00    +0.000 C 
ATOM     13  C   UNL     1      52.472   6.092   8.550  0.00  0.00    +0.000 C 
ATOM     14  C   UNL     1      52.015   3.615   8.664  0.00  0.00    +0.000 C 
BRANCH  11  16
ATOM     15  N   UNL     1      52.006   7.862  11.541  0.00  0.00    +0.000 NA
ATOM     16  C   UNL     1      51.682   6.529  10.972  0.00  0.00    +0.000 C 
ATOM     17  C   UNL     1      50.503   5.920  11.750  0.00  0.00    +0.000 C 
ATOM     18  C   UNL     1      50.832   5.803  13.239  0.00  0.00    +0.000 C 
ATOM     19  C   UNL     1      52.441   7.721  12.938  0.00  0.00    +0.000 C 
ATOM     20  C   UNL     1      51.328   7.130  13.803  0.00  0.00    +0.000 C 
ATOM     21  H   UNL     1      51.146   8.416  11.552  0.00  0.00    +0.000 HD
ENDBRANCH  11  16
BRANCH  11  22
ATOM     22  O   UNL     1      50.985   8.056   9.164  0.00  0.00    +0.000 OA
ATOM     23  H   UNL     1      51.433   8.561   9.868  0.00  0.00    +0.000 HD
ENDBRANCH  11  22
ENDBRANCH   3  14
BRANCH   4  24
ATOM     24  N   UNL     1      51.322   2.586  11.221  0.00  0.00    +0.000 N 
ATOM     25  H   UNL     1      51.129   3.573  11.430  0.00  0.00    +0.000 HD
BRANCH  24  28
ATOM     26  I   UNL     1      54.625  -0.470  15.632  0.00  0.00    +0.000 I 
ATOM     27  F   UNL     1      53.250   0.745  10.594  0.00  0.00    +0.000 F 
ATOM     28  C   UNL     1      52.038   1.938  12.246  0.00  0.00    +0.000 A 
ATOM     29  C   UNL     1      53.011   0.986  11.893  0.00  0.00    +0.000 A 
ATOM     30  C   UNL     1      51.821   2.162  13.608  0.00  0.00    +0.000 A 
ATOM     31  C   UNL     1      53.754   0.290  12.843  0.00  0.00    +0.000 A 
ATOM     32  C   UNL     1      52.559   1.470  14.578  0.00  0.00    +0.000 A 
ATOM     33  C   UNL     1      53.524   0.540  14.191  0.00  0.00    +0.000 A 
ENDBRANCH  24  28
ENDBRANCH   4  24
TORSDOF 5
ENDMDL
MODEL 7
REMARK VINA RESULT:      -6.2      1.683      2.008
REMARK  Name = 
REMARK  5 active torsions:
REMARK  status: ('A' for Active; 'I' for Inactive)
REMARK    1  A    between atoms: O_5  and  C_10
REMARK    2  A    between atoms: N_9  and  C_20
REMARK    3  A    between atoms: N_9  and  C_25
REMARK    4  A    between atoms: C_10  and  C_11
REMARK    5  A    between atoms: C_18  and  C_19
REMARK                            x       y       z     vdW  Elec       q    Type
REMARK                         _______ _______ _______ _____ _____    ______ ____
ROOT
ATOM      1  F   UNL     1      52.598   6.846   8.609  0.00  0.00    +0.000 F 
ATOM      2  F   UNL     1      51.573   8.498  10.483  0.00  0.00    +0.000 F 
ATOM      3  C   UNL     1      51.603   4.447  11.157  0.00  0.00    +0.000 A 
ATOM      4  C   UNL     1      52.132   4.926   9.938  0.00  0.00    +0.000 A 
ATOM      5  C   UNL     1      51.084   5.314  12.134  0.00  0.00    +0.000 A 
ATOM      6  C   UNL     1      52.100   6.312   9.734  0.00  0.00    +0.000 A 
ATOM      7  C   UNL     1      51.077   6.687  11.901  0.00  0.00    +0.000 A 
ATOM      8  C   UNL     1      51.585   7.175  10.703  0.00  0.00    +0.000 A 
ENDROOT
BRANCH   3  14
ATOM      9  O   UNL     1      52.635   2.403  11.607  0.00  0.00    +0.000 OA
ATOM     10  N   UNL     1      50.346   2.373  11.359  0.00  0.00    +0.000 N 
ATOM     11  C   UNL     1      49.262   1.244   9.979  0.00  0.00    +0.000 C 
ATOM     12  C   UNL     1      49.206   2.705  10.507  0.00  0.00    +0.000 C 
ATOM     13  C   UNL     1      50.129   0.933  11.236  0.00  0.00    +0.000 C 
ATOM     14  C   UNL     1      51.576   2.991  11.413  0.00  0.00    +0.000 C 
BRANCH  11  16
ATOM     15  N   UNL     1      50.531  -0.396   8.618  0.00  0.00    +0.000 NA
ATOM     16  C   UNL     1      50.035   1.004   8.654  0.00  0.00    +0.000 C 
ATOM     17  C   UNL     1      49.142   1.256   7.426  0.00  0.00    +0.000 C 
ATOM     18  C   UNL     1      49.908   0.991   6.129  0.00  0.00    +0.000 C 
ATOM     19  C   UNL     1      51.370  -0.601   7.428  0.00  0.00    +0.000 C 
ATOM     20  C   UNL     1      50.567  -0.384   6.146  0.00  0.00    +0.000 C 
ATOM     21  H   UNL     1      49.721  -1.013   8.521  0.00  0.00    +0.000 HD
ENDBRANCH  11  16
BRANCH  11  22
ATOM     22  O   UNL     1      47.977   0.556   9.941  0.00  0.00    +0.000 OA
ATOM     23  H   UNL     1      47.880   0.325   8.998  0.00  0.00    +0.000 HD
ENDBRANCH  11  22
ENDBRANCH   3  14
BRANCH   4  24
ATOM     24  N   UNL     1      52.584   4.013   8.960  0.00  0.00    +0.000 N 
ATOM     25  H   UNL     1      52.605   3.040   9.286  0.00  0.00    +0.000 HD
BRANCH  24  28
ATOM     26  I   UNL     1      53.765   4.611   2.799  0.00  0.00    +0.000 I 
ATOM     27  F   UNL     1      55.123   4.316   7.978  0.00  0.00    +0.000 F 
ATOM     28  C   UNL     1      52.794   4.133   7.573  0.00  0.00    +0.000 A 
ATOM     29  C   UNL     1      54.107   4.304   7.099  0.00  0.00    +0.000 A 
ATOM     30  C   UNL     1      51.765   4.124   6.627  0.00  0.00    +0.000 A 
ATOM     31  C   UNL     1      54.400   4.443   5.746  0.00  0.00    +0.000 A 
ATOM     32  C   UNL     1      52.043   4.264   5.260  0.00  0.00    +0.000 A 
ATOM     33  C   UNL     1      53.359   4.420   4.826  0.00  0.00    +0.000 A 
ENDBRANCH  24  28
ENDBRANCH   4  24
TORSDOF 5
ENDMDL
MODEL 8
REMARK VINA RESULT:      -6.0     13.669     16.059
REMARK  Name = 
REMARK  5 active torsions:
REMARK  status: ('A' for Active; 'I' for Inactive)
REMARK    1  A    between atoms: O_5  and  C_10
REMARK    2  A    between atoms: N_9  and  C_20
REMARK    3  A    between atoms: N_9  and  C_25
REMARK    4  A    between atoms: C_10  and  C_11
REMARK    5  A    between atoms: C_18  and  C_19
REMARK                            x       y       z     vdW  Elec       q    Type
REMARK                         _______ _______ _______ _____ _____    ______ ____
ROOT
ATOM      1  F   UNL     1      40.958  -3.990  19.067  0.00  0.00    +0.000 F 
ATOM      2  F   UNL     1      41.129  -6.503  18.093  0.00  0.00    +0.000 F 
ATOM      3  C   UNL     1      42.043  -3.326  15.657  0.00  0.00    +0.000 A 
ATOM      4  C   UNL     1      41.644  -3.057  16.985  0.00  0.00    +0.000 A 
ATOM      5  C   UNL     1      42.143  -4.637  15.162  0.00  0.00    +0.000 A 
ATOM      6  C   UNL     1      41.330  -4.162  17.789  0.00  0.00    +0.000 A 
ATOM      7  C   UNL     1      41.833  -5.711  15.992  0.00  0.00    +0.000 A 
ATOM      8  C   UNL     1      41.429  -5.465  17.299  0.00  0.00    +0.000 A 
ENDROOT
BRANCH   3  14
ATOM      9  O   UNL     1      43.442  -1.647  14.839  0.00  0.00    +0.000 OA
ATOM     10  N   UNL     1      41.351  -1.802  13.891  0.00  0.00    +0.000 N 
ATOM     11  C   UNL     1      39.907  -0.296  13.816  0.00  0.00    +0.000 C 
ATOM     12  C   UNL     1      39.906  -1.822  14.116  0.00  0.00    +0.000 C 
ATOM     13  C   UNL     1      41.308  -0.528  13.175  0.00  0.00    +0.000 C 
ATOM     14  C   UNL     1      42.350  -2.198  14.751  0.00  0.00    +0.000 C 
BRANCH  11  16
ATOM     15  N   UNL     1      39.513   2.014  14.628  0.00  0.00    +0.000 NA
ATOM     16  C   UNL     1      39.967   0.660  15.037  0.00  0.00    +0.000 C 
ATOM     17  C   UNL     1      39.083   0.158  16.192  0.00  0.00    +0.000 C 
ATOM     18  C   UNL     1      39.131   1.122  17.378  0.00  0.00    +0.000 C 
ATOM     19  C   UNL     1      39.682   2.959  15.741  0.00  0.00    +0.000 C 
ATOM     20  C   UNL     1      38.830   2.552  16.941  0.00  0.00    +0.000 C 
ATOM     21  H   UNL     1      38.510   1.962  14.432  0.00  0.00    +0.000 HD
ENDBRANCH  11  16
BRANCH  11  22
ATOM     22  O   UNL     1      38.877   0.146  12.884  0.00  0.00    +0.000 OA
ATOM     23  H   UNL     1      38.112   0.314  13.466  0.00  0.00    +0.000 HD
ENDBRANCH  11  22
ENDBRANCH   3  14
BRANCH   4  24
ATOM     24  N   UNL     1      41.496  -1.722  17.419  0.00  0.00    +0.000 N 
ATOM     25  H   UNL     1      40.738  -1.218  16.945  0.00  0.00    +0.000 HD
BRANCH  24  28
ATOM     26  I   UNL     1      43.617   1.441  22.439  0.00  0.00    +0.000 I 
ATOM     27  F   UNL     1      39.946  -1.279  19.634  0.00  0.00    +0.000 F 
ATOM     28  C   UNL     1      42.022  -1.016  18.518  0.00  0.00    +0.000 A 
ATOM     29  C   UNL     1      41.197  -0.791  19.635  0.00  0.00    +0.000 A 
ATOM     30  C   UNL     1      43.317  -0.494  18.560  0.00  0.00    +0.000 A 
ATOM     31  C   UNL     1      41.634  -0.092  20.757  0.00  0.00    +0.000 A 
ATOM     32  C   UNL     1      43.773   0.213  19.681  0.00  0.00    +0.000 A 
ATOM     33  C   UNL     1      42.931   0.408  20.775  0.00  0.00    +0.000 A 
ENDBRANCH  24  28
ENDBRANCH   4  24
TORSDOF 5
ENDMDL
MODEL 9
REMARK VINA RESULT:      -6.0      3.761      6.518
REMARK  Name = 
REMARK  5 active torsions:
REMARK  status: ('A' for Active; 'I' for Inactive)
REMARK    1  A    between atoms: O_5  and  C_10
REMARK    2  A    between atoms: N_9  and  C_20
REMARK    3  A    between atoms: N_9  and  C_25
REMARK    4  A    between atoms: C_10  and  C_11
REMARK    5  A    between atoms: C_18  and  C_19
REMARK                            x       y       z     vdW  Elec       q    Type
REMARK                         _______ _______ _______ _____ _____    ______ ____
ROOT
ATOM      1  F   UNL     1      51.823  -0.138   3.712  0.00  0.00    +0.000 F 
ATOM      2  F   UNL     1      52.821   2.344   3.346  0.00  0.00    +0.000 F 
ATOM      3  C   UNL     1      50.443   1.583   6.606  0.00  0.00    +0.000 A 
ATOM      4  C   UNL     1      50.706   0.524   5.709  0.00  0.00    +0.000 A 
ATOM      5  C   UNL     1      50.978   2.868   6.417  0.00  0.00    +0.000 A 
ATOM      6  C   UNL     1      51.514   0.818   4.601  0.00  0.00    +0.000 A 
ATOM      7  C   UNL     1      51.785   3.121   5.310  0.00  0.00    +0.000 A 
ATOM      8  C   UNL     1      52.046   2.094   4.412  0.00  0.00    +0.000 A 
ENDROOT
BRANCH   3  14
ATOM      9  O   UNL     1      48.363   1.547   7.663  0.00  0.00    +0.000 OA
ATOM     10  N   UNL     1      50.182   0.950   8.941  0.00  0.00    +0.000 N 
ATOM     11  C   UNL     1      50.797   1.849  10.721  0.00  0.00    +0.000 C 
ATOM     12  C   UNL     1      51.503   1.329   9.437  0.00  0.00    +0.000 C 
ATOM     13  C   UNL     1      49.575   0.993  10.271  0.00  0.00    +0.000 C 
ATOM     14  C   UNL     1      49.567   1.342   7.773  0.00  0.00    +0.000 C 
BRANCH  11  16
ATOM     15  N   UNL     1      50.555   3.838  12.183  0.00  0.00    +0.000 NA
ATOM     16  C   UNL     1      50.468   3.365  10.778  0.00  0.00    +0.000 C 
ATOM     17  C   UNL     1      51.434   4.187   9.907  0.00  0.00    +0.000 C 
ATOM     18  C   UNL     1      51.115   5.679   9.993  0.00  0.00    +0.000 C 
ATOM     19  C   UNL     1      50.125   5.241  12.270  0.00  0.00    +0.000 C 
ATOM     20  C   UNL     1      51.035   6.146  11.443  0.00  0.00    +0.000 C 
ATOM     21  H   UNL     1      51.539   3.811  12.462  0.00  0.00    +0.000 HD
ENDBRANCH  11  16
BRANCH  11  22
ATOM     22  O   UNL     1      51.410   1.423  11.973  0.00  0.00    +0.000 OA
ATOM     23  H   UNL     1      51.080   0.511  12.079  0.00  0.00    +0.000 HD
ENDBRANCH  11  22
ENDBRANCH   3  14
BRANCH   4  24
ATOM     24  N   UNL     1      50.096  -0.734   5.905  0.00  0.00    +0.000 N 
ATOM     25  H   UNL     1      49.099  -0.748   5.663  0.00  0.00    +0.000 HD
BRANCH  24  28
ATOM     26  I   UNL     1      52.312  -6.565   6.793  0.00  0.00    +0.000 I 
ATOM     27  F   UNL     1      49.661  -2.755   4.109  0.00  0.00    +0.000 F 
ATOM     28  C   UNL     1      50.621  -2.017   6.148  0.00  0.00    +0.000 A 
ATOM     29  C   UNL     1      50.368  -3.039   5.215  0.00  0.00    +0.000 A 
ATOM     30  C   UNL     1      51.363  -2.353   7.284  0.00  0.00    +0.000 A 
ATOM     31  C   UNL     1      50.839  -4.338   5.384  0.00  0.00    +0.000 A 
ATOM     32  C   UNL     1      51.844  -3.656   7.470  0.00  0.00    +0.000 A 
ATOM     33  C   UNL     1      51.583  -4.641   6.519  0.00  0.00    +0.000 A 
ENDBRANCH  24  28
ENDBRANCH   4  24
TORSDOF 5
ENDMDL
