MODEL 1
REMARK VINA RESULT:      -7.4      0.000      0.000
REMARK  Name = COUMESTROL.pdbqt.pdb
REMARK  2 active torsions:
REMARK  status: ('A' for Active; 'I' for Inactive)
REMARK    1  A    between atoms: C_16  and  O_19
REMARK    2  A    between atoms: C_18  and  O_21
REMARK                            x       y       z     vdW  Elec       q    Type
REMARK                         _______ _______ _______ _____ _____    ______ ____
ROOT
ATOM      1  O   UNL     1      41.495  -1.378  15.926  0.00  0.00    +0.000 OA
ATOM      2  O   UNL     1      39.237   1.596  14.270  0.00  0.00    +0.000 OA
ATOM      3  O   UNL     1      39.361   0.452  12.266  0.00  0.00    +0.000 OA
ATOM      4  C   UNL     1      40.454  -0.491  14.126  0.00  0.00    +0.000 A 
ATOM      5  C   UNL     1      40.747  -0.355  15.458  0.00  0.00    +0.000 A 
ATOM      6  C   UNL     1      41.067  -1.700  13.716  0.00  0.00    +0.000 A 
ATOM      7  C   UNL     1      40.331   0.727  16.297  0.00  0.00    +0.000 A 
ATOM      8  C   UNL     1      41.695  -2.209  14.857  0.00  0.00    +0.000 A 
ATOM      9  C   UNL     1      39.560   1.709  15.658  0.00  0.00    +0.000 A 
ATOM     10  C   UNL     1      39.660   0.512  13.452  0.00  0.00    +0.000 A 
ATOM     11  C   UNL     1      41.165  -2.424  12.516  0.00  0.00    +0.000 A 
ATOM     12  C   UNL     1      40.636   0.853  17.647  0.00  0.00    +0.000 A 
ATOM     13  C   UNL     1      42.422  -3.399  14.891  0.00  0.00    +0.000 A 
ATOM     14  C   UNL     1      39.084   2.819  16.344  0.00  0.00    +0.000 A 
ATOM     15  C   UNL     1      41.886  -3.621  12.514  0.00  0.00    +0.000 A 
ATOM     16  C   UNL     1      42.495  -4.087  13.678  0.00  0.00    +0.000 A 
ATOM     17  C   UNL     1      40.165   1.962  18.348  0.00  0.00    +0.000 A 
ATOM     18  C   UNL     1      39.397   2.930  17.695  0.00  0.00    +0.000 A 
ENDROOT
BRANCH  16  19
ATOM     19  O   UNL     1      43.185  -5.267  13.603  0.00  0.00    +0.000 OA
ATOM     20  H   UNL     1      43.821  -5.298  14.339  0.00  0.00    +0.000 HD
ENDBRANCH  16  19
BRANCH  18  21
ATOM     21  O   UNL     1      38.932   4.020  18.376  0.00  0.00    +0.000 OA
ATOM     22  H   UNL     1      39.688   4.595  18.588  0.00  0.00    +0.000 HD
ENDBRANCH  18  21
TORSDOF 2
ENDMDL
MODEL 2
REMARK VINA RESULT:      -7.4     14.904     17.864
REMARK  Name = COUMESTROL.pdbqt.pdb
REMARK  2 active torsions:
REMARK  status: ('A' for Active; 'I' for Inactive)
REMARK    1  A    between atoms: C_16  and  O_19
REMARK    2  A    between atoms: C_18  and  O_21
REMARK                            x       y       z     vdW  Elec       q    Type
REMARK                         _______ _______ _______ _____ _____    ______ ____
ROOT
ATOM      1  O   UNL     1      36.672  14.195  20.456  0.00  0.00    +0.000 OA
ATOM      2  O   UNL     1      35.087  17.958  20.358  0.00  0.00    +0.000 OA
ATOM      3  O   UNL     1      33.087  17.038  21.059  0.00  0.00    +0.000 OA
ATOM      4  C   UNL     1      34.909  15.578  20.755  0.00  0.00    +0.000 A 
ATOM      5  C   UNL     1      36.228  15.469  20.397  0.00  0.00    +0.000 A 
ATOM      6  C   UNL     1      34.483  14.263  21.067  0.00  0.00    +0.000 A 
ATOM      7  C   UNL     1      37.076  16.552  19.998  0.00  0.00    +0.000 A 
ATOM      8  C   UNL     1      35.602  13.449  20.869  0.00  0.00    +0.000 A 
ATOM      9  C   UNL     1      36.460  17.812  19.989  0.00  0.00    +0.000 A 
ATOM     10  C   UNL     1      34.261  16.870  20.751  0.00  0.00    +0.000 A 
ATOM     11  C   UNL     1      33.286  13.668  21.494  0.00  0.00    +0.000 A 
ATOM     12  C   UNL     1      38.411  16.428  19.637  0.00  0.00    +0.000 A 
ATOM     13  C   UNL     1      35.615  12.068  21.066  0.00  0.00    +0.000 A 
ATOM     14  C   UNL     1      37.157  18.957  19.624  0.00  0.00    +0.000 A 
ATOM     15  C   UNL     1      33.263  12.285  21.702  0.00  0.00    +0.000 A 
ATOM     16  C   UNL     1      34.405  11.515  21.490  0.00  0.00    +0.000 A 
ATOM     17  C   UNL     1      39.123  17.569  19.269  0.00  0.00    +0.000 A 
ATOM     18  C   UNL     1      38.494  18.817  19.266  0.00  0.00    +0.000 A 
ENDROOT
BRANCH  16  19
ATOM     19  O   UNL     1      34.311  10.168  21.713  0.00  0.00    +0.000 OA
ATOM     20  H   UNL     1      33.376   9.947  21.869  0.00  0.00    +0.000 HD
ENDBRANCH  16  19
BRANCH  18  21
ATOM     21  O   UNL     1      39.185  19.939  18.906  0.00  0.00    +0.000 OA
ATOM     22  H   UNL     1      39.182  20.004  17.935  0.00  0.00    +0.000 HD
ENDBRANCH  18  21
TORSDOF 2
ENDMDL
MODEL 3
REMARK VINA RESULT:      -7.3     14.954     17.918
REMARK  Name = COUMESTROL.pdbqt.pdb
REMARK  2 active torsions:
REMARK  status: ('A' for Active; 'I' for Inactive)
REMARK    1  A    between atoms: C_16  and  O_19
REMARK    2  A    between atoms: C_18  and  O_21
REMARK                            x       y       z     vdW  Elec       q    Type
REMARK                         _______ _______ _______ _____ _____    ______ ____
ROOT
ATOM      1  O   UNL     1      37.022  14.879  20.527  0.00  0.00    +0.000 OA
ATOM      2  O   UNL     1      32.965  14.657  20.946  0.00  0.00    +0.000 OA
ATOM      3  O   UNL     1      32.862  16.859  20.255  0.00  0.00    +0.000 OA
ATOM      4  C   UNL     1      34.989  15.859  20.390  0.00  0.00    +0.000 A 
ATOM      5  C   UNL     1      35.690  14.721  20.692  0.00  0.00    +0.000 A 
ATOM      6  C   UNL     1      35.958  16.819  20.003  0.00  0.00    +0.000 A 
ATOM      7  C   UNL     1      35.121  13.484  21.133  0.00  0.00    +0.000 A 
ATOM      8  C   UNL     1      37.191  16.169  20.103  0.00  0.00    +0.000 A 
ATOM      9  C   UNL     1      33.723  13.485  21.253  0.00  0.00    +0.000 A 
ATOM     10  C   UNL     1      33.549  15.877  20.508  0.00  0.00    +0.000 A 
ATOM     11  C   UNL     1      35.936  18.157  19.580  0.00  0.00    +0.000 A 
ATOM     12  C   UNL     1      35.843  12.336  21.436  0.00  0.00    +0.000 A 
ATOM     13  C   UNL     1      38.419  16.762  19.810  0.00  0.00    +0.000 A 
ATOM     14  C   UNL     1      33.030  12.356  21.671  0.00  0.00    +0.000 A 
ATOM     15  C   UNL     1      37.149  18.783  19.277  0.00  0.00    +0.000 A 
ATOM     16  C   UNL     1      38.353  18.093  19.393  0.00  0.00    +0.000 A 
ATOM     17  C   UNL     1      35.160  11.196  21.857  0.00  0.00    +0.000 A 
ATOM     18  C   UNL     1      33.767  11.216  21.970  0.00  0.00    +0.000 A 
ENDROOT
BRANCH  16  19
ATOM     19  O   UNL     1      39.503  18.768  19.080  0.00  0.00    +0.000 OA
ATOM     20  H   UNL     1      39.797  19.255  19.869  0.00  0.00    +0.000 HD
ENDBRANCH  16  19
BRANCH  18  21
ATOM     21  O   UNL     1      33.091  10.102  22.381  0.00  0.00    +0.000 OA
ATOM     22  H   UNL     1      32.136  10.272  22.295  0.00  0.00    +0.000 HD
ENDBRANCH  18  21
TORSDOF 2
ENDMDL
MODEL 4
REMARK VINA RESULT:      -6.9      1.046      6.162
REMARK  Name = COUMESTROL.pdbqt.pdb
REMARK  2 active torsions:
REMARK  status: ('A' for Active; 'I' for Inactive)
REMARK    1  A    between atoms: C_16  and  O_19
REMARK    2  A    between atoms: C_18  and  O_21
REMARK                            x       y       z     vdW  Elec       q    Type
REMARK                         _______ _______ _______ _____ _____    ______ ____
ROOT
ATOM      1  O   UNL     1      40.527  -0.472  16.961  0.00  0.00    +0.000 OA
ATOM      2  O   UNL     1      40.468  -0.191  12.887  0.00  0.00    +0.000 OA
ATOM      3  O   UNL     1      39.704   1.975  13.137  0.00  0.00    +0.000 OA
ATOM      4  C   UNL     1      40.121   0.736  15.094  0.00  0.00    +0.000 A 
ATOM      5  C   UNL     1      40.537  -0.463  15.611  0.00  0.00    +0.000 A 
ATOM      6  C   UNL     1      39.821   1.555  16.212  0.00  0.00    +0.000 A 
ATOM      7  C   UNL     1      40.946  -1.603  14.846  0.00  0.00    +0.000 A 
ATOM      8  C   UNL     1      40.087   0.768  17.336  0.00  0.00    +0.000 A 
ATOM      9  C   UNL     1      40.899  -1.430  13.455  0.00  0.00    +0.000 A 
ATOM     10  C   UNL     1      40.066   0.931  13.663  0.00  0.00    +0.000 A 
ATOM     11  C   UNL     1      39.358   2.867  16.404  0.00  0.00    +0.000 A 
ATOM     12  C   UNL     1      41.367  -2.814  15.382  0.00  0.00    +0.000 A 
ATOM     13  C   UNL     1      39.923   1.197  18.653  0.00  0.00    +0.000 A 
ATOM     14  C   UNL     1      41.265  -2.448  12.584  0.00  0.00    +0.000 A 
ATOM     15  C   UNL     1      39.182   3.329  17.711  0.00  0.00    +0.000 A 
ATOM     16  C   UNL     1      39.461   2.506  18.800  0.00  0.00    +0.000 A 
ATOM     17  C   UNL     1      41.738  -3.845  14.519  0.00  0.00    +0.000 A 
ATOM     18  C   UNL     1      41.684  -3.654  13.136  0.00  0.00    +0.000 A 
ENDROOT
BRANCH  16  19
ATOM     19  O   UNL     1      39.267   3.025  20.053  0.00  0.00    +0.000 OA
ATOM     20  H   UNL     1      39.793   2.505  20.685  0.00  0.00    +0.000 HD
ENDBRANCH  16  19
BRANCH  18  21
ATOM     21  O   UNL     1      42.046  -4.660  12.285  0.00  0.00    +0.000 OA
ATOM     22  H   UNL     1      42.723  -5.205  12.723  0.00  0.00    +0.000 HD
ENDBRANCH  18  21
TORSDOF 2
ENDMDL
MODEL 5
REMARK VINA RESULT:      -6.9      1.632      6.316
REMARK  Name = COUMESTROL.pdbqt.pdb
REMARK  2 active torsions:
REMARK  status: ('A' for Active; 'I' for Inactive)
REMARK    1  A    between atoms: C_16  and  O_19
REMARK    2  A    between atoms: C_18  and  O_21
REMARK                            x       y       z     vdW  Elec       q    Type
REMARK                         _______ _______ _______ _____ _____    ______ ____
ROOT
ATOM      1  O   UNL     1      42.183  -0.614  15.747  0.00  0.00    +0.000 OA
ATOM      2  O   UNL     1      42.202  -3.115  12.519  0.00  0.00    +0.000 OA
ATOM      3  O   UNL     1      40.564  -1.778  11.585  0.00  0.00    +0.000 OA
ATOM      4  C   UNL     1      41.383  -1.175  13.709  0.00  0.00    +0.000 A 
ATOM      5  C   UNL     1      42.252  -1.489  14.721  0.00  0.00    +0.000 A 
ATOM      6  C   UNL     1      40.706  -0.003  14.130  0.00  0.00    +0.000 A 
ATOM      7  C   UNL     1      43.149  -2.604  14.733  0.00  0.00    +0.000 A 
ATOM      8  C   UNL     1      41.232   0.303  15.389  0.00  0.00    +0.000 A 
ATOM      9  C   UNL     1      43.098  -3.417  13.590  0.00  0.00    +0.000 A 
ATOM     10  C   UNL     1      41.318  -2.001  12.525  0.00  0.00    +0.000 A 
ATOM     11  C   UNL     1      39.712   0.833  13.596  0.00  0.00    +0.000 A 
ATOM     12  C   UNL     1      44.026  -2.912  15.766  0.00  0.00    +0.000 A 
ATOM     13  C   UNL     1      40.837   1.393  16.163  0.00  0.00    +0.000 A 
ATOM     14  C   UNL     1      43.910  -4.536  13.459  0.00  0.00    +0.000 A 
ATOM     15  C   UNL     1      39.292   1.936  14.345  0.00  0.00    +0.000 A 
ATOM     16  C   UNL     1      39.847   2.199  15.596  0.00  0.00    +0.000 A 
ATOM     17  C   UNL     1      44.847  -4.033  15.647  0.00  0.00    +0.000 A 
ATOM     18  C   UNL     1      44.782  -4.831  14.501  0.00  0.00    +0.000 A 
ENDROOT
BRANCH  16  19
ATOM     19  O   UNL     1      39.388   3.296  16.275  0.00  0.00    +0.000 OA
ATOM     20  H   UNL     1      39.965   3.445  17.044  0.00  0.00    +0.000 HD
ENDBRANCH  16  19
BRANCH  18  21
ATOM     21  O   UNL     1      45.584  -5.930  14.379  0.00  0.00    +0.000 OA
ATOM     22  H   UNL     1      45.607  -6.191  13.441  0.00  0.00    +0.000 HD
ENDBRANCH  18  21
TORSDOF 2
ENDMDL
MODEL 6
REMARK VINA RESULT:      -6.1     12.010     12.428
REMARK  Name = COUMESTROL.pdbqt.pdb
REMARK  2 active torsions:
REMARK  status: ('A' for Active; 'I' for Inactive)
REMARK    1  A    between atoms: C_16  and  O_19
REMARK    2  A    between atoms: C_18  and  O_21
REMARK                            x       y       z     vdW  Elec       q    Type
REMARK                         _______ _______ _______ _____ _____    ______ ____
ROOT
ATOM      1  O   UNL     1      52.180   3.941  12.938  0.00  0.00    +0.000 OA
ATOM      2  O   UNL     1      50.008   4.239   9.491  0.00  0.00    +0.000 OA
ATOM      3  O   UNL     1      49.547   1.983   9.692  0.00  0.00    +0.000 OA
ATOM      4  C   UNL     1      50.891   2.971  11.354  0.00  0.00    +0.000 A 
ATOM      5  C   UNL     1      51.483   4.126  11.796  0.00  0.00    +0.000 A 
ATOM      6  C   UNL     1      51.243   1.972  12.294  0.00  0.00    +0.000 A 
ATOM      7  C   UNL     1      51.400   5.403  11.155  0.00  0.00    +0.000 A 
ATOM      8  C   UNL     1      52.036   2.616  13.249  0.00  0.00    +0.000 A 
ATOM      9  C   UNL     1      50.637   5.426   9.978  0.00  0.00    +0.000 A 
ATOM     10  C   UNL     1      50.102   2.978  10.143  0.00  0.00    +0.000 A 
ATOM     11  C   UNL     1      50.985   0.600  12.450  0.00  0.00    +0.000 A 
ATOM     12  C   UNL     1      52.005   6.567  11.614  0.00  0.00    +0.000 A 
ATOM     13  C   UNL     1      52.597   1.987  14.360  0.00  0.00    +0.000 A 
ATOM     14  C   UNL     1      50.466   6.595   9.246  0.00  0.00    +0.000 A 
ATOM     15  C   UNL     1      51.532  -0.062  13.554  0.00  0.00    +0.000 A 
ATOM     16  C   UNL     1      52.316   0.624  14.478  0.00  0.00    +0.000 A 
ATOM     17  C   UNL     1      51.841   7.747  10.889  0.00  0.00    +0.000 A 
ATOM     18  C   UNL     1      51.078   7.751   9.719  0.00  0.00    +0.000 A 
ENDROOT
BRANCH  16  19
ATOM     19  O   UNL     1      52.819  -0.087  15.535  0.00  0.00    +0.000 OA
ATOM     20  H   UNL     1      53.545   0.425  15.932  0.00  0.00    +0.000 HD
ENDBRANCH  16  19
BRANCH  18  21
ATOM     21  O   UNL     1      50.914   8.904   9.004  0.00  0.00    +0.000 OA
ATOM     22  H   UNL     1      50.741   8.669   8.076  0.00  0.00    +0.000 HD
ENDBRANCH  18  21
TORSDOF 2
ENDMDL
MODEL 7
REMARK VINA RESULT:      -6.1      3.602      8.141
REMARK  Name = COUMESTROL.pdbqt.pdb
REMARK  2 active torsions:
REMARK  status: ('A' for Active; 'I' for Inactive)
REMARK    1  A    between atoms: C_16  and  O_19
REMARK    2  A    between atoms: C_18  and  O_21
REMARK                            x       y       z     vdW  Elec       q    Type
REMARK                         _______ _______ _______ _____ _____    ______ ____
ROOT
ATOM      1  O   UNL     1      42.367  -4.636  12.782  0.00  0.00    +0.000 OA
ATOM      2  O   UNL     1      44.698  -5.505  16.022  0.00  0.00    +0.000 OA
ATOM      3  O   UNL     1      44.547  -3.278  16.616  0.00  0.00    +0.000 OA
ATOM      4  C   UNL     1      43.431  -3.959  14.659  0.00  0.00    +0.000 A 
ATOM      5  C   UNL     1      43.140  -5.008  13.826  0.00  0.00    +0.000 A 
ATOM      6  C   UNL     1      42.788  -2.829  14.096  0.00  0.00    +0.000 A 
ATOM      7  C   UNL     1      43.582  -6.359  14.000  0.00  0.00    +0.000 A 
ATOM      8  C   UNL     1      42.147  -3.295  12.944  0.00  0.00    +0.000 A 
ATOM      9  C   UNL     1      44.377  -6.579  15.134  0.00  0.00    +0.000 A 
ATOM     10  C   UNL     1      44.249  -4.169  15.831  0.00  0.00    +0.000 A 
ATOM     11  C   UNL     1      42.673  -1.468  14.425  0.00  0.00    +0.000 A 
ATOM     12  C   UNL     1      43.280  -7.413  13.148  0.00  0.00    +0.000 A 
ATOM     13  C   UNL     1      41.392  -2.497  12.086  0.00  0.00    +0.000 A 
ATOM     14  C   UNL     1      44.880  -7.838  15.435  0.00  0.00    +0.000 A 
ATOM     15  C   UNL     1      41.923  -0.638  13.586  0.00  0.00    +0.000 A 
ATOM     16  C   UNL     1      41.303  -1.151  12.448  0.00  0.00    +0.000 A 
ATOM     17  C   UNL     1      43.777  -8.683  13.437  0.00  0.00    +0.000 A 
ATOM     18  C   UNL     1      44.569  -8.884  14.572  0.00  0.00    +0.000 A 
ENDROOT
BRANCH  16  19
ATOM     19  O   UNL     1      40.584  -0.281  11.672  0.00  0.00    +0.000 OA
ATOM     20  H   UNL     1      40.901   0.622  11.849  0.00  0.00    +0.000 HD
ENDBRANCH  16  19
BRANCH  18  21
ATOM     21  O   UNL     1      45.059 -10.126  14.862  0.00  0.00    +0.000 OA
ATOM     22  H   UNL     1      45.671 -10.388  14.152  0.00  0.00    +0.000 HD
ENDBRANCH  18  21
TORSDOF 2
ENDMDL
MODEL 8
REMARK VINA RESULT:      -6.1     12.262     14.475
REMARK  Name = COUMESTROL.pdbqt.pdb
REMARK  2 active torsions:
REMARK  status: ('A' for Active; 'I' for Inactive)
REMARK    1  A    between atoms: C_16  and  O_19
REMARK    2  A    between atoms: C_18  and  O_21
REMARK                            x       y       z     vdW  Elec       q    Type
REMARK                         _______ _______ _______ _____ _____    ______ ____
ROOT
ATOM      1  O   UNL     1      49.669   0.218   7.032  0.00  0.00    +0.000 OA
ATOM      2  O   UNL     1      51.835   2.951   4.906  0.00  0.00    +0.000 OA
ATOM      3  O   UNL     1      51.875   4.265   6.806  0.00  0.00    +0.000 OA
ATOM      4  C   UNL     1      50.747   2.203   6.933  0.00  0.00    +0.000 A 
ATOM      5  C   UNL     1      50.380   1.067   6.259  0.00  0.00    +0.000 A 
ATOM      6  C   UNL     1      50.223   2.061   8.242  0.00  0.00    +0.000 A 
ATOM      7  C   UNL     1      50.693   0.770   4.894  0.00  0.00    +0.000 A 
ATOM      8  C   UNL     1      49.570   0.826   8.254  0.00  0.00    +0.000 A 
ATOM      9  C   UNL     1      51.438   1.756   4.230  0.00  0.00    +0.000 A 
ATOM     10  C   UNL     1      51.515   3.228   6.264  0.00  0.00    +0.000 A 
ATOM     11  C   UNL     1      50.226   2.832   9.416  0.00  0.00    +0.000 A 
ATOM     12  C   UNL     1      50.315  -0.386   4.222  0.00  0.00    +0.000 A 
ATOM     13  C   UNL     1      48.911   0.295   9.363  0.00  0.00    +0.000 A 
ATOM     14  C   UNL     1      51.816   1.608   2.901  0.00  0.00    +0.000 A 
ATOM     15  C   UNL     1      49.575   2.330  10.547  0.00  0.00    +0.000 A 
ATOM     16  C   UNL     1      48.937   1.092  10.510  0.00  0.00    +0.000 A 
ATOM     17  C   UNL     1      50.688  -0.547   2.888  0.00  0.00    +0.000 A 
ATOM     18  C   UNL     1      51.431   0.446   2.243  0.00  0.00    +0.000 A 
ENDROOT
BRANCH  16  19
ATOM     19  O   UNL     1      48.319   0.662  11.653  0.00  0.00    +0.000 OA
ATOM     20  H   UNL     1      47.496   1.168  11.766  0.00  0.00    +0.000 HD
ENDBRANCH  16  19
BRANCH  18  21
ATOM     21  O   UNL     1      51.799   0.294   0.936  0.00  0.00    +0.000 OA
ATOM     22  H   UNL     1      52.521  -0.357   0.893  0.00  0.00    +0.000 HD
ENDBRANCH  18  21
TORSDOF 2
ENDMDL
MODEL 9
REMARK VINA RESULT:      -5.8     12.382     14.020
REMARK  Name = COUMESTROL.pdbqt.pdb
REMARK  2 active torsions:
REMARK  status: ('A' for Active; 'I' for Inactive)
REMARK    1  A    between atoms: C_16  and  O_19
REMARK    2  A    between atoms: C_18  and  O_21
REMARK                            x       y       z     vdW  Elec       q    Type
REMARK                         _______ _______ _______ _____ _____    ______ ____
ROOT
ATOM      1  O   UNL     1      51.463   3.992   7.229  0.00  0.00    +0.000 OA
ATOM      2  O   UNL     1      49.540   2.382  10.452  0.00  0.00    +0.000 OA
ATOM      3  O   UNL     1      49.731   4.441  11.482  0.00  0.00    +0.000 OA
ATOM      4  C   UNL     1      50.618   4.224   9.313  0.00  0.00    +0.000 A 
ATOM      5  C   UNL     1      50.823   3.383   8.250  0.00  0.00    +0.000 A 
ATOM      6  C   UNL     1      51.175   5.470   8.932  0.00  0.00    +0.000 A 
ATOM      7  C   UNL     1      50.422   2.010   8.184  0.00  0.00    +0.000 A 
ATOM      8  C   UNL     1      51.683   5.277   7.644  0.00  0.00    +0.000 A 
ATOM      9  C   UNL     1      49.768   1.529   9.328  0.00  0.00    +0.000 A 
ATOM     10  C   UNL     1      49.946   3.744  10.499  0.00  0.00    +0.000 A 
ATOM     11  C   UNL     1      51.310   6.736   9.526  0.00  0.00    +0.000 A 
ATOM     12  C   UNL     1      50.636   1.167   7.100  0.00  0.00    +0.000 A 
ATOM     13  C   UNL     1      52.321   6.265   6.894  0.00  0.00    +0.000 A 
ATOM     14  C   UNL     1      49.321   0.217   9.411  0.00  0.00    +0.000 A 
ATOM     15  C   UNL     1      51.946   7.749   8.802  0.00  0.00    +0.000 A 
ATOM     16  C   UNL     1      52.435   7.508   7.520  0.00  0.00    +0.000 A 
ATOM     17  C   UNL     1      50.192  -0.153   7.169  0.00  0.00    +0.000 A 
ATOM     18  C   UNL     1      49.543  -0.614   8.318  0.00  0.00    +0.000 A 
ENDROOT
BRANCH  16  19
ATOM     19  O   UNL     1      53.046   8.546   6.869  0.00  0.00    +0.000 OA
ATOM     20  H   UNL     1      53.982   8.567   7.134  0.00  0.00    +0.000 HD
ENDBRANCH  16  19
BRANCH  18  21
ATOM     21  O   UNL     1      49.105  -1.907   8.392  0.00  0.00    +0.000 OA
ATOM     22  H   UNL     1      48.707  -2.046   9.269  0.00  0.00    +0.000 HD
ENDBRANCH  18  21
TORSDOF 2
ENDMDL
