MODEL 1
REMARK VINA RESULT:      -7.8      0.000      0.000
REMARK  Name = CP466722.pdbqt.pdb
REMARK  3 active torsions:
REMARK  status: ('A' for Active; 'I' for Inactive)
REMARK    1  A    between atoms: C_5  and  C_23
REMARK    2  A    between atoms: C_14  and  O_16
REMARK    3  A    between atoms: C_15  and  O_18
REMARK                            x       y       z     vdW  Elec       q    Type
REMARK                         _______ _______ _______ _____ _____    ______ ____
ROOT
ATOM      1  N   UNL     1      40.809   0.066  14.586  0.00  0.00    +0.000 N 
ATOM      2  N   UNL     1      40.913   0.563  15.841  0.00  0.00    +0.000 NA
ATOM      3  N   UNL     1      39.404   1.772  14.639  0.00  0.00    +0.000 NA
ATOM      4  C   UNL     1      39.869   0.815  13.877  0.00  0.00    +0.000 A 
ATOM      5  C   UNL     1      40.053   1.593  15.838  0.00  0.00    +0.000 A 
ATOM      6  C   UNL     1      41.602  -1.033  14.112  0.00  0.00    +0.000 A 
ATOM      7  N   UNL     1      41.494  -1.343  12.793  0.00  0.00    +0.000 NA
ATOM      8  C   UNL     1      42.250  -2.352  12.348  0.00  0.00    +0.000 A 
ATOM      9  N   UNL     1      43.101  -3.068  13.089  0.00  0.00    +0.000 NA
ATOM     10  C   UNL     1      43.202  -2.761  14.383  0.00  0.00    +0.000 A 
ATOM     11  C   UNL     1      42.459  -1.735  14.983  0.00  0.00    +0.000 A 
ATOM     12  C   UNL     1      44.090  -3.492  15.159  0.00  0.00    +0.000 A 
ATOM     13  C   UNL     1      42.620  -1.514  16.371  0.00  0.00    +0.000 A 
ATOM     14  C   UNL     1      43.485  -2.278  17.147  0.00  0.00    +0.000 A 
ATOM     15  C   UNL     1      44.268  -3.241  16.521  0.00  0.00    +0.000 A 
ATOM     16  N   UNL     1      39.496   0.578  12.604  0.00  0.00    +0.000 N 
ATOM     17  H   UNL     1      38.997   1.308  12.107  0.00  0.00    +0.000 HD
ATOM     18  H   UNL     1      40.064  -0.037  12.021  0.00  0.00    +0.000 HD
ENDROOT
BRANCH   5  19
ATOM     19  C   UNL     1      39.814   2.466  16.991  0.00  0.00    +0.000 A 
ATOM     20  N   UNL     1      39.561   3.783  16.753  0.00  0.00    +0.000 NA
ATOM     21  C   UNL     1      39.346   4.567  17.832  0.00  0.00    +0.000 A 
ATOM     22  C   UNL     1      39.365   4.114  19.139  0.00  0.00    +0.000 A 
ATOM     23  C   UNL     1      39.622   2.766  19.350  0.00  0.00    +0.000 A 
ATOM     24  C   UNL     1      39.851   1.924  18.269  0.00  0.00    +0.000 A 
ENDBRANCH   5  19
BRANCH  14  25
ATOM     25  O   UNL     1      43.596  -1.983  18.479  0.00  0.00    +0.000 OA
ATOM     26  C   UNL     1      43.197  -0.658  18.724  0.00  0.00    +0.000 C 
ENDBRANCH  14  25
BRANCH  15  27
ATOM     27  O   UNL     1      45.150  -4.006  17.236  0.00  0.00    +0.000 OA
ATOM     28  C   UNL     1      46.461  -3.531  17.056  0.00  0.00    +0.000 C 
ENDBRANCH  15  27
TORSDOF 3
ENDMDL
MODEL 2
REMARK VINA RESULT:      -7.8      1.854      6.589
REMARK  Name = CP466722.pdbqt.pdb
REMARK  3 active torsions:
REMARK  status: ('A' for Active; 'I' for Inactive)
REMARK    1  A    between atoms: C_5  and  C_23
REMARK    2  A    between atoms: C_14  and  O_16
REMARK    3  A    between atoms: C_15  and  O_18
REMARK                            x       y       z     vdW  Elec       q    Type
REMARK                         _______ _______ _______ _____ _____    ______ ____
ROOT
ATOM      1  N   UNL     1      41.555  -1.190  13.507  0.00  0.00    +0.000 N 
ATOM      2  N   UNL     1      42.183  -2.180  14.183  0.00  0.00    +0.000 NA
ATOM      3  N   UNL     1      42.155  -2.646  11.955  0.00  0.00    +0.000 NA
ATOM      4  C   UNL     1      41.565  -1.494  12.144  0.00  0.00    +0.000 A 
ATOM      5  C   UNL     1      42.531  -3.043  13.217  0.00  0.00    +0.000 A 
ATOM      6  C   UNL     1      40.958  -0.057  14.155  0.00  0.00    +0.000 A 
ATOM      7  N   UNL     1      40.242   0.791  13.370  0.00  0.00    +0.000 NA
ATOM      8  C   UNL     1      39.668   1.834  13.979  0.00  0.00    +0.000 A 
ATOM      9  N   UNL     1      39.733   2.101  15.287  0.00  0.00    +0.000 NA
ATOM     10  C   UNL     1      40.437   1.265  16.052  0.00  0.00    +0.000 A 
ATOM     11  C   UNL     1      41.100   0.141  15.543  0.00  0.00    +0.000 A 
ATOM     12  C   UNL     1      40.503   1.528  17.413  0.00  0.00    +0.000 A 
ATOM     13  C   UNL     1      41.846  -0.661  16.440  0.00  0.00    +0.000 A 
ATOM     14  C   UNL     1      41.937  -0.367  17.795  0.00  0.00    +0.000 A 
ATOM     15  C   UNL     1      41.212   0.708  18.295  0.00  0.00    +0.000 A 
ATOM     16  N   UNL     1      41.049  -0.711  11.177  0.00  0.00    +0.000 N 
ATOM     17  H   UNL     1      40.892  -1.120  10.262  0.00  0.00    +0.000 HD
ATOM     18  H   UNL     1      40.418   0.049  11.429  0.00  0.00    +0.000 HD
ENDROOT
BRANCH   5  19
ATOM     19  C   UNL     1      43.240  -4.303  13.458  0.00  0.00    +0.000 A 
ATOM     20  N   UNL     1      42.713  -5.443  12.932  0.00  0.00    +0.000 NA
ATOM     21  C   UNL     1      43.384  -6.592  13.169  0.00  0.00    +0.000 A 
ATOM     22  C   UNL     1      44.557  -6.670  13.899  0.00  0.00    +0.000 A 
ATOM     23  C   UNL     1      45.072  -5.491  14.420  0.00  0.00    +0.000 A 
ATOM     24  C   UNL     1      44.413  -4.288  14.202  0.00  0.00    +0.000 A 
ENDBRANCH   5  19
BRANCH  14  25
ATOM     25  O   UNL     1      42.661  -1.208  18.596  0.00  0.00    +0.000 OA
ATOM     26  C   UNL     1      43.503  -2.022  17.819  0.00  0.00    +0.000 C 
ENDBRANCH  14  25
BRANCH  15  27
ATOM     27  O   UNL     1      41.251   1.029  19.625  0.00  0.00    +0.000 OA
ATOM     28  C   UNL     1      40.194   1.899  19.945  0.00  0.00    +0.000 C 
ENDBRANCH  15  27
TORSDOF 3
ENDMDL
MODEL 3
REMARK VINA RESULT:      -7.2      2.204      6.476
REMARK  Name = CP466722.pdbqt.pdb
REMARK  3 active torsions:
REMARK  status: ('A' for Active; 'I' for Inactive)
REMARK    1  A    between atoms: C_5  and  C_23
REMARK    2  A    between atoms: C_14  and  O_16
REMARK    3  A    between atoms: C_15  and  O_18
REMARK                            x       y       z     vdW  Elec       q    Type
REMARK                         _______ _______ _______ _____ _____    ______ ____
ROOT
ATOM      1  N   UNL     1      42.223  -1.358  14.642  0.00  0.00    +0.000 N 
ATOM      2  N   UNL     1      42.680  -1.716  15.864  0.00  0.00    +0.000 NA
ATOM      3  N   UNL     1      43.603  -3.044  14.261  0.00  0.00    +0.000 NA
ATOM      4  C   UNL     1      42.815  -2.177  13.678  0.00  0.00    +0.000 A 
ATOM      5  C   UNL     1      43.508  -2.737  15.599  0.00  0.00    +0.000 A 
ATOM      6  C   UNL     1      41.253  -0.319  14.442  0.00  0.00    +0.000 A 
ATOM      7  N   UNL     1      40.782  -0.155  13.177  0.00  0.00    +0.000 NA
ATOM      8  C   UNL     1      39.861   0.798  12.998  0.00  0.00    +0.000 A 
ATOM      9  N   UNL     1      39.364   1.587  13.955  0.00  0.00    +0.000 NA
ATOM     10  C   UNL     1      39.830   1.421  15.194  0.00  0.00    +0.000 A 
ATOM     11  C   UNL     1      40.805   0.470  15.521  0.00  0.00    +0.000 A 
ATOM     12  C   UNL     1      39.315   2.230  16.198  0.00  0.00    +0.000 A 
ATOM     13  C   UNL     1      41.252   0.400  16.862  0.00  0.00    +0.000 A 
ATOM     14  C   UNL     1      40.756   1.241  17.852  0.00  0.00    +0.000 A 
ATOM     15  C   UNL     1      39.736   2.127  17.525  0.00  0.00    +0.000 A 
ATOM     16  N   UNL     1      42.608  -2.078  12.350  0.00  0.00    +0.000 N 
ATOM     17  H   UNL     1      42.888  -2.856  11.762  0.00  0.00    +0.000 HD
ATOM     18  H   UNL     1      41.819  -1.532  12.005  0.00  0.00    +0.000 HD
ENDROOT
BRANCH   5  19
ATOM     19  C   UNL     1      44.250  -3.480  16.622  0.00  0.00    +0.000 A 
ATOM     20  N   UNL     1      43.537  -4.142  17.574  0.00  0.00    +0.000 NA
ATOM     21  C   UNL     1      44.244  -4.818  18.507  0.00  0.00    +0.000 A 
ATOM     22  C   UNL     1      45.626  -4.875  18.544  0.00  0.00    +0.000 A 
ATOM     23  C   UNL     1      46.327  -4.192  17.557  0.00  0.00    +0.000 A 
ATOM     24  C   UNL     1      45.639  -3.483  16.581  0.00  0.00    +0.000 A 
ENDBRANCH   5  19
BRANCH  14  25
ATOM     25  O   UNL     1      41.227   1.092  19.128  0.00  0.00    +0.000 OA
ATOM     26  C   UNL     1      42.387   0.298  19.134  0.00  0.00    +0.000 C 
ENDBRANCH  14  25
BRANCH  15  27
ATOM     27  O   UNL     1      39.199   2.963  18.467  0.00  0.00    +0.000 OA
ATOM     28  C   UNL     1      39.282   4.298  18.034  0.00  0.00    +0.000 C 
ENDBRANCH  15  27
TORSDOF 3
ENDMDL
MODEL 4
REMARK VINA RESULT:      -6.7      1.598      2.152
REMARK  Name = CP466722.pdbqt.pdb
REMARK  3 active torsions:
REMARK  status: ('A' for Active; 'I' for Inactive)
REMARK    1  A    between atoms: C_5  and  C_23
REMARK    2  A    between atoms: C_14  and  O_16
REMARK    3  A    between atoms: C_15  and  O_18
REMARK                            x       y       z     vdW  Elec       q    Type
REMARK                         _______ _______ _______ _____ _____    ______ ____
ROOT
ATOM      1  N   UNL     1      40.829  -0.104  14.679  0.00  0.00    +0.000 N 
ATOM      2  N   UNL     1      41.031  -0.188  16.015  0.00  0.00    +0.000 NA
ATOM      3  N   UNL     1      40.001   1.775  15.499  0.00  0.00    +0.000 NA
ATOM      4  C   UNL     1      40.183   1.101  14.393  0.00  0.00    +0.000 A 
ATOM      5  C   UNL     1      40.522   0.963  16.479  0.00  0.00    +0.000 A 
ATOM      6  C   UNL     1      41.270  -1.110  13.756  0.00  0.00    +0.000 A 
ATOM      7  N   UNL     1      41.122  -0.836  12.432  0.00  0.00    +0.000 NA
ATOM      8  C   UNL     1      41.555  -1.765  11.574  0.00  0.00    +0.000 A 
ATOM      9  N   UNL     1      42.124  -2.926  11.909  0.00  0.00    +0.000 NA
ATOM     10  C   UNL     1      42.266  -3.191  13.209  0.00  0.00    +0.000 A 
ATOM     11  C   UNL     1      41.845  -2.312  14.216  0.00  0.00    +0.000 A 
ATOM     12  C   UNL     1      42.864  -4.390  13.568  0.00  0.00    +0.000 A 
ATOM     13  C   UNL     1      42.015  -2.707  15.564  0.00  0.00    +0.000 A 
ATOM     14  C   UNL     1      42.581  -3.928  15.912  0.00  0.00    +0.000 A 
ATOM     15  C   UNL     1      43.060  -4.753  14.902  0.00  0.00    +0.000 A 
ATOM     16  N   UNL     1      39.803   1.498  13.162  0.00  0.00    +0.000 N 
ATOM     17  H   UNL     1      39.565   2.474  13.026  0.00  0.00    +0.000 HD
ATOM     18  H   UNL     1      40.180   1.022  12.343  0.00  0.00    +0.000 HD
ENDROOT
BRANCH   5  19
ATOM     19  C   UNL     1      40.516   1.347  17.893  0.00  0.00    +0.000 A 
ATOM     20  N   UNL     1      41.444   0.782  18.713  0.00  0.00    +0.000 NA
ATOM     21  C   UNL     1      41.417   1.151  20.012  0.00  0.00    +0.000 A 
ATOM     22  C   UNL     1      40.516   2.056  20.544  0.00  0.00    +0.000 A 
ATOM     23  C   UNL     1      39.582   2.619  19.684  0.00  0.00    +0.000 A 
ATOM     24  C   UNL     1      39.574   2.266  18.340  0.00  0.00    +0.000 A 
ENDBRANCH   5  19
BRANCH  14  25
ATOM     25  O   UNL     1      42.728  -4.221  17.241  0.00  0.00    +0.000 OA
ATOM     26  C   UNL     1      43.852  -3.562  17.769  0.00  0.00    +0.000 C 
ENDBRANCH  14  25
BRANCH  15  27
ATOM     27  O   UNL     1      43.644  -5.956  15.192  0.00  0.00    +0.000 OA
ATOM     28  C   UNL     1      44.947  -6.003  14.664  0.00  0.00    +0.000 C 
ENDBRANCH  15  27
TORSDOF 3
ENDMDL
MODEL 5
REMARK VINA RESULT:      -6.5     11.820     14.224
REMARK  Name = CP466722.pdbqt.pdb
REMARK  3 active torsions:
REMARK  status: ('A' for Active; 'I' for Inactive)
REMARK    1  A    between atoms: C_5  and  C_23
REMARK    2  A    between atoms: C_14  and  O_16
REMARK    3  A    between atoms: C_15  and  O_18
REMARK                            x       y       z     vdW  Elec       q    Type
REMARK                         _______ _______ _______ _____ _____    ______ ____
ROOT
ATOM      1  N   UNL     1      50.010   2.423   9.509  0.00  0.00    +0.000 N 
ATOM      2  N   UNL     1      50.421   2.010   8.287  0.00  0.00    +0.000 NA
ATOM      3  N   UNL     1      49.303   0.334   9.349  0.00  0.00    +0.000 NA
ATOM      4  C   UNL     1      49.316   1.383  10.131  0.00  0.00    +0.000 A 
ATOM      5  C   UNL     1      49.979   0.744   8.223  0.00  0.00    +0.000 A 
ATOM      6  C   UNL     1      50.311   3.723  10.036  0.00  0.00    +0.000 A 
ATOM      7  N   UNL     1      49.955   3.958  11.328  0.00  0.00    +0.000 NA
ATOM      8  C   UNL     1      50.257   5.163  11.825  0.00  0.00    +0.000 A 
ATOM      9  N   UNL     1      50.883   6.141  11.163  0.00  0.00    +0.000 NA
ATOM     10  C   UNL     1      51.229   5.904   9.897  0.00  0.00    +0.000 A 
ATOM     11  C   UNL     1      50.963   4.692   9.247  0.00  0.00    +0.000 A 
ATOM     12  C   UNL     1      51.888   6.910   9.203  0.00  0.00    +0.000 A 
ATOM     13  C   UNL     1      51.346   4.559   7.891  0.00  0.00    +0.000 A 
ATOM     14  C   UNL     1      51.971   5.587   7.194  0.00  0.00    +0.000 A 
ATOM     15  C   UNL     1      52.294   6.754   7.876  0.00  0.00    +0.000 A 
ATOM     16  N   UNL     1      48.744   1.458  11.348  0.00  0.00    +0.000 N 
ATOM     17  H   UNL     1      48.478   0.594  11.807  0.00  0.00    +0.000 HD
ATOM     18  H   UNL     1      48.993   2.225  11.973  0.00  0.00    +0.000 HD
ENDROOT
BRANCH   5  19
ATOM     19  C   UNL     1      50.191  -0.142   7.076  0.00  0.00    +0.000 A 
ATOM     20  N   UNL     1      50.258  -1.482   7.307  0.00  0.00    +0.000 NA
ATOM     21  C   UNL     1      50.455  -2.279   6.234  0.00  0.00    +0.000 A 
ATOM     22  C   UNL     1      50.587  -1.816   4.937  0.00  0.00    +0.000 A 
ATOM     23  C   UNL     1      50.511  -0.444   4.730  0.00  0.00    +0.000 A 
ATOM     24  C   UNL     1      50.311   0.411   5.807  0.00  0.00    +0.000 A 
ENDBRANCH   5  19
BRANCH  14  25
ATOM     25  O   UNL     1      52.327   5.367   5.892  0.00  0.00    +0.000 OA
ATOM     26  C   UNL     1      51.761   4.169   5.423  0.00  0.00    +0.000 C 
ENDBRANCH  14  25
BRANCH  15  27
ATOM     27  O   UNL     1      52.928   7.789   7.242  0.00  0.00    +0.000 OA
ATOM     28  C   UNL     1      54.317   7.702   7.443  0.00  0.00    +0.000 C 
ENDBRANCH  15  27
TORSDOF 3
ENDMDL
MODEL 6
REMARK VINA RESULT:      -6.5     24.450     26.290
REMARK  Name = CP466722.pdbqt.pdb
REMARK  3 active torsions:
REMARK  status: ('A' for Active; 'I' for Inactive)
REMARK    1  A    between atoms: C_5  and  C_23
REMARK    2  A    between atoms: C_14  and  O_16
REMARK    3  A    between atoms: C_15  and  O_18
REMARK                            x       y       z     vdW  Elec       q    Type
REMARK                         _______ _______ _______ _____ _____    ______ ____
ROOT
ATOM      1  N   UNL     1      42.598   1.182  -8.796  0.00  0.00    +0.000 N 
ATOM      2  N   UNL     1      43.844   1.532  -9.192  0.00  0.00    +0.000 NA
ATOM      3  N   UNL     1      43.689  -0.732  -8.994  0.00  0.00    +0.000 NA
ATOM      4  C   UNL     1      42.527  -0.210  -8.697  0.00  0.00    +0.000 A 
ATOM      5  C   UNL     1      44.477   0.354  -9.300  0.00  0.00    +0.000 A 
ATOM      6  C   UNL     1      41.573   2.141  -8.500  0.00  0.00    +0.000 A 
ATOM      7  N   UNL     1      40.411   1.658  -7.983  0.00  0.00    +0.000 NA
ATOM      8  C   UNL     1      39.466   2.556  -7.687  0.00  0.00    +0.000 A 
ATOM      9  N   UNL     1      39.573   3.878  -7.849  0.00  0.00    +0.000 NA
ATOM     10  C   UNL     1      40.715   4.346  -8.357  0.00  0.00    +0.000 A 
ATOM     11  C   UNL     1      41.783   3.517  -8.723  0.00  0.00    +0.000 A 
ATOM     12  C   UNL     1      40.841   5.719  -8.520  0.00  0.00    +0.000 A 
ATOM     13  C   UNL     1      42.936   4.116  -9.283  0.00  0.00    +0.000 A 
ATOM     14  C   UNL     1      43.037   5.489  -9.477  0.00  0.00    +0.000 A 
ATOM     15  C   UNL     1      41.999   6.302  -9.040  0.00  0.00    +0.000 A 
ATOM     16  N   UNL     1      41.423  -0.902  -8.354  0.00  0.00    +0.000 N 
ATOM     17  H   UNL     1      41.532  -1.873  -8.080  0.00  0.00    +0.000 HD
ATOM     18  H   UNL     1      40.637  -0.414  -7.927  0.00  0.00    +0.000 HD
ENDROOT
BRANCH   5  19
ATOM     19  C   UNL     1      45.880   0.209  -9.699  0.00  0.00    +0.000 A 
ATOM     20  N   UNL     1      46.808   0.029  -8.719  0.00  0.00    +0.000 NA
ATOM     21  C   UNL     1      48.094  -0.101  -9.111  0.00  0.00    +0.000 A 
ATOM     22  C   UNL     1      48.511  -0.063 -10.430  0.00  0.00    +0.000 A 
ATOM     23  C   UNL     1      47.543   0.119 -11.408  0.00  0.00    +0.000 A 
ATOM     24  C   UNL     1      46.208   0.258 -11.048  0.00  0.00    +0.000 A 
ENDBRANCH   5  19
BRANCH  14  25
ATOM     25  O   UNL     1      44.197   5.988 -10.005  0.00  0.00    +0.000 OA
ATOM     26  C   UNL     1      44.205   5.840 -11.403  0.00  0.00    +0.000 C 
ENDBRANCH  14  25
BRANCH  15  27
ATOM     27  O   UNL     1      42.057   7.662  -9.189  0.00  0.00    +0.000 OA
ATOM     28  C   UNL     1      41.337   8.294  -8.159  0.00  0.00    +0.000 C 
ENDBRANCH  15  27
TORSDOF 3
ENDMDL
MODEL 7
REMARK VINA RESULT:      -6.4     16.180     18.367
REMARK  Name = CP466722.pdbqt.pdb
REMARK  3 active torsions:
REMARK  status: ('A' for Active; 'I' for Inactive)
REMARK    1  A    between atoms: C_5  and  C_23
REMARK    2  A    between atoms: C_14  and  O_16
REMARK    3  A    between atoms: C_15  and  O_18
REMARK                            x       y       z     vdW  Elec       q    Type
REMARK                         _______ _______ _______ _____ _____    ______ ____
ROOT
ATOM      1  N   UNL     1      33.041  16.206  20.903  0.00  0.00    +0.000 N 
ATOM      2  N   UNL     1      34.325  15.912  20.589  0.00  0.00    +0.000 NA
ATOM      3  N   UNL     1      33.999  18.165  20.533  0.00  0.00    +0.000 NA
ATOM      4  C   UNL     1      32.873  17.593  20.875  0.00  0.00    +0.000 A 
ATOM      5  C   UNL     1      34.874  17.116  20.369  0.00  0.00    +0.000 A 
ATOM      6  C   UNL     1      32.051  15.202  21.169  0.00  0.00    +0.000 A 
ATOM      7  N   UNL     1      30.772  15.632  21.337  0.00  0.00    +0.000 NA
ATOM      8  C   UNL     1      29.848  14.692  21.563  0.00  0.00    +0.000 A 
ATOM      9  N   UNL     1      30.077  13.377  21.626  0.00  0.00    +0.000 NA
ATOM     10  C   UNL     1      31.334  12.962  21.460  0.00  0.00    +0.000 A 
ATOM     11  C   UNL     1      32.402  13.839  21.230  0.00  0.00    +0.000 A 
ATOM     12  C   UNL     1      31.582  11.597  21.515  0.00  0.00    +0.000 A 
ATOM     13  C   UNL     1      33.702  13.293  21.101  0.00  0.00    +0.000 A 
ATOM     14  C   UNL     1      33.943  11.927  21.195  0.00  0.00    +0.000 A 
ATOM     15  C   UNL     1      32.863  11.067  21.349  0.00  0.00    +0.000 A 
ATOM     16  N   UNL     1      31.725  18.235  21.166  0.00  0.00    +0.000 N 
ATOM     17  H   UNL     1      31.637  19.207  20.889  0.00  0.00    +0.000 HD
ATOM     18  H   UNL     1      30.852  17.711  21.202  0.00  0.00    +0.000 HD
ENDROOT
BRANCH   5  19
ATOM     19  C   UNL     1      36.273  17.323  19.983  0.00  0.00    +0.000 A 
ATOM     20  N   UNL     1      36.657  18.578  19.621  0.00  0.00    +0.000 NA
ATOM     21  C   UNL     1      37.951  18.742  19.268  0.00  0.00    +0.000 A 
ATOM     22  C   UNL     1      38.889  17.725  19.258  0.00  0.00    +0.000 A 
ATOM     23  C   UNL     1      38.469  16.456  19.635  0.00  0.00    +0.000 A 
ATOM     24  C   UNL     1      37.147  16.243  20.004  0.00  0.00    +0.000 A 
ENDBRANCH   5  19
BRANCH  14  25
ATOM     25  O   UNL     1      35.228  11.482  21.036  0.00  0.00    +0.000 OA
ATOM     26  C   UNL     1      36.044  12.506  20.525  0.00  0.00    +0.000 C 
ENDBRANCH  14  25
BRANCH  15  27
ATOM     27  O   UNL     1      33.045   9.713  21.427  0.00  0.00    +0.000 OA
ATOM     28  C   UNL     1      32.021   9.130  22.195  0.00  0.00    +0.000 C 
ENDBRANCH  15  27
TORSDOF 3
ENDMDL
MODEL 8
REMARK VINA RESULT:      -6.1     16.092     20.599
REMARK  Name = CP466722.pdbqt.pdb
REMARK  3 active torsions:
REMARK  status: ('A' for Active; 'I' for Inactive)
REMARK    1  A    between atoms: C_5  and  C_23
REMARK    2  A    between atoms: C_14  and  O_16
REMARK    3  A    between atoms: C_15  and  O_18
REMARK                            x       y       z     vdW  Elec       q    Type
REMARK                         _______ _______ _______ _____ _____    ______ ____
ROOT
ATOM      1  N   UNL     1      36.419  19.436  20.752  0.00  0.00    +0.000 N 
ATOM      2  N   UNL     1      35.480  19.568  21.718  0.00  0.00    +0.000 NA
ATOM      3  N   UNL     1      36.127  21.618  20.967  0.00  0.00    +0.000 NA
ATOM      4  C   UNL     1      36.786  20.706  20.300  0.00  0.00    +0.000 A 
ATOM      5  C   UNL     1      35.329  20.897  21.825  0.00  0.00    +0.000 A 
ATOM      6  C   UNL     1      36.940  18.166  20.335  0.00  0.00    +0.000 A 
ATOM      7  N   UNL     1      37.974  18.187  19.452  0.00  0.00    +0.000 NA
ATOM      8  C   UNL     1      38.473  17.003  19.083  0.00  0.00    +0.000 A 
ATOM      9  N   UNL     1      38.047  15.812  19.514  0.00  0.00    +0.000 NA
ATOM     10  C   UNL     1      37.032  15.798  20.380  0.00  0.00    +0.000 A 
ATOM     11  C   UNL     1      36.406  16.964  20.841  0.00  0.00    +0.000 A 
ATOM     12  C   UNL     1      36.587  14.567  20.842  0.00  0.00    +0.000 A 
ATOM     13  C   UNL     1      35.316  16.832  21.734  0.00  0.00    +0.000 A 
ATOM     14  C   UNL     1      34.855  15.592  22.160  0.00  0.00    +0.000 A 
ATOM     15  C   UNL     1      35.534  14.451  21.752  0.00  0.00    +0.000 A 
ATOM     16  N   UNL     1      37.679  20.946  19.320  0.00  0.00    +0.000 N 
ATOM     17  H   UNL     1      38.052  21.885  19.231  0.00  0.00    +0.000 HD
ATOM     18  H   UNL     1      38.302  20.199  19.014  0.00  0.00    +0.000 HD
ENDROOT
BRANCH   5  19
ATOM     19  C   UNL     1      34.411  21.546  22.765  0.00  0.00    +0.000 A 
ATOM     20  N   UNL     1      33.683  22.605  22.318  0.00  0.00    +0.000 NA
ATOM     21  C   UNL     1      32.845  23.187  23.204  0.00  0.00    +0.000 A 
ATOM     22  C   UNL     1      32.688  22.772  24.514  0.00  0.00    +0.000 A 
ATOM     23  C   UNL     1      33.442  21.686  24.941  0.00  0.00    +0.000 A 
ATOM     24  C   UNL     1      34.318  21.060  24.063  0.00  0.00    +0.000 A 
ENDBRANCH   5  19
BRANCH  14  25
ATOM     25  O   UNL     1      33.808  15.556  23.042  0.00  0.00    +0.000 OA
ATOM     26  C   UNL     1      34.236  15.928  24.328  0.00  0.00    +0.000 C 
ENDBRANCH  14  25
BRANCH  15  27
ATOM     27  O   UNL     1      35.133  13.207  22.160  0.00  0.00    +0.000 OA
ATOM     28  C   UNL     1      35.791  12.216  21.411  0.00  0.00    +0.000 C 
ENDBRANCH  15  27
TORSDOF 3
ENDMDL
MODEL 9
REMARK VINA RESULT:      -6.0     16.594     21.098
REMARK  Name = CP466722.pdbqt.pdb
REMARK  3 active torsions:
REMARK  status: ('A' for Active; 'I' for Inactive)
REMARK    1  A    between atoms: C_5  and  C_23
REMARK    2  A    between atoms: C_14  and  O_16
REMARK    3  A    between atoms: C_15  and  O_18
REMARK                            x       y       z     vdW  Elec       q    Type
REMARK                         _______ _______ _______ _____ _____    ______ ____
ROOT
ATOM      1  N   UNL     1      37.088  17.751  20.403  0.00  0.00    +0.000 N 
ATOM      2  N   UNL     1      36.218  16.908  21.007  0.00  0.00    +0.000 NA
ATOM      3  N   UNL     1      37.943  15.735  20.095  0.00  0.00    +0.000 NA
ATOM      4  C   UNL     1      38.142  17.008  19.866  0.00  0.00    +0.000 A 
ATOM      5  C   UNL     1      36.762  15.700  20.800  0.00  0.00    +0.000 A 
ATOM      6  C   UNL     1      36.879  19.169  20.327  0.00  0.00    +0.000 A 
ATOM      7  N   UNL     1      37.762  19.879  19.576  0.00  0.00    +0.000 NA
ATOM      8  C   UNL     1      37.552  21.197  19.487  0.00  0.00    +0.000 A 
ATOM      9  N   UNL     1      36.549  21.864  20.066  0.00  0.00    +0.000 NA
ATOM     10  C   UNL     1      35.686  21.161  20.802  0.00  0.00    +0.000 A 
ATOM     11  C   UNL     1      35.794  19.777  20.990  0.00  0.00    +0.000 A 
ATOM     12  C   UNL     1      34.634  21.842  21.399  0.00  0.00    +0.000 A 
ATOM     13  C   UNL     1      34.842  19.136  21.818  0.00  0.00    +0.000 A 
ATOM     14  C   UNL     1      33.815  19.834  22.442  0.00  0.00    +0.000 A 
ATOM     15  C   UNL     1      33.679  21.193  22.184  0.00  0.00    +0.000 A 
ATOM     16  N   UNL     1      39.202  17.530  19.219  0.00  0.00    +0.000 N 
ATOM     17  H   UNL     1      39.780  16.907  18.666  0.00  0.00    +0.000 HD
ATOM     18  H   UNL     1      39.165  18.496  18.893  0.00  0.00    +0.000 HD
ENDROOT
BRANCH   5  19
ATOM     19  C   UNL     1      36.171  14.442  21.266  0.00  0.00    +0.000 A 
ATOM     20  N   UNL     1      35.536  14.442  22.470  0.00  0.00    +0.000 NA
ATOM     21  C   UNL     1      35.001  13.270  22.878  0.00  0.00    +0.000 A 
ATOM     22  C   UNL     1      35.059  12.094  22.151  0.00  0.00    +0.000 A 
ATOM     23  C   UNL     1      35.711  12.125  20.925  0.00  0.00    +0.000 A 
ATOM     24  C   UNL     1      36.277  13.309  20.469  0.00  0.00    +0.000 A 
ENDBRANCH   5  19
BRANCH  14  25
ATOM     25  O   UNL     1      32.924  19.132  23.208  0.00  0.00    +0.000 OA
ATOM     26  C   UNL     1      33.362  17.808  23.383  0.00  0.00    +0.000 C 
ENDBRANCH  14  25
BRANCH  15  27
ATOM     27  O   UNL     1      32.673  21.922  22.758  0.00  0.00    +0.000 OA
ATOM     28  C   UNL     1      32.416  23.077  21.997  0.00  0.00    +0.000 C 
ENDBRANCH  15  27
TORSDOF 3
ENDMDL
