MODEL 1
REMARK VINA RESULT:      -6.4      0.000      0.000
REMARK  Name = Curcumin.pdbqt.pdb
REMARK  8 active torsions:
REMARK  status: ('A' for Active; 'I' for Inactive)
REMARK    1  A    between atoms: C_2  and  C_4
REMARK    2  A    between atoms: C_5  and  C_6
REMARK    3  A    between atoms: C_8  and  O_12
REMARK    4  A    between atoms: C_9  and  O_14
REMARK    5  A    between atoms: C_16  and  C_18
REMARK    6  A    between atoms: C_19  and  C_20
REMARK    7  A    between atoms: C_22  and  O_26
REMARK    8  A    between atoms: C_23  and  O_28
REMARK                            x       y       z     vdW  Elec       q    Type
REMARK                         _______ _______ _______ _____ _____    ______ ____
ROOT
ATOM      1  C   UNL     1      34.066  11.849  21.901  0.00  0.00    +0.000 C 
ATOM      2  C   UNL     1      32.705  11.726  22.306  0.00  0.00    +0.000 C 
ATOM      3  O   UNL     1      32.072  12.727  22.610  0.00  0.00    +0.000 OA
ATOM      4  C   UNL     1      35.427  11.972  21.499  0.00  0.00    +0.000 C 
ATOM      5  O   UNL     1      36.151  10.986  21.496  0.00  0.00    +0.000 OA
ENDROOT
BRANCH   2   6
ATOM      6  C   UNL     1      32.085  10.427  22.352  0.00  0.00    +0.000 C 
ATOM      7  C   UNL     1      31.568   9.343  22.393  0.00  0.00    +0.000 C 
BRANCH   7   8
ATOM      8  C   UNL     1      30.952   8.057  22.440  0.00  0.00    +0.000 A 
ATOM      9  C   UNL     1      29.701   7.907  23.034  0.00  0.00    +0.000 A 
ATOM     10  C   UNL     1      29.082   6.654  23.089  0.00  0.00    +0.000 A 
ATOM     11  C   UNL     1      29.744   5.554  22.537  0.00  0.00    +0.000 A 
ATOM     12  C   UNL     1      30.997   5.701  21.941  0.00  0.00    +0.000 A 
ATOM     13  C   UNL     1      31.601   6.954  21.893  0.00  0.00    +0.000 A 
BRANCH  10  14
ATOM     14  O   UNL     1      27.853   6.431  23.657  0.00  0.00    +0.000 OA
ATOM     15  C   UNL     1      26.779   7.131  23.095  0.00  0.00    +0.000 C 
ENDBRANCH  10  14
BRANCH  11  16
ATOM     16  O   UNL     1      29.220   4.291  22.543  0.00  0.00    +0.000 OA
ATOM     17  H   UNL     1      28.570   4.193  23.259  0.00  0.00    +0.000 HD
ENDBRANCH  11  16
ENDBRANCH   7   8
ENDBRANCH   2   6
BRANCH   4  18
ATOM     18  C   UNL     1      35.942  13.257  21.099  0.00  0.00    +0.000 C 
ATOM     19  C   UNL     1      36.367  14.331  20.766  0.00  0.00    +0.000 C 
BRANCH  19  20
ATOM     20  C   UNL     1      36.867  15.605  20.370  0.00  0.00    +0.000 A 
ATOM     21  C   UNL     1      36.192  16.764  20.750  0.00  0.00    +0.000 A 
ATOM     22  C   UNL     1      36.669  18.022  20.370  0.00  0.00    +0.000 A 
ATOM     23  C   UNL     1      37.836  18.093  19.604  0.00  0.00    +0.000 A 
ATOM     24  C   UNL     1      38.515  16.937  19.221  0.00  0.00    +0.000 A 
ATOM     25  C   UNL     1      38.029  15.692  19.606  0.00  0.00    +0.000 A 
BRANCH  22  26
ATOM     26  O   UNL     1      36.066  19.211  20.700  0.00  0.00    +0.000 OA
ATOM     27  C   UNL     1      34.954  19.110  21.551  0.00  0.00    +0.000 C 
ENDBRANCH  22  26
BRANCH  23  28
ATOM     28  O   UNL     1      38.319  19.315  19.222  0.00  0.00    +0.000 OA
ATOM     29  H   UNL     1      37.613  19.797  18.754  0.00  0.00    +0.000 HD
ENDBRANCH  23  28
ENDBRANCH  19  20
ENDBRANCH   4  18
TORSDOF 8
ENDMDL
MODEL 2
REMARK VINA RESULT:      -6.4      1.326     11.764
REMARK  Name = Curcumin.pdbqt.pdb
REMARK  8 active torsions:
REMARK  status: ('A' for Active; 'I' for Inactive)
REMARK    1  A    between atoms: C_2  and  C_4
REMARK    2  A    between atoms: C_5  and  C_6
REMARK    3  A    between atoms: C_8  and  O_12
REMARK    4  A    between atoms: C_9  and  O_14
REMARK    5  A    between atoms: C_16  and  C_18
REMARK    6  A    between atoms: C_19  and  C_20
REMARK    7  A    between atoms: C_22  and  O_26
REMARK    8  A    between atoms: C_23  and  O_28
REMARK                            x       y       z     vdW  Elec       q    Type
REMARK                         _______ _______ _______ _____ _____    ______ ____
ROOT
ATOM      1  C   UNL     1      34.108  12.059  21.746  0.00  0.00    +0.000 C 
ATOM      2  C   UNL     1      35.453  12.473  21.969  0.00  0.00    +0.000 C 
ATOM      3  O   UNL     1      36.194  11.781  22.651  0.00  0.00    +0.000 OA
ATOM      4  C   UNL     1      32.762  11.646  21.527  0.00  0.00    +0.000 C 
ATOM      5  O   UNL     1      31.937  12.453  21.124  0.00  0.00    +0.000 OA
ENDROOT
BRANCH   2   6
ATOM      6  C   UNL     1      35.931  13.701  21.386  0.00  0.00    +0.000 C 
ATOM      7  C   UNL     1      36.332  14.725  20.901  0.00  0.00    +0.000 C 
BRANCH   7   8
ATOM      8  C   UNL     1      36.807  15.939  20.324  0.00  0.00    +0.000 A 
ATOM      9  C   UNL     1      36.025  17.090  20.384  0.00  0.00    +0.000 A 
ATOM     10  C   UNL     1      36.475  18.290  19.824  0.00  0.00    +0.000 A 
ATOM     11  C   UNL     1      37.726  18.312  19.200  0.00  0.00    +0.000 A 
ATOM     12  C   UNL     1      38.511  17.161  19.138  0.00  0.00    +0.000 A 
ATOM     13  C   UNL     1      38.051  15.973  19.700  0.00  0.00    +0.000 A 
BRANCH  10  14
ATOM     14  O   UNL     1      35.761  19.462  19.846  0.00  0.00    +0.000 OA
ATOM     15  C   UNL     1      35.726  20.138  21.071  0.00  0.00    +0.000 C 
ENDBRANCH  10  14
BRANCH  11  16
ATOM     16  O   UNL     1      38.250  19.436  18.624  0.00  0.00    +0.000 OA
ATOM     17  H   UNL     1      37.547  20.071  18.409  0.00  0.00    +0.000 HD
ENDBRANCH  11  16
ENDBRANCH   7   8
ENDBRANCH   2   6
BRANCH   4  18
ATOM     18  C   UNL     1      32.383  10.279  21.781  0.00  0.00    +0.000 C 
ATOM     19  C   UNL     1      32.062   9.141  21.995  0.00  0.00    +0.000 C 
BRANCH  19  20
ATOM     20  C   UNL     1      31.679   7.792  22.249  0.00  0.00    +0.000 A 
ATOM     21  C   UNL     1      32.604   6.763  22.074  0.00  0.00    +0.000 A 
ATOM     22  C   UNL     1      32.244   5.435  22.320  0.00  0.00    +0.000 A 
ATOM     23  C   UNL     1      30.941   5.160  22.744  0.00  0.00    +0.000 A 
ATOM     24  C   UNL     1      30.013   6.185  22.921  0.00  0.00    +0.000 A 
ATOM     25  C   UNL     1      30.384   7.503  22.673  0.00  0.00    +0.000 A 
BRANCH  22  26
ATOM     26  O   UNL     1      33.091   4.363  22.173  0.00  0.00    +0.000 OA
ATOM     27  C   UNL     1      34.235   4.379  22.987  0.00  0.00    +0.000 C 
ENDBRANCH  22  26
BRANCH  23  28
ATOM     28  O   UNL     1      30.570   3.866  22.990  0.00  0.00    +0.000 OA
ATOM     29  H   UNL     1      29.613   3.780  22.827  0.00  0.00    +0.000 HD
ENDBRANCH  23  28
ENDBRANCH  19  20
ENDBRANCH   4  18
TORSDOF 8
ENDMDL
MODEL 3
REMARK VINA RESULT:      -6.3     10.228     14.508
REMARK  Name = Curcumin.pdbqt.pdb
REMARK  8 active torsions:
REMARK  status: ('A' for Active; 'I' for Inactive)
REMARK    1  A    between atoms: C_2  and  C_4
REMARK    2  A    between atoms: C_5  and  C_6
REMARK    3  A    between atoms: C_8  and  O_12
REMARK    4  A    between atoms: C_9  and  O_14
REMARK    5  A    between atoms: C_16  and  C_18
REMARK    6  A    between atoms: C_19  and  C_20
REMARK    7  A    between atoms: C_22  and  O_26
REMARK    8  A    between atoms: C_23  and  O_28
REMARK                            x       y       z     vdW  Elec       q    Type
REMARK                         _______ _______ _______ _____ _____    ______ ____
ROOT
ATOM      1  C   UNL     1      40.716   4.702  21.712  0.00  0.00    +0.000 C 
ATOM      2  C   UNL     1      41.905   4.802  22.492  0.00  0.00    +0.000 C 
ATOM      3  O   UNL     1      42.819   4.012  22.306  0.00  0.00    +0.000 OA
ATOM      4  C   UNL     1      39.527   4.600  20.934  0.00  0.00    +0.000 C 
ATOM      5  O   UNL     1      38.506   5.160  21.308  0.00  0.00    +0.000 OA
ENDROOT
BRANCH   2   6
ATOM      6  C   UNL     1      42.022   5.833  23.491  0.00  0.00    +0.000 C 
ATOM      7  C   UNL     1      42.120   6.691  24.326  0.00  0.00    +0.000 C 
BRANCH   7   8
ATOM      8  C   UNL     1      42.239   7.711  25.317  0.00  0.00    +0.000 A 
ATOM      9  C   UNL     1      42.316   7.365  26.664  0.00  0.00    +0.000 A 
ATOM     10  C   UNL     1      42.433   8.352  27.649  0.00  0.00    +0.000 A 
ATOM     11  C   UNL     1      42.470   9.693  27.254  0.00  0.00    +0.000 A 
ATOM     12  C   UNL     1      42.393  10.041  25.906  0.00  0.00    +0.000 A 
ATOM     13  C   UNL     1      42.277   9.049  24.937  0.00  0.00    +0.000 A 
BRANCH  10  14
ATOM     14  O   UNL     1      42.515   8.087  28.993  0.00  0.00    +0.000 OA
ATOM     15  C   UNL     1      43.731   7.562  29.444  0.00  0.00    +0.000 C 
ENDBRANCH  10  14
BRANCH  11  16
ATOM     16  O   UNL     1      42.583  10.726  28.143  0.00  0.00    +0.000 OA
ATOM     17  H   UNL     1      43.435  11.180  28.035  0.00  0.00    +0.000 HD
ENDBRANCH  11  16
ENDBRANCH   7   8
ENDBRANCH   2   6
BRANCH   4  18
ATOM     18  C   UNL     1      39.535   3.836  19.712  0.00  0.00    +0.000 C 
ATOM     19  C   UNL     1      39.543   3.203  18.691  0.00  0.00    +0.000 C 
BRANCH  19  20
ATOM     20  C   UNL     1      39.555   2.454  17.478  0.00  0.00    +0.000 A 
ATOM     21  C   UNL     1      39.567   1.061  17.522  0.00  0.00    +0.000 A 
ATOM     22  C   UNL     1      39.578   0.312  16.342  0.00  0.00    +0.000 A 
ATOM     23  C   UNL     1      39.576   0.988  15.119  0.00  0.00    +0.000 A 
ATOM     24  C   UNL     1      39.564   2.381  15.069  0.00  0.00    +0.000 A 
ATOM     25  C   UNL     1      39.553   3.115  16.251  0.00  0.00    +0.000 A 
BRANCH  22  26
ATOM     26  O   UNL     1      39.591  -1.061  16.296  0.00  0.00    +0.000 OA
ATOM     27  C   UNL     1      40.821  -1.665  16.599  0.00  0.00    +0.000 C 
ENDBRANCH  22  26
BRANCH  23  28
ATOM     28  O   UNL     1      39.587   0.274  13.952  0.00  0.00    +0.000 OA
ATOM     29  H   UNL     1      39.876   0.860  13.230  0.00  0.00    +0.000 HD
ENDBRANCH  23  28
ENDBRANCH  19  20
ENDBRANCH   4  18
TORSDOF 8
ENDMDL
MODEL 4
REMARK VINA RESULT:      -6.2     22.174     25.784
REMARK  Name = Curcumin.pdbqt.pdb
REMARK  8 active torsions:
REMARK  status: ('A' for Active; 'I' for Inactive)
REMARK    1  A    between atoms: C_2  and  C_4
REMARK    2  A    between atoms: C_5  and  C_6
REMARK    3  A    between atoms: C_8  and  O_12
REMARK    4  A    between atoms: C_9  and  O_14
REMARK    5  A    between atoms: C_16  and  C_18
REMARK    6  A    between atoms: C_19  and  C_20
REMARK    7  A    between atoms: C_22  and  O_26
REMARK    8  A    between atoms: C_23  and  O_28
REMARK                            x       y       z     vdW  Elec       q    Type
REMARK                         _______ _______ _______ _____ _____    ______ ____
ROOT
ATOM      1  C   UNL     1      50.274   2.432   8.837  0.00  0.00    +0.000 C 
ATOM      2  C   UNL     1      49.822   2.554  10.183  0.00  0.00    +0.000 C 
ATOM      3  O   UNL     1      49.075   1.706  10.649  0.00  0.00    +0.000 OA
ATOM      4  C   UNL     1      50.722   2.311   7.490  0.00  0.00    +0.000 C 
ATOM      5  O   UNL     1      51.199   3.282   6.919  0.00  0.00    +0.000 OA
ENDROOT
BRANCH   2   6
ATOM      6  C   UNL     1      50.250   3.672  10.985  0.00  0.00    +0.000 C 
ATOM      7  C   UNL     1      50.608   4.604  11.652  0.00  0.00    +0.000 C 
BRANCH   7   8
ATOM      8  C   UNL     1      51.032   5.712  12.444  0.00  0.00    +0.000 A 
ATOM      9  C   UNL     1      52.312   6.237  12.277  0.00  0.00    +0.000 A 
ATOM     10  C   UNL     1      52.744   7.323  13.044  0.00  0.00    +0.000 A 
ATOM     11  C   UNL     1      51.866   7.873  13.984  0.00  0.00    +0.000 A 
ATOM     12  C   UNL     1      50.585   7.349  14.154  0.00  0.00    +0.000 A 
ATOM     13  C   UNL     1      50.168   6.268  13.383  0.00  0.00    +0.000 A 
BRANCH  10  14
ATOM     14  O   UNL     1      53.987   7.893  12.934  0.00  0.00    +0.000 OA
ATOM     15  C   UNL     1      55.045   7.182  13.513  0.00  0.00    +0.000 C 
ENDBRANCH  10  14
BRANCH  11  16
ATOM     16  O   UNL     1      52.199   8.934  14.779  0.00  0.00    +0.000 OA
ATOM     17  H   UNL     1      52.779   9.551  14.303  0.00  0.00    +0.000 HD
ENDBRANCH  11  16
ENDBRANCH   7   8
ENDBRANCH   2   6
BRANCH   4  18
ATOM     18  C   UNL     1      50.611   1.046   6.809  0.00  0.00    +0.000 C 
ATOM     19  C   UNL     1      50.521  -0.011   6.245  0.00  0.00    +0.000 C 
BRANCH  19  20
ATOM     20  C   UNL     1      50.416  -1.266   5.578  0.00  0.00    +0.000 A 
ATOM     21  C   UNL     1      50.196  -2.428   6.317  0.00  0.00    +0.000 A 
ATOM     22  C   UNL     1      50.091  -3.667   5.679  0.00  0.00    +0.000 A 
ATOM     23  C   UNL     1      50.210  -3.717   4.287  0.00  0.00    +0.000 A 
ATOM     24  C   UNL     1      50.431  -2.558   3.544  0.00  0.00    +0.000 A 
ATOM     25  C   UNL     1      50.534  -1.331   4.192  0.00  0.00    +0.000 A 
BRANCH  22  26
ATOM     26  O   UNL     1      49.874  -4.858   6.329  0.00  0.00    +0.000 OA
ATOM     27  C   UNL     1      50.512  -4.992   7.572  0.00  0.00    +0.000 C 
ENDBRANCH  22  26
BRANCH  23  28
ATOM     28  O   UNL     1      50.110  -4.920   3.644  0.00  0.00    +0.000 OA
ATOM     29  H   UNL     1      50.405  -5.624   4.250  0.00  0.00    +0.000 HD
ENDBRANCH  23  28
ENDBRANCH  19  20
ENDBRANCH   4  18
TORSDOF 8
ENDMDL
MODEL 5
REMARK VINA RESULT:      -6.2     22.199     24.294
REMARK  Name = Curcumin.pdbqt.pdb
REMARK  8 active torsions:
REMARK  status: ('A' for Active; 'I' for Inactive)
REMARK    1  A    between atoms: C_2  and  C_4
REMARK    2  A    between atoms: C_5  and  C_6
REMARK    3  A    between atoms: C_8  and  O_12
REMARK    4  A    between atoms: C_9  and  O_14
REMARK    5  A    between atoms: C_16  and  C_18
REMARK    6  A    between atoms: C_19  and  C_20
REMARK    7  A    between atoms: C_22  and  O_26
REMARK    8  A    between atoms: C_23  and  O_28
REMARK                            x       y       z     vdW  Elec       q    Type
REMARK                         _______ _______ _______ _____ _____    ______ ____
ROOT
ATOM      1  C   UNL     1      50.374   2.414   8.965  0.00  0.00    +0.000 C 
ATOM      2  C   UNL     1      50.826   2.318   7.617  0.00  0.00    +0.000 C 
ATOM      3  O   UNL     1      51.327   3.293   7.076  0.00  0.00    +0.000 OA
ATOM      4  C   UNL     1      49.919   2.512  10.312  0.00  0.00    +0.000 C 
ATOM      5  O   UNL     1      49.151   1.671  10.755  0.00  0.00    +0.000 OA
ENDROOT
BRANCH   2   6
ATOM      6  C   UNL     1      50.694   1.074   6.902  0.00  0.00    +0.000 C 
ATOM      7  C   UNL     1      50.581   0.037   6.306  0.00  0.00    +0.000 C 
BRANCH   7   8
ATOM      8  C   UNL     1      50.450  -1.193   5.597  0.00  0.00    +0.000 A 
ATOM      9  C   UNL     1      50.397  -2.397   6.297  0.00  0.00    +0.000 A 
ATOM     10  C   UNL     1      50.268  -3.613   5.618  0.00  0.00    +0.000 A 
ATOM     11  C   UNL     1      50.193  -3.597   4.222  0.00  0.00    +0.000 A 
ATOM     12  C   UNL     1      50.245  -2.394   3.519  0.00  0.00    +0.000 A 
ATOM     13  C   UNL     1      50.374  -1.191   4.207  0.00  0.00    +0.000 A 
BRANCH  10  14
ATOM     14  O   UNL     1      50.209  -4.835   6.240  0.00  0.00    +0.000 OA
ATOM     15  C   UNL     1      50.468  -4.840   7.615  0.00  0.00    +0.000 C 
ENDBRANCH  10  14
BRANCH  11  16
ATOM     16  O   UNL     1      50.066  -4.734   3.472  0.00  0.00    +0.000 OA
ATOM     17  H   UNL     1      50.902  -5.229   3.456  0.00  0.00    +0.000 HD
ENDBRANCH  11  16
ENDBRANCH   7   8
ENDBRANCH   2   6
BRANCH   4  18
ATOM     18  C   UNL     1      50.367   3.602  11.141  0.00  0.00    +0.000 C 
ATOM     19  C   UNL     1      50.743   4.508  11.835  0.00  0.00    +0.000 C 
BRANCH  19  20
ATOM     20  C   UNL     1      51.190   5.580  12.661  0.00  0.00    +0.000 A 
ATOM     21  C   UNL     1      52.554   5.840  12.782  0.00  0.00    +0.000 A 
ATOM     22  C   UNL     1      53.009   6.888  13.588  0.00  0.00    +0.000 A 
ATOM     23  C   UNL     1      52.070   7.668  14.268  0.00  0.00    +0.000 A 
ATOM     24  C   UNL     1      50.704   7.412  14.151  0.00  0.00    +0.000 A 
ATOM     25  C   UNL     1      50.265   6.365  13.345  0.00  0.00    +0.000 A 
BRANCH  22  26
ATOM     26  O   UNL     1      54.333   7.212  13.763  0.00  0.00    +0.000 OA
ATOM     27  C   UNL     1      54.976   7.754  12.640  0.00  0.00    +0.000 C 
ENDBRANCH  22  26
BRANCH  23  28
ATOM     28  O   UNL     1      52.495   8.697  15.062  0.00  0.00    +0.000 OA
ATOM     29  H   UNL     1      51.800   9.380  15.087  0.00  0.00    +0.000 HD
ENDBRANCH  23  28
ENDBRANCH  19  20
ENDBRANCH   4  18
TORSDOF 8
ENDMDL
MODEL 6
REMARK VINA RESULT:      -5.8     11.441     15.221
REMARK  Name = Curcumin.pdbqt.pdb
REMARK  8 active torsions:
REMARK  status: ('A' for Active; 'I' for Inactive)
REMARK    1  A    between atoms: C_2  and  C_4
REMARK    2  A    between atoms: C_5  and  C_6
REMARK    3  A    between atoms: C_8  and  O_12
REMARK    4  A    between atoms: C_9  and  O_14
REMARK    5  A    between atoms: C_16  and  C_18
REMARK    6  A    between atoms: C_19  and  C_20
REMARK    7  A    between atoms: C_22  and  O_26
REMARK    8  A    between atoms: C_23  and  O_28
REMARK                            x       y       z     vdW  Elec       q    Type
REMARK                         _______ _______ _______ _____ _____    ______ ____
ROOT
ATOM      1  C   UNL     1      41.141   2.742  20.659  0.00  0.00    +0.000 C 
ATOM      2  C   UNL     1      42.305   2.956  21.452  0.00  0.00    +0.000 C 
ATOM      3  O   UNL     1      43.365   2.443  21.122  0.00  0.00    +0.000 OA
ATOM      4  C   UNL     1      39.976   2.524  19.867  0.00  0.00    +0.000 C 
ATOM      5  O   UNL     1      38.871   2.758  20.336  0.00  0.00    +0.000 OA
ENDROOT
BRANCH   2   6
ATOM      6  C   UNL     1      42.228   3.776  22.634  0.00  0.00    +0.000 C 
ATOM      7  C   UNL     1      42.165   4.460  23.619  0.00  0.00    +0.000 C 
BRANCH   7   8
ATOM      8  C   UNL     1      42.090   5.274  24.789  0.00  0.00    +0.000 A 
ATOM      9  C   UNL     1      41.825   6.637  24.671  0.00  0.00    +0.000 A 
ATOM     10  C   UNL     1      41.747   7.450  25.806  0.00  0.00    +0.000 A 
ATOM     11  C   UNL     1      41.941   6.868  27.063  0.00  0.00    +0.000 A 
ATOM     12  C   UNL     1      42.206   5.504  27.183  0.00  0.00    +0.000 A 
ATOM     13  C   UNL     1      42.280   4.706  26.045  0.00  0.00    +0.000 A 
BRANCH  10  14
ATOM     14  O   UNL     1      41.490   8.797  25.768  0.00  0.00    +0.000 OA
ATOM     15  C   UNL     1      42.532   9.610  25.309  0.00  0.00    +0.000 C 
ENDBRANCH  10  14
BRANCH  11  16
ATOM     16  O   UNL     1      41.884   7.581  28.228  0.00  0.00    +0.000 OA
ATOM     17  H   UNL     1      42.464   8.359  28.183  0.00  0.00    +0.000 HD
ENDBRANCH  11  16
ENDBRANCH   7   8
ENDBRANCH   2   6
BRANCH   4  18
ATOM     18  C   UNL     1      40.108   2.030  18.521  0.00  0.00    +0.000 C 
ATOM     19  C   UNL     1      40.218   1.622  17.395  0.00  0.00    +0.000 C 
BRANCH  19  20
ATOM     20  C   UNL     1      40.346   1.141  16.060  0.00  0.00    +0.000 A 
ATOM     21  C   UNL     1      41.371   0.253  15.738  0.00  0.00    +0.000 A 
ATOM     22  C   UNL     1      41.511  -0.228  14.433  0.00  0.00    +0.000 A 
ATOM     23  C   UNL     1      40.603   0.198  13.459  0.00  0.00    +0.000 A 
ATOM     24  C   UNL     1      39.577   1.087  13.776  0.00  0.00    +0.000 A 
ATOM     25  C   UNL     1      39.449   1.558  15.079  0.00  0.00    +0.000 A 
BRANCH  22  26
ATOM     26  O   UNL     1      42.490  -1.104  14.031  0.00  0.00    +0.000 OA
ATOM     27  C   UNL     1      42.490  -2.350  14.678  0.00  0.00    +0.000 C 
ENDBRANCH  22  26
BRANCH  23  28
ATOM     28  O   UNL     1      40.723  -0.261  12.176  0.00  0.00    +0.000 OA
ATOM     29  H   UNL     1      40.246  -1.107  12.102  0.00  0.00    +0.000 HD
ENDBRANCH  23  28
ENDBRANCH  19  20
ENDBRANCH   4  18
TORSDOF 8
ENDMDL
MODEL 7
REMARK VINA RESULT:      -5.8      2.111     12.053
REMARK  Name = Curcumin.pdbqt.pdb
REMARK  8 active torsions:
REMARK  status: ('A' for Active; 'I' for Inactive)
REMARK    1  A    between atoms: C_2  and  C_4
REMARK    2  A    between atoms: C_5  and  C_6
REMARK    3  A    between atoms: C_8  and  O_12
REMARK    4  A    between atoms: C_9  and  O_14
REMARK    5  A    between atoms: C_16  and  C_18
REMARK    6  A    between atoms: C_19  and  C_20
REMARK    7  A    between atoms: C_22  and  O_26
REMARK    8  A    between atoms: C_23  and  O_28
REMARK                            x       y       z     vdW  Elec       q    Type
REMARK                         _______ _______ _______ _____ _____    ______ ____
ROOT
ATOM      1  C   UNL     1      33.560   9.811  21.929  0.00  0.00    +0.000 C 
ATOM      2  C   UNL     1      34.849  10.412  21.842  0.00  0.00    +0.000 C 
ATOM      3  O   UNL     1      35.845   9.746  22.087  0.00  0.00    +0.000 OA
ATOM      4  C   UNL     1      32.271   9.211  22.021  0.00  0.00    +0.000 C 
ATOM      5  O   UNL     1      31.275   9.918  22.088  0.00  0.00    +0.000 OA
ENDROOT
BRANCH   2   6
ATOM      6  C   UNL     1      34.971  11.797  21.464  0.00  0.00    +0.000 C 
ATOM      7  C   UNL     1      35.075  12.951  21.149  0.00  0.00    +0.000 C 
BRANCH   7   8
ATOM      8  C   UNL     1      35.198  14.322  20.774  0.00  0.00    +0.000 A 
ATOM      9  C   UNL     1      36.451  14.931  20.767  0.00  0.00    +0.000 A 
ATOM     10  C   UNL     1      36.590  16.274  20.401  0.00  0.00    +0.000 A 
ATOM     11  C   UNL     1      35.447  16.994  20.043  0.00  0.00    +0.000 A 
ATOM     12  C   UNL     1      34.191  16.387  20.049  0.00  0.00    +0.000 A 
ATOM     13  C   UNL     1      34.067  15.050  20.415  0.00  0.00    +0.000 A 
BRANCH  10  14
ATOM     14  O   UNL     1      37.790  16.939  20.370  0.00  0.00    +0.000 OA
ATOM     15  C   UNL     1      38.572  16.746  19.226  0.00  0.00    +0.000 C 
ENDBRANCH  10  14
BRANCH  11  16
ATOM     16  O   UNL     1      35.483  18.310  19.672  0.00  0.00    +0.000 OA
ATOM     17  H   UNL     1      35.375  18.398  18.710  0.00  0.00    +0.000 HD
ENDBRANCH  11  16
ENDBRANCH   7   8
ENDBRANCH   2   6
BRANCH   4  18
ATOM     18  C   UNL     1      32.150   7.775  22.033  0.00  0.00    +0.000 C 
ATOM     19  C   UNL     1      32.053   6.577  22.045  0.00  0.00    +0.000 C 
BRANCH  19  20
ATOM     20  C   UNL     1      31.942   5.157  22.060  0.00  0.00    +0.000 A 
ATOM     21  C   UNL     1      30.756   4.549  21.648  0.00  0.00    +0.000 A 
ATOM     22  C   UNL     1      30.631   3.157  21.657  0.00  0.00    +0.000 A 
ATOM     23  C   UNL     1      31.716   2.388  22.085  0.00  0.00    +0.000 A 
ATOM     24  C   UNL     1      32.904   2.991  22.499  0.00  0.00    +0.000 A 
ATOM     25  C   UNL     1      33.015   4.378  22.486  0.00  0.00    +0.000 A 
BRANCH  22  26
ATOM     26  O   UNL     1      29.501   2.479  21.268  0.00  0.00    +0.000 OA
ATOM     27  C   UNL     1      29.158   2.601  19.912  0.00  0.00    +0.000 C 
ENDBRANCH  22  26
BRANCH  23  28
ATOM     28  O   UNL     1      31.613   1.024  22.102  0.00  0.00    +0.000 OA
ATOM     29  H   UNL     1      31.001   0.749  21.395  0.00  0.00    +0.000 HD
ENDBRANCH  23  28
ENDBRANCH  19  20
ENDBRANCH   4  18
TORSDOF 8
ENDMDL
MODEL 8
REMARK VINA RESULT:      -5.8      5.915     12.303
REMARK  Name = Curcumin.pdbqt.pdb
REMARK  8 active torsions:
REMARK  status: ('A' for Active; 'I' for Inactive)
REMARK    1  A    between atoms: C_2  and  C_4
REMARK    2  A    between atoms: C_5  and  C_6
REMARK    3  A    between atoms: C_8  and  O_12
REMARK    4  A    between atoms: C_9  and  O_14
REMARK    5  A    between atoms: C_16  and  C_18
REMARK    6  A    between atoms: C_19  and  C_20
REMARK    7  A    between atoms: C_22  and  O_26
REMARK    8  A    between atoms: C_23  and  O_28
REMARK                            x       y       z     vdW  Elec       q    Type
REMARK                         _______ _______ _______ _____ _____    ______ ____
ROOT
ATOM      1  C   UNL     1      31.160  15.844  19.071  0.00  0.00    +0.000 C 
ATOM      2  C   UNL     1      32.028  15.810  20.200  0.00  0.00    +0.000 C 
ATOM      3  O   UNL     1      31.599  15.438  21.282  0.00  0.00    +0.000 OA
ATOM      4  C   UNL     1      30.289  15.881  17.943  0.00  0.00    +0.000 C 
ATOM      5  O   UNL     1      30.603  16.530  16.955  0.00  0.00    +0.000 OA
ENDROOT
BRANCH   2   6
ATOM      6  C   UNL     1      33.404  16.212  20.059  0.00  0.00    +0.000 C 
ATOM      7  C   UNL     1      34.552  16.545  19.943  0.00  0.00    +0.000 C 
BRANCH   7   8
ATOM      8  C   UNL     1      35.916  16.941  19.803  0.00  0.00    +0.000 A 
ATOM      9  C   UNL     1      36.226  18.192  19.276  0.00  0.00    +0.000 A 
ATOM     10  C   UNL     1      37.557  18.597  19.132  0.00  0.00    +0.000 A 
ATOM     11  C   UNL     1      38.572  17.719  19.527  0.00  0.00    +0.000 A 
ATOM     12  C   UNL     1      38.264  16.466  20.055  0.00  0.00    +0.000 A 
ATOM     13  C   UNL     1      36.935  16.076  20.193  0.00  0.00    +0.000 A 
BRANCH  10  14
ATOM     14  O   UNL     1      37.938  19.813  18.623  0.00  0.00    +0.000 OA
ATOM     15  C   UNL     1      37.904  20.892  19.514  0.00  0.00    +0.000 C 
ENDBRANCH  10  14
BRANCH  11  16
ATOM     16  O   UNL     1      39.900  18.025  19.425  0.00  0.00    +0.000 OA
ATOM     17  H   UNL     1      40.420  17.524  20.076  0.00  0.00    +0.000 HD
ENDBRANCH  11  16
ENDBRANCH   7   8
ENDBRANCH   2   6
BRANCH   4  18
ATOM     18  C   UNL     1      29.047  15.153  17.974  0.00  0.00    +0.000 C 
ATOM     19  C   UNL     1      28.009  14.547  18.004  0.00  0.00    +0.000 C 
BRANCH  19  20
ATOM     20  C   UNL     1      26.779  13.829  18.044  0.00  0.00    +0.000 A 
ATOM     21  C   UNL     1      26.567  12.766  17.167  0.00  0.00    +0.000 A 
ATOM     22  C   UNL     1      25.366  12.051  17.193  0.00  0.00    +0.000 A 
ATOM     23  C   UNL     1      24.384  12.423  18.115  0.00  0.00    +0.000 A 
ATOM     24  C   UNL     1      24.590  13.485  18.994  0.00  0.00    +0.000 A 
ATOM     25  C   UNL     1      25.790  14.188  18.958  0.00  0.00    +0.000 A 
BRANCH  22  26
ATOM     26  O   UNL     1      25.076  10.993  16.365  0.00  0.00    +0.000 OA
ATOM     27  C   UNL     1      25.272  11.225  14.995  0.00  0.00    +0.000 C 
ENDBRANCH  22  26
BRANCH  23  28
ATOM     28  O   UNL     1      23.201  11.736  18.156  0.00  0.00    +0.000 OA
ATOM     29  H   UNL     1      22.578  12.151  17.532  0.00  0.00    +0.000 HD
ENDBRANCH  23  28
ENDBRANCH  19  20
ENDBRANCH   4  18
TORSDOF 8
ENDMDL
MODEL 9
REMARK VINA RESULT:      -5.7     10.744     14.751
REMARK  Name = Curcumin.pdbqt.pdb
REMARK  8 active torsions:
REMARK  status: ('A' for Active; 'I' for Inactive)
REMARK    1  A    between atoms: C_2  and  C_4
REMARK    2  A    between atoms: C_5  and  C_6
REMARK    3  A    between atoms: C_8  and  O_12
REMARK    4  A    between atoms: C_9  and  O_14
REMARK    5  A    between atoms: C_16  and  C_18
REMARK    6  A    between atoms: C_19  and  C_20
REMARK    7  A    between atoms: C_22  and  O_26
REMARK    8  A    between atoms: C_23  and  O_28
REMARK                            x       y       z     vdW  Elec       q    Type
REMARK                         _______ _______ _______ _____ _____    ______ ____
ROOT
ATOM      1  C   UNL     1      39.809   3.317  19.990  0.00  0.00    +0.000 C 
ATOM      2  C   UNL     1      40.332   2.948  21.263  0.00  0.00    +0.000 C 
ATOM      3  O   UNL     1      40.576   1.775  21.501  0.00  0.00    +0.000 OA
ATOM      4  C   UNL     1      39.282   3.683  18.717  0.00  0.00    +0.000 C 
ATOM      5  O   UNL     1      38.749   4.774  18.572  0.00  0.00    +0.000 OA
ENDROOT
BRANCH   2   6
ATOM      6  C   UNL     1      40.574   3.961  22.259  0.00  0.00    +0.000 C 
ATOM      7  C   UNL     1      40.774   4.804  23.091  0.00  0.00    +0.000 C 
BRANCH   7   8
ATOM      8  C   UNL     1      41.015   5.805  24.079  0.00  0.00    +0.000 A 
ATOM      9  C   UNL     1      39.995   6.178  24.952  0.00  0.00    +0.000 A 
ATOM     10  C   UNL     1      40.213   7.157  25.927  0.00  0.00    +0.000 A 
ATOM     11  C   UNL     1      41.475   7.756  26.007  0.00  0.00    +0.000 A 
ATOM     12  C   UNL     1      42.496   7.384  25.134  0.00  0.00    +0.000 A 
ATOM     13  C   UNL     1      42.266   6.408  24.168  0.00  0.00    +0.000 A 
BRANCH  10  14
ATOM     14  O   UNL     1      39.259   7.574  26.821  0.00  0.00    +0.000 OA
ATOM     15  C   UNL     1      38.947   6.679  27.851  0.00  0.00    +0.000 C 
ENDBRANCH  10  14
BRANCH  11  16
ATOM     16  O   UNL     1      41.782   8.721  26.925  0.00  0.00    +0.000 OA
ATOM     17  H   UNL     1      42.334   8.355  27.636  0.00  0.00    +0.000 HD
ENDBRANCH  11  16
ENDBRANCH   7   8
ENDBRANCH   2   6
BRANCH   4  18
ATOM     18  C   UNL     1      39.380   2.765  17.611  0.00  0.00    +0.000 C 
ATOM     19  C   UNL     1      39.467   2.000  16.688  0.00  0.00    +0.000 C 
BRANCH  19  20
ATOM     20  C   UNL     1      39.573   1.093  15.594  0.00  0.00    +0.000 A 
ATOM     21  C   UNL     1      39.710  -0.273  15.836  0.00  0.00    +0.000 A 
ATOM     22  C   UNL     1      39.816  -1.176  14.774  0.00  0.00    +0.000 A 
ATOM     23  C   UNL     1      39.780  -0.682  13.467  0.00  0.00    +0.000 A 
ATOM     24  C   UNL     1      39.643   0.683  13.220  0.00  0.00    +0.000 A 
ATOM     25  C   UNL     1      39.540   1.571  14.286  0.00  0.00    +0.000 A 
BRANCH  22  26
ATOM     26  O   UNL     1      39.953  -2.535  14.924  0.00  0.00    +0.000 OA
ATOM     27  C   UNL     1      41.254  -2.985  15.199  0.00  0.00    +0.000 C 
ENDBRANCH  22  26
BRANCH  23  28
ATOM     28  O   UNL     1      39.882  -1.549  12.414  0.00  0.00    +0.000 OA
ATOM     29  H   UNL     1      40.826  -1.697  12.222  0.00  0.00    +0.000 HD
ENDBRANCH  23  28
ENDBRANCH  19  20
ENDBRANCH   4  18
TORSDOF 8
ENDMDL
