MODEL 1
REMARK VINA RESULT:      -5.8      0.000      0.000
REMARK  Name = CyclosporineA.pdb
REMARK  40 active torsions:
REMARK  status: ('A' for Active; 'I' for Inactive)
REMARK    1  A    between atoms: C1_1  and  C78_78
REMARK    2  A    between atoms: N7_7  and  C8_8
REMARK    3  A    between atoms: C9_9  and  C15_15
REMARK    4  A    between atoms: N11_11  and  C20_20
REMARK    5  A    between atoms: C12_12  and  C21_21
REMARK    6  A    between atoms: N14_14  and  C23_23
REMARK    7  A    between atoms: C15_15  and  C16_16
REMARK    8  A    between atoms: C16_16  and  C17_17
REMARK    9  A    between atoms: C16_16  and  C18_18
REMARK   10  A    between atoms: C21_21  and  C82_82
REMARK   11  A    between atoms: C24_24  and  C25_25
REMARK   12  A    between atoms: C25_25  and  C30_30
REMARK   13  A    between atoms: C25_25  and  C31_31
REMARK   14  A    between atoms: C26_26  and  O27_27
REMARK   15  A    between atoms: N28_28  and  C29_29
REMARK   16  A    between atoms: C32_32  and  C34_34
REMARK   17  A    between atoms: C34_34  and  C35_35
REMARK   18  A    between atoms: C34_34  and  O40_40
REMARK   19  A    between atoms: C35_35  and  C36_36
REMARK   20  A    between atoms: C35_35  and  C41_41
REMARK   21  A    between atoms: C36_36  and  C37_37
REMARK   22  A    between atoms: C38_38  and  C39_39
REMARK   23  A    between atoms: C44_44  and  C45_45
REMARK   24  A    between atoms: C45_45  and  C46_46
REMARK   25  A    between atoms: N49_49  and  C77_77
REMARK   26  A    between atoms: C53_53  and  C57_57
REMARK   27  A    between atoms: C57_57  and  C58_58
REMARK   28  A    between atoms: C58_58  and  C59_59
REMARK   29  A    between atoms: C58_58  and  C76_76
REMARK   30  A    between atoms: C61_61  and  C62_62
REMARK   31  A    between atoms: C62_62  and  C63_63
REMARK   32  A    between atoms: C62_62  and  C64_64
REMARK   33  A    between atoms: N66_66  and  C68_68
REMARK   34  A    between atoms: C67_67  and  C75_75
REMARK   35  A    between atoms: C73_73  and  C74_74
REMARK   36  A    between atoms: C75_75  and  C79_79
REMARK   37  A    between atoms: C79_79  and  C80_80
REMARK   38  A    between atoms: C79_79  and  C81_81
REMARK   39  A    between atoms: C82_82  and  C83_83
REMARK   40  A    between atoms: C82_82  and  C84_84
REMARK                            x       y       z     vdW  Elec       q    Type
REMARK                         _______ _______ _______ _____ _____    ______ ____
ROOT
ATOM      1  C1  UNK     0      56.659  -6.367   6.641  0.00  0.00    +0.000 C 
ATOM      2  C2  UNK     0      55.523  -5.547   5.967  0.00  0.00    +0.000 C 
ATOM      3  N3  UNK     0      56.702  -5.930   8.027  0.00  0.00    +0.000 N 
ATOM      4  C4  UNK     0      57.171  -6.713   9.055  0.00  0.00    +0.000 C 
ATOM      5  O5  UNK     0      57.509  -7.885   8.901  0.00  0.00    +0.000 OA
ATOM      6  C6  UNK     0      55.860  -4.508   5.176  0.00  0.00    +0.000 C 
ATOM      7  N7  UNK     0      54.168  -5.912   6.245  0.00  0.00    +0.000 N 
ATOM      8  C8  UNK     0      53.854  -7.104   7.054  0.00  0.00    +0.000 C 
ATOM      9  C9  UNK     0      52.988  -5.106   5.758  0.00  0.00    +0.000 C 
ATOM     10  C10 UNK     0      52.682  -3.909   6.727  0.00  0.00    +0.000 C 
ATOM     11  N11 UNK     0      52.199  -2.683   6.173  0.00  0.00    +0.000 N 
ATOM     12  C12 UNK     0      52.352  -1.362   6.868  0.00  0.00    +0.000 C 
ATOM     13  C13 UNK     0      50.975  -0.836   7.393  0.00  0.00    +0.000 C 
ATOM     14  N14 UNK     0      50.825   0.568   7.548  0.00  0.00    +0.000 N 
ATOM     15  C19 UNK     0      52.896  -4.051   8.052  0.00  0.00    +0.000 C 
ATOM     16  C20 UNK     0      51.606  -2.610   4.831  0.00  0.00    +0.000 C 
ATOM     17  C22 UNK     0      49.940  -1.665   7.633  0.00  0.00    +0.000 C 
ATOM     18  C23 UNK     0      49.950   1.167   6.496  0.00  0.00    +0.000 C 
ATOM     19  C24 UNK     0      50.560   1.165   8.937  0.00  0.00    +0.000 C 
ATOM     20  C26 UNK     0      50.641   2.764   8.849  0.00  0.00    +0.000 C 
ATOM     21  N28 UNK     0      50.589   3.436  10.149  0.00  0.00    +0.000 NA
ATOM     22  C29 UNK     0      49.202   3.604  10.597  0.00  0.00    +0.000 C 
ATOM     23  C32 UNK     0      51.381   4.705  10.255  0.00  0.00    +0.000 C 
ATOM     24  C33 UNK     0      51.592   4.943  11.776  0.00  0.00    +0.000 C 
ATOM     25  O42 UNK     0      51.133   5.894  12.398  0.00  0.00    +0.000 OA
ATOM     26  N43 UNK     0      52.325   3.921  12.352  0.00  0.00    +0.000 N 
ATOM     27  C44 UNK     0      52.676   3.885  13.757  0.00  0.00    +0.000 C 
ATOM     28  C47 UNK     0      53.865   4.844  14.006  0.00  0.00    +0.000 C 
ATOM     29  C48 UNK     0      53.636   5.835  14.893  0.00  0.00    +0.000 C 
ATOM     30  N49 UNK     0      55.114   4.709  13.343  0.00  0.00    +0.000 N 
ATOM     31  C50 UNK     0      55.435   3.714  12.283  0.00  0.00    +0.000 C 
ATOM     32  C51 UNK     0      56.593   2.790  12.703  0.00  0.00    +0.000 C 
ATOM     33  N52 UNK     0      56.704   2.627  14.068  0.00  0.00    +0.000 N 
ATOM     34  C53 UNK     0      57.550   1.597  14.654  0.00  0.00    +0.000 C 
ATOM     35  C54 UNK     0      56.820   0.235  14.524  0.00  0.00    +0.000 C 
ATOM     36  N55 UNK     0      57.658  -0.859  14.626  0.00  0.00    +0.000 N 
ATOM     37  O56 UNK     0      57.321   2.215  11.898  0.00  0.00    +0.000 OA
ATOM     38  O60 UNK     0      55.602   0.147  14.397  0.00  0.00    +0.000 OA
ATOM     39  C61 UNK     0      57.227  -2.247  14.399  0.00  0.00    +0.000 C 
ATOM     40  C65 UNK     0      57.155  -2.469  12.859  0.00  0.00    +0.000 C 
ATOM     41  N66 UNK     0      58.349  -2.340  12.122  0.00  0.00    +0.000 N 
ATOM     42  C67 UNK     0      58.228  -2.470  10.640  0.00  0.00    +0.000 C 
ATOM     43  C68 UNK     0      59.650  -2.667  12.707  0.00  0.00    +0.000 C 
ATOM     44  O69 UNK     0      56.100  -2.770  12.290  0.00  0.00    +0.000 OA
ATOM     45  C70 UNK     0      58.285  -3.980  10.306  0.00  0.00    +0.000 C 
ATOM     46  N71 UNK     0      57.066  -4.622  10.427  0.00  0.00    +0.000 N 
ATOM     47  O72 UNK     0      59.332  -4.577  10.067  0.00  0.00    +0.000 OA
ATOM     48  C73 UNK     0      57.006  -6.085  10.455  0.00  0.00    +0.000 C 
ATOM     49  C74 UNK     0      55.665  -6.537  11.026  0.00  0.00    +0.000 C 
ATOM     50  C77 UNK     0      56.147   5.759  13.450  0.00  0.00    +0.000 C 
ATOM     51  C78 UNK     0      58.056  -6.275   6.015  0.00  0.00    +0.000 C 
ATOM     52  H2  UNK     0      56.418  -4.982   8.239  0.00  0.00    +0.000 HD
ATOM     53  H58 UNK     0      52.401   3.074  11.805  0.00  0.00    +0.000 HD
ATOM     54  H69 UNK     0      55.907   2.976  14.594  0.00  0.00    +0.000 HD
ATOM     55  H71 UNK     0      58.636  -0.669  14.460  0.00  0.00    +0.000 HD
ATOM     56  H90 UNK     0      56.364  -4.109  10.965  0.00  0.00    +0.000 HD
ENDROOT
BRANCH  39  57
ATOM     57  C62 UNK     0      55.948  -2.685  15.161  0.00  0.00    +0.000 C 
ATOM     58  C63 UNK     0      55.679  -4.185  14.958  0.00  0.00    +0.000 C 
ATOM     59  C64 UNK     0      56.065  -2.423  16.670  0.00  0.00    +0.000 C 
ENDBRANCH  39  57
BRANCH  19  60
ATOM     60  C25 UNK     0      51.509   0.638  10.078  0.00  0.00    +0.000 C 
ATOM     61  C30 UNK     0      52.917   1.240  10.072  0.00  0.00    +0.000 C 
ATOM     62  C31 UNK     0      50.922   0.656  11.491  0.00  0.00    +0.000 C 
ENDBRANCH  19  60
BRANCH  20  63
ATOM     63  O27 UNK     0      51.816   3.133   8.115  0.00  0.00    +0.000 OA
ATOM     64  H34 UNK     0      51.602   2.897   7.188  0.00  0.00    +0.000 HD
ENDBRANCH  20  63
BRANCH  27  65
ATOM     65  C45 UNK     0      52.900   2.442  14.241  0.00  0.00    +0.000 C 
ATOM     66  C46 UNK     0      53.445   2.360  15.661  0.00  0.00    +0.000 C 
ENDBRANCH  27  65
BRANCH  23  67
ATOM     67  C34 UNK     0      50.832   5.973   9.531  0.00  0.00    +0.000 C 
BRANCH  67  68
ATOM     68  C35 UNK     0      51.847   7.151   9.397  0.00  0.00    +0.000 C 
ATOM     69  C41 UNK     0      51.203   8.529   9.219  0.00  0.00    +0.000 C 
BRANCH  68  70
ATOM     70  C36 UNK     0      52.827   6.855   8.230  0.00  0.00    +0.000 C 
BRANCH  70  71
ATOM     71  C37 UNK     0      52.745   7.852   7.105  0.00  0.00    +0.000 C 
ATOM     72  C38 UNK     0      52.389   7.538   5.850  0.00  0.00    +0.000 C 
ATOM     73  C39 UNK     0      52.315   8.522   4.730  0.00  0.00    +0.000 C 
ENDBRANCH  70  71
ENDBRANCH  68  70
ENDBRANCH  67  68
BRANCH  67  74
ATOM     74  O40 UNK     0      50.444   5.631   8.181  0.00  0.00    +0.000 OA
ATOM     75  H54 UNK     0      50.220   6.482   7.751  0.00  0.00    +0.000 HD
ENDBRANCH  67  74
ENDBRANCH  23  67
BRANCH  34  76
ATOM     76  C57 UNK     0      57.826   1.954  16.124  0.00  0.00    +0.000 C 
BRANCH  76  77
ATOM     77  C58 UNK     0      57.111   3.203  16.676  0.00  0.00    +0.000 C 
ATOM     78  C59 UNK     0      56.321   2.912  17.952  0.00  0.00    +0.000 C 
ATOM     79  C76 UNK     0      58.143   4.304  16.951  0.00  0.00    +0.000 C 
ENDBRANCH  76  77
ENDBRANCH  34  76
BRANCH  12  80
ATOM     80  C21 UNK     0      53.094  -0.328   5.971  0.00  0.00    +0.000 C 
BRANCH  80  81
ATOM     81  C82 UNK     0      54.586  -0.115   6.294  0.00  0.00    +0.000 C 
ATOM     82  C83 UNK     0      55.504  -0.647   5.195  0.00  0.00    +0.000 C 
ATOM     83  C84 UNK     0      54.928  -0.799   7.622  0.00  0.00    +0.000 C 
ENDBRANCH  80  81
ENDBRANCH  12  80
BRANCH  42  84
ATOM     84  C75 UNK     0      59.305  -1.653   9.896  0.00  0.00    +0.000 C 
BRANCH  84  85
ATOM     85  C79 UNK     0      58.758  -0.720   8.797  0.00  0.00    +0.000 C 
ATOM     86  C80 UNK     0      57.573   0.125   9.263  0.00  0.00    +0.000 C 
ATOM     87  C81 UNK     0      58.341  -1.551   7.579  0.00  0.00    +0.000 C 
ENDBRANCH  84  85
ENDBRANCH  42  84
BRANCH   9  88
ATOM     88  C15 UNK     0      51.719  -5.947   5.433  0.00  0.00    +0.000 C 
BRANCH  88  89
ATOM     89  C16 UNK     0      51.550  -6.265   3.928  0.00  0.00    +0.000 C 
ATOM     90  C17 UNK     0      51.946  -7.695   3.569  0.00  0.00    +0.000 C 
ATOM     91  C18 UNK     0      50.100  -6.012   3.506  0.00  0.00    +0.000 C 
ENDBRANCH  88  89
ENDBRANCH   9  88
TORSDOF 17
ENDMDL
MODEL 2
REMARK VINA RESULT:      -5.7      2.331     10.102
REMARK  Name = CyclosporineA.pdb
REMARK  40 active torsions:
REMARK  status: ('A' for Active; 'I' for Inactive)
REMARK    1  A    between atoms: C1_1  and  C78_78
REMARK    2  A    between atoms: N7_7  and  C8_8
REMARK    3  A    between atoms: C9_9  and  C15_15
REMARK    4  A    between atoms: N11_11  and  C20_20
REMARK    5  A    between atoms: C12_12  and  C21_21
REMARK    6  A    between atoms: N14_14  and  C23_23
REMARK    7  A    between atoms: C15_15  and  C16_16
REMARK    8  A    between atoms: C16_16  and  C17_17
REMARK    9  A    between atoms: C16_16  and  C18_18
REMARK   10  A    between atoms: C21_21  and  C82_82
REMARK   11  A    between atoms: C24_24  and  C25_25
REMARK   12  A    between atoms: C25_25  and  C30_30
REMARK   13  A    between atoms: C25_25  and  C31_31
REMARK   14  A    between atoms: C26_26  and  O27_27
REMARK   15  A    between atoms: N28_28  and  C29_29
REMARK   16  A    between atoms: C32_32  and  C34_34
REMARK   17  A    between atoms: C34_34  and  C35_35
REMARK   18  A    between atoms: C34_34  and  O40_40
REMARK   19  A    between atoms: C35_35  and  C36_36
REMARK   20  A    between atoms: C35_35  and  C41_41
REMARK   21  A    between atoms: C36_36  and  C37_37
REMARK   22  A    between atoms: C38_38  and  C39_39
REMARK   23  A    between atoms: C44_44  and  C45_45
REMARK   24  A    between atoms: C45_45  and  C46_46
REMARK   25  A    between atoms: N49_49  and  C77_77
REMARK   26  A    between atoms: C53_53  and  C57_57
REMARK   27  A    between atoms: C57_57  and  C58_58
REMARK   28  A    between atoms: C58_58  and  C59_59
REMARK   29  A    between atoms: C58_58  and  C76_76
REMARK   30  A    between atoms: C61_61  and  C62_62
REMARK   31  A    between atoms: C62_62  and  C63_63
REMARK   32  A    between atoms: C62_62  and  C64_64
REMARK   33  A    between atoms: N66_66  and  C68_68
REMARK   34  A    between atoms: C67_67  and  C75_75
REMARK   35  A    between atoms: C73_73  and  C74_74
REMARK   36  A    between atoms: C75_75  and  C79_79
REMARK   37  A    between atoms: C79_79  and  C80_80
REMARK   38  A    between atoms: C79_79  and  C81_81
REMARK   39  A    between atoms: C82_82  and  C83_83
REMARK   40  A    between atoms: C82_82  and  C84_84
REMARK                            x       y       z     vdW  Elec       q    Type
REMARK                         _______ _______ _______ _____ _____    ______ ____
ROOT
ATOM      1  C1  UNK     0      52.061   6.837  12.197  0.00  0.00    +0.000 C 
ATOM      2  C2  UNK     0      51.629   6.100  10.899  0.00  0.00    +0.000 C 
ATOM      3  N3  UNK     0      53.223   6.120  12.698  0.00  0.00    +0.000 N 
ATOM      4  C4  UNK     0      54.190   6.699  13.486  0.00  0.00    +0.000 C 
ATOM      5  O5  UNK     0      54.200   7.898  13.758  0.00  0.00    +0.000 OA
ATOM      6  C6  UNK     0      50.560   5.279  10.949  0.00  0.00    +0.000 C 
ATOM      7  N7  UNK     0      52.407   6.300   9.715  0.00  0.00    +0.000 N 
ATOM      8  C8  UNK     0      53.520   7.268   9.693  0.00  0.00    +0.000 C 
ATOM      9  C9  UNK     0      52.164   5.534   8.438  0.00  0.00    +0.000 C 
ATOM     10  C10 UNK     0      52.886   4.140   8.468  0.00  0.00    +0.000 C 
ATOM     11  N11 UNK     0      52.260   3.027   7.823  0.00  0.00    +0.000 N 
ATOM     12  C12 UNK     0      52.553   1.604   8.194  0.00  0.00    +0.000 C 
ATOM     13  C13 UNK     0      53.367   0.882   7.069  0.00  0.00    +0.000 C 
ATOM     14  N14 UNK     0      53.244  -0.530   6.975  0.00  0.00    +0.000 N 
ATOM     15  C19 UNK     0      54.065   4.013   9.112  0.00  0.00    +0.000 C 
ATOM     16  C20 UNK     0      51.204   3.199   6.816  0.00  0.00    +0.000 C 
ATOM     17  C22 UNK     0      54.110   1.565   6.176  0.00  0.00    +0.000 C 
ATOM     18  C23 UNK     0      52.429  -0.954   5.796  0.00  0.00    +0.000 C 
ATOM     19  C24 UNK     0      54.472  -1.426   7.185  0.00  0.00    +0.000 C 
ATOM     20  C26 UNK     0      54.008  -2.960   7.227  0.00  0.00    +0.000 C 
ATOM     21  N28 UNK     0      55.069  -3.894   7.608  0.00  0.00    +0.000 NA
ATOM     22  C29 UNK     0      55.894  -4.251   6.449  0.00  0.00    +0.000 C 
ATOM     23  C32 UNK     0      54.624  -5.097   8.386  0.00  0.00    +0.000 C 
ATOM     24  C33 UNK     0      55.900  -5.636   9.091  0.00  0.00    +0.000 C 
ATOM     25  O42 UNK     0      56.408  -6.728   8.862  0.00  0.00    +0.000 OA
ATOM     26  N43 UNK     0      56.418  -4.710   9.978  0.00  0.00    +0.000 N 
ATOM     27  C44 UNK     0      57.603  -4.947  10.776  0.00  0.00    +0.000 C 
ATOM     28  C47 UNK     0      57.230  -5.851  11.978  0.00  0.00    +0.000 C 
ATOM     29  C48 UNK     0      57.897  -7.021  12.053  0.00  0.00    +0.000 C 
ATOM     30  N49 UNK     0      56.245  -5.490  12.935  0.00  0.00    +0.000 N 
ATOM     31  C50 UNK     0      55.388  -4.272  12.888  0.00  0.00    +0.000 C 
ATOM     32  C51 UNK     0      55.604  -3.378  14.123  0.00  0.00    +0.000 C 
ATOM     33  N52 UNK     0      56.858  -3.500  14.683  0.00  0.00    +0.000 N 
ATOM     34  C53 UNK     0      57.352  -2.561  15.680  0.00  0.00    +0.000 C 
ATOM     35  C54 UNK     0      57.775  -1.258  14.953  0.00  0.00    +0.000 C 
ATOM     36  N55 UNK     0      57.840  -0.153  15.781  0.00  0.00    +0.000 N 
ATOM     37  O56 UNK     0      54.756  -2.595  14.543  0.00  0.00    +0.000 OA
ATOM     38  O60 UNK     0      58.074  -1.232  13.763  0.00  0.00    +0.000 OA
ATOM     39  C61 UNK     0      58.082   1.217  15.304  0.00  0.00    +0.000 C 
ATOM     40  C65 UNK     0      56.740   1.755  14.723  0.00  0.00    +0.000 C 
ATOM     41  N66 UNK     0      55.646   1.871  15.603  0.00  0.00    +0.000 N 
ATOM     42  C67 UNK     0      54.352   2.302  14.995  0.00  0.00    +0.000 C 
ATOM     43  C68 UNK     0      55.833   2.157  17.026  0.00  0.00    +0.000 C 
ATOM     44  O69 UNK     0      56.629   2.094  13.540  0.00  0.00    +0.000 OA
ATOM     45  C70 UNK     0      54.365   3.849  14.944  0.00  0.00    +0.000 C 
ATOM     46  N71 UNK     0      55.016   4.362  13.837  0.00  0.00    +0.000 N 
ATOM     47  O72 UNK     0      53.938   4.556  15.853  0.00  0.00    +0.000 OA
ATOM     48  C73 UNK     0      55.389   5.778  13.794  0.00  0.00    +0.000 C 
ATOM     49  C74 UNK     0      56.451   6.002  12.722  0.00  0.00    +0.000 C 
ATOM     50  C77 UNK     0      55.771  -6.462  13.940  0.00  0.00    +0.000 C 
ATOM     51  C78 UNK     0      51.011   6.980  13.306  0.00  0.00    +0.000 C 
ATOM     52  H2  UNK     0      53.298   5.131  12.498  0.00  0.00    +0.000 HD
ATOM     53  H58 UNK     0      56.081  -3.763   9.870  0.00  0.00    +0.000 HD
ATOM     54  H69 UNK     0      57.523  -4.009  14.105  0.00  0.00    +0.000 HD
ATOM     55  H71 UNK     0      57.327  -0.234  16.647  0.00  0.00    +0.000 HD
ATOM     56  H90 UNK     0      55.625   3.698  13.353  0.00  0.00    +0.000 HD
ENDROOT
BRANCH  39  57
ATOM     57  C62 UNK     0      59.297   1.391  14.354  0.00  0.00    +0.000 C 
ATOM     58  C63 UNK     0      59.547   2.879  14.057  0.00  0.00    +0.000 C 
ATOM     59  C64 UNK     0      60.581   0.803  14.956  0.00  0.00    +0.000 C 
ENDBRANCH  39  57
BRANCH  19  60
ATOM     60  C25 UNK     0      55.329  -1.086   8.462  0.00  0.00    +0.000 C 
ATOM     61  C30 UNK     0      56.361   0.028   8.266  0.00  0.00    +0.000 C 
ATOM     62  C31 UNK     0      54.538  -0.867   9.754  0.00  0.00    +0.000 C 
ENDBRANCH  19  60
BRANCH  20  63
ATOM     63  O27 UNK     0      52.868  -3.080   8.088  0.00  0.00    +0.000 OA
ATOM     64  H34 UNK     0      52.106  -2.879   7.506  0.00  0.00    +0.000 HD
ENDBRANCH  20  63
BRANCH  27  65
ATOM     65  C45 UNK     0      58.298  -3.628  11.155  0.00  0.00    +0.000 C 
ATOM     66  C46 UNK     0      58.339  -2.619  10.015  0.00  0.00    +0.000 C 
ENDBRANCH  27  65
BRANCH  23  67
ATOM     67  C34 UNK     0      53.854  -6.218   7.622  0.00  0.00    +0.000 C 
BRANCH  67  68
ATOM     68  C35 UNK     0      53.322  -7.383   8.515  0.00  0.00    +0.000 C 
ATOM     69  C41 UNK     0      52.428  -8.388   7.784  0.00  0.00    +0.000 C 
BRANCH  68  70
ATOM     70  C36 UNK     0      52.581  -6.790   9.744  0.00  0.00    +0.000 C 
BRANCH  70  71
ATOM     71  C37 UNK     0      53.117  -7.277  11.065  0.00  0.00    +0.000 C 
ATOM     72  C38 UNK     0      52.605  -8.315  11.743  0.00  0.00    +0.000 C 
ATOM     73  C39 UNK     0      53.128  -8.795  13.057  0.00  0.00    +0.000 C 
ENDBRANCH  70  71
ENDBRANCH  68  70
ENDBRANCH  67  68
BRANCH  67  74
ATOM     74  O40 UNK     0      52.691  -5.654   6.975  0.00  0.00    +0.000 OA
ATOM     75  H54 UNK     0      51.958  -5.765   7.615  0.00  0.00    +0.000 HD
ENDBRANCH  67  74
ENDBRANCH  23  67
BRANCH  34  76
ATOM     76  C57 UNK     0      58.532  -3.201  16.428  0.00  0.00    +0.000 C 
BRANCH  76  77
ATOM     77  C58 UNK     0      58.277  -3.615  17.891  0.00  0.00    +0.000 C 
ATOM     78  C59 UNK     0      57.113  -2.851  18.524  0.00  0.00    +0.000 C 
ATOM     79  C76 UNK     0      57.995  -5.121  17.955  0.00  0.00    +0.000 C 
ENDBRANCH  76  77
ENDBRANCH  34  76
BRANCH  12  80
ATOM     80  C21 UNK     0      51.256   0.839   8.591  0.00  0.00    +0.000 C 
BRANCH  80  81
ATOM     81  C82 UNK     0      50.886   0.888  10.087  0.00  0.00    +0.000 C 
ATOM     82  C83 UNK     0      49.619   1.700  10.349  0.00  0.00    +0.000 C 
ATOM     83  C84 UNK     0      52.050   1.481  10.887  0.00  0.00    +0.000 C 
ENDBRANCH  80  81
ENDBRANCH  12  80
BRANCH  42  84
ATOM     84  C75 UNK     0      53.136   1.740  15.760  0.00  0.00    +0.000 C 
BRANCH  84  85
ATOM     85  C79 UNK     0      52.317   0.691  14.980  0.00  0.00    +0.000 C 
ATOM     86  C80 UNK     0      53.158  -0.107  13.985  0.00  0.00    +0.000 C 
ATOM     87  C81 UNK     0      51.170   1.384  14.237  0.00  0.00    +0.000 C 
ENDBRANCH  84  85
ENDBRANCH  42  84
BRANCH   9  88
ATOM     88  C15 UNK     0      52.467   6.332   7.136  0.00  0.00    +0.000 C 
BRANCH  88  89
ATOM     89  C16 UNK     0      51.215   6.974   6.493  0.00  0.00    +0.000 C 
ATOM     90  C17 UNK     0      50.173   7.415   7.518  0.00  0.00    +0.000 C 
ATOM     91  C18 UNK     0      51.631   8.173   5.635  0.00  0.00    +0.000 C 
ENDBRANCH  88  89
ENDBRANCH   9  88
TORSDOF 17
ENDMDL
MODEL 3
REMARK VINA RESULT:      -5.4      4.045     10.831
REMARK  Name = CyclosporineA.pdb
REMARK  40 active torsions:
REMARK  status: ('A' for Active; 'I' for Inactive)
REMARK    1  A    between atoms: C1_1  and  C78_78
REMARK    2  A    between atoms: N7_7  and  C8_8
REMARK    3  A    between atoms: C9_9  and  C15_15
REMARK    4  A    between atoms: N11_11  and  C20_20
REMARK    5  A    between atoms: C12_12  and  C21_21
REMARK    6  A    between atoms: N14_14  and  C23_23
REMARK    7  A    between atoms: C15_15  and  C16_16
REMARK    8  A    between atoms: C16_16  and  C17_17
REMARK    9  A    between atoms: C16_16  and  C18_18
REMARK   10  A    between atoms: C21_21  and  C82_82
REMARK   11  A    between atoms: C24_24  and  C25_25
REMARK   12  A    between atoms: C25_25  and  C30_30
REMARK   13  A    between atoms: C25_25  and  C31_31
REMARK   14  A    between atoms: C26_26  and  O27_27
REMARK   15  A    between atoms: N28_28  and  C29_29
REMARK   16  A    between atoms: C32_32  and  C34_34
REMARK   17  A    between atoms: C34_34  and  C35_35
REMARK   18  A    between atoms: C34_34  and  O40_40
REMARK   19  A    between atoms: C35_35  and  C36_36
REMARK   20  A    between atoms: C35_35  and  C41_41
REMARK   21  A    between atoms: C36_36  and  C37_37
REMARK   22  A    between atoms: C38_38  and  C39_39
REMARK   23  A    between atoms: C44_44  and  C45_45
REMARK   24  A    between atoms: C45_45  and  C46_46
REMARK   25  A    between atoms: N49_49  and  C77_77
REMARK   26  A    between atoms: C53_53  and  C57_57
REMARK   27  A    between atoms: C57_57  and  C58_58
REMARK   28  A    between atoms: C58_58  and  C59_59
REMARK   29  A    between atoms: C58_58  and  C76_76
REMARK   30  A    between atoms: C61_61  and  C62_62
REMARK   31  A    between atoms: C62_62  and  C63_63
REMARK   32  A    between atoms: C62_62  and  C64_64
REMARK   33  A    between atoms: N66_66  and  C68_68
REMARK   34  A    between atoms: C67_67  and  C75_75
REMARK   35  A    between atoms: C73_73  and  C74_74
REMARK   36  A    between atoms: C75_75  and  C79_79
REMARK   37  A    between atoms: C79_79  and  C80_80
REMARK   38  A    between atoms: C79_79  and  C81_81
REMARK   39  A    between atoms: C82_82  and  C83_83
REMARK   40  A    between atoms: C82_82  and  C84_84
REMARK                            x       y       z     vdW  Elec       q    Type
REMARK                         _______ _______ _______ _____ _____    ______ ____
ROOT
ATOM      1  C1  UNK     0      58.783   5.192  14.931  0.00  0.00    +0.000 C 
ATOM      2  C2  UNK     0      57.491   4.369  15.188  0.00  0.00    +0.000 C 
ATOM      3  N3  UNK     0      58.683   5.684  13.566  0.00  0.00    +0.000 N 
ATOM      4  C4  UNK     0      59.313   6.821  13.121  0.00  0.00    +0.000 C 
ATOM      5  O5  UNK     0      59.945   7.569  13.864  0.00  0.00    +0.000 OA
ATOM      6  C6  UNK     0      57.567   3.023  15.159  0.00  0.00    +0.000 C 
ATOM      7  N7  UNK     0      56.269   5.078  15.412  0.00  0.00    +0.000 N 
ATOM      8  C8  UNK     0      56.253   6.550  15.512  0.00  0.00    +0.000 C 
ATOM      9  C9  UNK     0      54.933   4.387  15.536  0.00  0.00    +0.000 C 
ATOM     10  C10 UNK     0      54.309   4.104  14.123  0.00  0.00    +0.000 C 
ATOM     11  N11 UNK     0      53.540   2.914  13.937  0.00  0.00    +0.000 N 
ATOM     12  C12 UNK     0      53.333   2.283  12.592  0.00  0.00    +0.000 C 
ATOM     13  C13 UNK     0      51.856   2.457  12.106  0.00  0.00    +0.000 C 
ATOM     14  N14 UNK     0      51.348   1.493  11.194  0.00  0.00    +0.000 N 
ATOM     15  C19 UNK     0      54.523   4.974  13.114  0.00  0.00    +0.000 C 
ATOM     16  C20 UNK     0      52.978   2.160  15.067  0.00  0.00    +0.000 C 
ATOM     17  C22 UNK     0      51.063   3.441  12.573  0.00  0.00    +0.000 C 
ATOM     18  C23 UNK     0      50.371   0.562  11.836  0.00  0.00    +0.000 C 
ATOM     19  C24 UNK     0      50.907   1.921   9.788  0.00  0.00    +0.000 C 
ATOM     20  C26 UNK     0      50.577   0.615   8.917  0.00  0.00    +0.000 C 
ATOM     21  N28 UNK     0      50.325   0.891   7.501  0.00  0.00    +0.000 NA
ATOM     22  C29 UNK     0      48.932   1.296   7.287  0.00  0.00    +0.000 C 
ATOM     23  C32 UNK     0      50.763  -0.179   6.545  0.00  0.00    +0.000 C 
ATOM     24  C33 UNK     0      50.871   0.516   5.160  0.00  0.00    +0.000 C 
ATOM     25  O42 UNK     0      50.170   0.243   4.192  0.00  0.00    +0.000 OA
ATOM     26  N43 UNK     0      51.829   1.513   5.167  0.00  0.00    +0.000 N 
ATOM     27  C44 UNK     0      52.146   2.323   4.009  0.00  0.00    +0.000 C 
ATOM     28  C47 UNK     0      53.044   1.504   3.049  0.00  0.00    +0.000 C 
ATOM     29  C48 UNK     0      52.548   1.316   1.808  0.00  0.00    +0.000 C 
ATOM     30  N49 UNK     0      54.300   0.969   3.440  0.00  0.00    +0.000 N 
ATOM     31  C50 UNK     0      54.889   1.036   4.806  0.00  0.00    +0.000 C 
ATOM     32  C51 UNK     0      56.236   1.784   4.807  0.00  0.00    +0.000 C 
ATOM     33  N52 UNK     0      56.355   2.713   3.796  0.00  0.00    +0.000 N 
ATOM     34  C53 UNK     0      57.423   3.701   3.779  0.00  0.00    +0.000 C 
ATOM     35  C54 UNK     0      57.070   4.816   4.798  0.00  0.00    +0.000 C 
ATOM     36  N55 UNK     0      58.158   5.564   5.207  0.00  0.00    +0.000 N 
ATOM     37  O56 UNK     0      57.105   1.603   5.657  0.00  0.00    +0.000 OA
ATOM     38  O60 UNK     0      55.918   5.041   5.160  0.00  0.00    +0.000 OA
ATOM     39  C61 UNK     0      58.103   6.583   6.266  0.00  0.00    +0.000 C 
ATOM     40  C65 UNK     0      58.124   5.839   7.634  0.00  0.00    +0.000 C 
ATOM     41  N66 UNK     0      59.262   5.065   7.941  0.00  0.00    +0.000 N 
ATOM     42  C67 UNK     0      59.211   4.293   9.217  0.00  0.00    +0.000 C 
ATOM     43  C68 UNK     0      60.589   5.422   7.439  0.00  0.00    +0.000 C 
ATOM     44  O69 UNK     0      57.195   5.930   8.443  0.00  0.00    +0.000 OA
ATOM     45  C70 UNK     0      59.661   5.249  10.348  0.00  0.00    +0.000 C 
ATOM     46  N71 UNK     0      58.645   6.052  10.834  0.00  0.00    +0.000 N 
ATOM     47  O72 UNK     0      60.831   5.366  10.704  0.00  0.00    +0.000 OA
ATOM     48  C73 UNK     0      58.962   7.212  11.670  0.00  0.00    +0.000 C 
ATOM     49  C74 UNK     0      57.769   8.163  11.708  0.00  0.00    +0.000 C 
ATOM     50  C77 UNK     0      55.027   0.023   2.569  0.00  0.00    +0.000 C 
ATOM     51  C78 UNK     0      60.124   4.476  15.136  0.00  0.00    +0.000 C 
ATOM     52  H2  UNK     0      58.160   5.132  12.897  0.00  0.00    +0.000 HD
ATOM     53  H58 UNK     0      52.133   1.824   6.080  0.00  0.00    +0.000 HD
ATOM     54  H69 UNK     0      55.483   2.913   3.312  0.00  0.00    +0.000 HD
ATOM     55  H71 UNK     0      59.058   5.130   5.060  0.00  0.00    +0.000 HD
ATOM     56  H90 UNK     0      57.824   6.114  10.229  0.00  0.00    +0.000 HD
ENDROOT
BRANCH  39  57
ATOM     57  C62 UNK     0      56.963   7.628   6.133  0.00  0.00    +0.000 C 
ATOM     58  C63 UNK     0      57.102   8.725   7.200  0.00  0.00    +0.000 C 
ATOM     59  C64 UNK     0      56.965   8.302   4.754  0.00  0.00    +0.000 C 
ENDBRANCH  39  57
BRANCH  19  60
ATOM     60  C25 UNK     0      51.933   2.836   9.021  0.00  0.00    +0.000 C 
ATOM     61  C30 UNK     0      51.804   4.333   9.315  0.00  0.00    +0.000 C 
ATOM     62  C31 UNK     0      53.398   2.398   9.095  0.00  0.00    +0.000 C 
ENDBRANCH  19  60
BRANCH  20  63
ATOM     63  O27 UNK     0      51.634  -0.339   9.086  0.00  0.00    +0.000 OA
ATOM     64  H34 UNK     0      51.239  -1.187   8.796  0.00  0.00    +0.000 HD
ENDBRANCH  20  63
BRANCH  27  65
ATOM     65  C45 UNK     0      52.723   3.689   4.420  0.00  0.00    +0.000 C 
ATOM     66  C46 UNK     0      51.941   4.361   5.540  0.00  0.00    +0.000 C 
ENDBRANCH  27  65
BRANCH  23  67
ATOM     67  C34 UNK     0      49.923  -1.492   6.482  0.00  0.00    +0.000 C 
BRANCH  67  68
ATOM     68  C35 UNK     0      50.565  -2.649   5.655  0.00  0.00    +0.000 C 
ATOM     69  C41 UNK     0      50.128  -4.054   6.080  0.00  0.00    +0.000 C 
BRANCH  68  70
ATOM     70  C36 UNK     0      52.111  -2.522   5.707  0.00  0.00    +0.000 C 
BRANCH  70  71
ATOM     71  C37 UNK     0      52.769  -2.592   4.354  0.00  0.00    +0.000 C 
ATOM     72  C38 UNK     0      52.097  -2.579   3.193  0.00  0.00    +0.000 C 
ATOM     73  C39 UNK     0      52.745  -2.658   1.851  0.00  0.00    +0.000 C 
ENDBRANCH  70  71
ENDBRANCH  68  70
ENDBRANCH  67  68
BRANCH  67  74
ATOM     74  O40 UNK     0      49.740  -2.016   7.817  0.00  0.00    +0.000 OA
ATOM     75  H54 UNK     0      50.129  -1.346   8.416  0.00  0.00    +0.000 HD
ENDBRANCH  67  74
ENDBRANCH  23  67
BRANCH  34  76
ATOM     76  C57 UNK     0      57.566   4.261   2.354  0.00  0.00    +0.000 C 
BRANCH  76  77
ATOM     77  C58 UNK     0      59.001   4.413   1.814  0.00  0.00    +0.000 C 
ATOM     78  C59 UNK     0      59.472   5.868   1.797  0.00  0.00    +0.000 C 
ATOM     79  C76 UNK     0      59.961   3.574   2.668  0.00  0.00    +0.000 C 
ENDBRANCH  76  77
ENDBRANCH  34  76
BRANCH  12  80
ATOM     80  C21 UNK     0      53.805   0.799  12.580  0.00  0.00    +0.000 C 
BRANCH  80  81
ATOM     81  C82 UNK     0      55.228   0.556  12.038  0.00  0.00    +0.000 C 
ATOM     82  C83 UNK     0      55.925   1.852  11.627  0.00  0.00    +0.000 C 
ATOM     83  C84 UNK     0      55.166  -0.395  10.839  0.00  0.00    +0.000 C 
ENDBRANCH  80  81
ENDBRANCH  12  80
BRANCH  42  84
ATOM     84  C75 UNK     0      60.059   3.006   9.151  0.00  0.00    +0.000 C 
BRANCH  84  85
ATOM     85  C79 UNK     0      59.315   1.725   9.582  0.00  0.00    +0.000 C 
ATOM     86  C80 UNK     0      59.750   1.214  10.956  0.00  0.00    +0.000 C 
ATOM     87  C81 UNK     0      59.536   0.625   8.538  0.00  0.00    +0.000 C 
ENDBRANCH  84  85
ENDBRANCH  42  84
BRANCH   9  88
ATOM     88  C15 UNK     0      53.930   5.084  16.501  0.00  0.00    +0.000 C 
BRANCH  88  89
ATOM     89  C16 UNK     0      54.168   4.754  17.994  0.00  0.00    +0.000 C 
ATOM     90  C17 UNK     0      52.908   4.890  18.846  0.00  0.00    +0.000 C 
ATOM     91  C18 UNK     0      54.726   3.334  18.126  0.00  0.00    +0.000 C 
ENDBRANCH  88  89
ENDBRANCH   9  88
TORSDOF 17
ENDMDL
MODEL 4
REMARK VINA RESULT:      -5.3      1.710      2.520
REMARK  Name = CyclosporineA.pdb
REMARK  40 active torsions:
REMARK  status: ('A' for Active; 'I' for Inactive)
REMARK    1  A    between atoms: C1_1  and  C78_78
REMARK    2  A    between atoms: N7_7  and  C8_8
REMARK    3  A    between atoms: C9_9  and  C15_15
REMARK    4  A    between atoms: N11_11  and  C20_20
REMARK    5  A    between atoms: C12_12  and  C21_21
REMARK    6  A    between atoms: N14_14  and  C23_23
REMARK    7  A    between atoms: C15_15  and  C16_16
REMARK    8  A    between atoms: C16_16  and  C17_17
REMARK    9  A    between atoms: C16_16  and  C18_18
REMARK   10  A    between atoms: C21_21  and  C82_82
REMARK   11  A    between atoms: C24_24  and  C25_25
REMARK   12  A    between atoms: C25_25  and  C30_30
REMARK   13  A    between atoms: C25_25  and  C31_31
REMARK   14  A    between atoms: C26_26  and  O27_27
REMARK   15  A    between atoms: N28_28  and  C29_29
REMARK   16  A    between atoms: C32_32  and  C34_34
REMARK   17  A    between atoms: C34_34  and  C35_35
REMARK   18  A    between atoms: C34_34  and  O40_40
REMARK   19  A    between atoms: C35_35  and  C36_36
REMARK   20  A    between atoms: C35_35  and  C41_41
REMARK   21  A    between atoms: C36_36  and  C37_37
REMARK   22  A    between atoms: C38_38  and  C39_39
REMARK   23  A    between atoms: C44_44  and  C45_45
REMARK   24  A    between atoms: C45_45  and  C46_46
REMARK   25  A    between atoms: N49_49  and  C77_77
REMARK   26  A    between atoms: C53_53  and  C57_57
REMARK   27  A    between atoms: C57_57  and  C58_58
REMARK   28  A    between atoms: C58_58  and  C59_59
REMARK   29  A    between atoms: C58_58  and  C76_76
REMARK   30  A    between atoms: C61_61  and  C62_62
REMARK   31  A    between atoms: C62_62  and  C63_63
REMARK   32  A    between atoms: C62_62  and  C64_64
REMARK   33  A    between atoms: N66_66  and  C68_68
REMARK   34  A    between atoms: C67_67  and  C75_75
REMARK   35  A    between atoms: C73_73  and  C74_74
REMARK   36  A    between atoms: C75_75  and  C79_79
REMARK   37  A    between atoms: C79_79  and  C80_80
REMARK   38  A    between atoms: C79_79  and  C81_81
REMARK   39  A    between atoms: C82_82  and  C83_83
REMARK   40  A    between atoms: C82_82  and  C84_84
REMARK                            x       y       z     vdW  Elec       q    Type
REMARK                         _______ _______ _______ _____ _____    ______ ____
ROOT
ATOM      1  C1  UNK     0      55.248  -6.370   6.574  0.00  0.00    +0.000 C 
ATOM      2  C2  UNK     0      54.481  -5.117   6.068  0.00  0.00    +0.000 C 
ATOM      3  N3  UNK     0      55.289  -6.259   8.023  0.00  0.00    +0.000 N 
ATOM      4  C4  UNK     0      55.400  -7.340   8.864  0.00  0.00    +0.000 C 
ATOM      5  O5  UNK     0      55.384  -8.502   8.464  0.00  0.00    +0.000 OA
ATOM      6  C6  UNK     0      55.189  -4.099   5.536  0.00  0.00    +0.000 C 
ATOM      7  N7  UNK     0      53.059  -5.085   6.219  0.00  0.00    +0.000 N 
ATOM      8  C8  UNK     0      52.325  -6.256   6.735  0.00  0.00    +0.000 C 
ATOM      9  C9  UNK     0      52.229  -3.869   5.891  0.00  0.00    +0.000 C 
ATOM     10  C10 UNK     0      52.206  -2.858   7.093  0.00  0.00    +0.000 C 
ATOM     11  N11 UNK     0      52.170  -1.457   6.811  0.00  0.00    +0.000 N 
ATOM     12  C12 UNK     0      52.645  -0.420   7.786  0.00  0.00    +0.000 C 
ATOM     13  C13 UNK     0      51.447   0.394   8.376  0.00  0.00    +0.000 C 
ATOM     14  N14 UNK     0      51.713   1.713   8.835  0.00  0.00    +0.000 N 
ATOM     15  C19 UNK     0      52.240  -3.325   8.358  0.00  0.00    +0.000 C 
ATOM     16  C20 UNK     0      51.756  -0.932   5.502  0.00  0.00    +0.000 C 
ATOM     17  C22 UNK     0      50.192  -0.098   8.398  0.00  0.00    +0.000 C 
ATOM     18  C23 UNK     0      51.162   2.756   7.918  0.00  0.00    +0.000 C 
ATOM     19  C24 UNK     0      51.508   2.069  10.313  0.00  0.00    +0.000 C 
ATOM     20  C26 UNK     0      52.075   3.545  10.584  0.00  0.00    +0.000 C 
ATOM     21  N28 UNK     0      52.103   3.922  11.999  0.00  0.00    +0.000 NA
ATOM     22  C29 UNK     0      50.795   4.423  12.434  0.00  0.00    +0.000 C 
ATOM     23  C32 UNK     0      53.226   4.828  12.406  0.00  0.00    +0.000 C 
ATOM     24  C33 UNK     0      53.353   4.675  13.946  0.00  0.00    +0.000 C 
ATOM     25  O42 UNK     0      53.144   5.576  14.751  0.00  0.00    +0.000 OA
ATOM     26  N43 UNK     0      53.687   3.381  14.301  0.00  0.00    +0.000 N 
ATOM     27  C44 UNK     0      53.874   2.953  15.672  0.00  0.00    +0.000 C 
ATOM     28  C47 UNK     0      55.268   3.419  16.161  0.00  0.00    +0.000 C 
ATOM     29  C48 UNK     0      55.264   4.231  17.238  0.00  0.00    +0.000 C 
ATOM     30  N49 UNK     0      56.475   3.035  15.520  0.00  0.00    +0.000 N 
ATOM     31  C50 UNK     0      56.582   2.225  14.274  0.00  0.00    +0.000 C 
ATOM     32  C51 UNK     0      57.363   0.919  14.511  0.00  0.00    +0.000 C 
ATOM     33  N52 UNK     0      57.289   0.457  15.808  0.00  0.00    +0.000 N 
ATOM     34  C53 UNK     0      57.726  -0.882  16.175  0.00  0.00    +0.000 C 
ATOM     35  C54 UNK     0      56.636  -1.890  15.726  0.00  0.00    +0.000 C 
ATOM     36  N55 UNK     0      57.092  -3.189  15.606  0.00  0.00    +0.000 N 
ATOM     37  O56 UNK     0      57.957   0.320  13.619  0.00  0.00    +0.000 OA
ATOM     38  O60 UNK     0      55.466  -1.563  15.549  0.00  0.00    +0.000 OA
ATOM     39  C61 UNK     0      56.288  -4.295  15.065  0.00  0.00    +0.000 C 
ATOM     40  C65 UNK     0      56.299  -4.167  13.512  0.00  0.00    +0.000 C 
ATOM     41  N66 UNK     0      57.541  -4.274  12.856  0.00  0.00    +0.000 N 
ATOM     42  C67 UNK     0      57.528  -4.056  11.379  0.00  0.00    +0.000 C 
ATOM     43  C68 UNK     0      58.622  -5.104  13.390  0.00  0.00    +0.000 C 
ATOM     44  O69 UNK     0      55.262  -4.000  12.862  0.00  0.00    +0.000 OA
ATOM     45  C70 UNK     0      57.161  -5.408  10.720  0.00  0.00    +0.000 C 
ATOM     46  N71 UNK     0      55.799  -5.645  10.662  0.00  0.00    +0.000 N 
ATOM     47  O72 UNK     0      57.997  -6.242  10.384  0.00  0.00    +0.000 OA
ATOM     48  C73 UNK     0      55.299  -6.989  10.363  0.00  0.00    +0.000 C 
ATOM     49  C74 UNK     0      53.836  -7.102  10.782  0.00  0.00    +0.000 C 
ATOM     50  C77 UNK     0      57.761   3.662  15.884  0.00  0.00    +0.000 C 
ATOM     51  C78 UNK     0      56.662  -6.598   6.023  0.00  0.00    +0.000 C 
ATOM     52  H2  UNK     0      55.284  -5.332   8.432  0.00  0.00    +0.000 HD
ATOM     53  H58 UNK     0      53.556   2.681  13.583  0.00  0.00    +0.000 HD
ATOM     54  H69 UNK     0      56.587   0.925  16.376  0.00  0.00    +0.000 HD
ATOM     55  H71 UNK     0      58.093  -3.287  15.513  0.00  0.00    +0.000 HD
ATOM     56  H90 UNK     0      55.236  -5.057  11.281  0.00  0.00    +0.000 HD
ENDROOT
BRANCH  39  57
ATOM     57  C62 UNK     0      54.870  -4.454  15.675  0.00  0.00    +0.000 C 
ATOM     58  C63 UNK     0      54.200  -5.742  15.171  0.00  0.00    +0.000 C 
ATOM     59  C64 UNK     0      54.911  -4.508  17.209  0.00  0.00    +0.000 C 
ENDBRANCH  39  57
BRANCH  19  60
ATOM     60  C25 UNK     0      52.141   1.052  11.334  0.00  0.00    +0.000 C 
ATOM     61  C30 UNK     0      53.660   1.158  11.489  0.00  0.00    +0.000 C 
ATOM     62  C31 UNK     0      51.464   0.979  12.705  0.00  0.00    +0.000 C 
ENDBRANCH  19  60
BRANCH  20  63
ATOM     63  O27 UNK     0      53.370   3.666   9.983  0.00  0.00    +0.000 OA
ATOM     64  H34 UNK     0      53.180   3.894   9.049  0.00  0.00    +0.000 HD
ENDBRANCH  20  63
BRANCH  27  65
ATOM     65  C45 UNK     0      53.607   1.446  15.831  0.00  0.00    +0.000 C 
ATOM     66  C46 UNK     0      53.291   1.037  17.263  0.00  0.00    +0.000 C 
ENDBRANCH  27  65
BRANCH  23  67
ATOM     67  C34 UNK     0      53.155   6.324  11.965  0.00  0.00    +0.000 C 
BRANCH  67  68
ATOM     68  C35 UNK     0      52.940   6.554  10.437  0.00  0.00    +0.000 C 
ATOM     69  C41 UNK     0      54.180   7.051   9.688  0.00  0.00    +0.000 C 
BRANCH  68  70
ATOM     70  C36 UNK     0      51.751   7.529  10.226  0.00  0.00    +0.000 C 
BRANCH  70  71
ATOM     71  C37 UNK     0      50.883   7.177   9.047  0.00  0.00    +0.000 C 
ATOM     72  C38 UNK     0      50.989   7.754   7.841  0.00  0.00    +0.000 C 
ATOM     73  C39 UNK     0      50.124   7.414   6.672  0.00  0.00    +0.000 C 
ENDBRANCH  70  71
ENDBRANCH  68  70
ENDBRANCH  67  68
BRANCH  67  74
ATOM     74  O40 UNK     0      52.042   6.971  12.622  0.00  0.00    +0.000 OA
ATOM     75  H54 UNK     0      51.984   7.862  12.220  0.00  0.00    +0.000 HD
ENDBRANCH  67  74
ENDBRANCH  23  67
BRANCH  34  76
ATOM     76  C57 UNK     0      57.955  -0.935  17.694  0.00  0.00    +0.000 C 
BRANCH  76  77
ATOM     77  C58 UNK     0      56.717  -1.222  18.567  0.00  0.00    +0.000 C 
ATOM     78  C59 UNK     0      56.957  -2.349  19.573  0.00  0.00    +0.000 C 
ATOM     79  C76 UNK     0      56.310   0.053  19.314  0.00  0.00    +0.000 C 
ENDBRANCH  76  77
ENDBRANCH  34  76
BRANCH  12  80
ATOM     80  C21 UNK     0      53.746   0.487   7.161  0.00  0.00    +0.000 C 
BRANCH  80  81
ATOM     81  C82 UNK     0      55.179   0.248   7.677  0.00  0.00    +0.000 C 
ATOM     82  C83 UNK     0      55.258  -0.915   8.664  0.00  0.00    +0.000 C 
ATOM     83  C84 UNK     0      55.705   1.523   8.344  0.00  0.00    +0.000 C 
ENDBRANCH  80  81
ENDBRANCH  12  80
BRANCH  42  84
ATOM     84  C75 UNK     0      58.867  -3.487  10.865  0.00  0.00    +0.000 C 
BRANCH  84  85
ATOM     85  C79 UNK     0      58.729  -2.424   9.756  0.00  0.00    +0.000 C 
ATOM     86  C80 UNK     0      58.778  -3.017   8.348  0.00  0.00    +0.000 C 
ATOM     87  C81 UNK     0      59.838  -1.378   9.906  0.00  0.00    +0.000 C 
ENDBRANCH  84  85
ENDBRANCH  42  84
BRANCH   9  88
ATOM     88  C15 UNK     0      50.802  -4.184   5.353  0.00  0.00    +0.000 C 
BRANCH  88  89
ATOM     89  C16 UNK     0      50.744  -4.378   3.819  0.00  0.00    +0.000 C 
ATOM     90  C17 UNK     0      52.002  -3.892   3.104  0.00  0.00    +0.000 C 
ATOM     91  C18 UNK     0      50.506  -5.856   3.493  0.00  0.00    +0.000 C 
ENDBRANCH  88  89
ENDBRANCH   9  88
TORSDOF 17
ENDMDL
MODEL 5
REMARK VINA RESULT:      -5.3      2.977      9.768
REMARK  Name = CyclosporineA.pdb
REMARK  40 active torsions:
REMARK  status: ('A' for Active; 'I' for Inactive)
REMARK    1  A    between atoms: C1_1  and  C78_78
REMARK    2  A    between atoms: N7_7  and  C8_8
REMARK    3  A    between atoms: C9_9  and  C15_15
REMARK    4  A    between atoms: N11_11  and  C20_20
REMARK    5  A    between atoms: C12_12  and  C21_21
REMARK    6  A    between atoms: N14_14  and  C23_23
REMARK    7  A    between atoms: C15_15  and  C16_16
REMARK    8  A    between atoms: C16_16  and  C17_17
REMARK    9  A    between atoms: C16_16  and  C18_18
REMARK   10  A    between atoms: C21_21  and  C82_82
REMARK   11  A    between atoms: C24_24  and  C25_25
REMARK   12  A    between atoms: C25_25  and  C30_30
REMARK   13  A    between atoms: C25_25  and  C31_31
REMARK   14  A    between atoms: C26_26  and  O27_27
REMARK   15  A    between atoms: N28_28  and  C29_29
REMARK   16  A    between atoms: C32_32  and  C34_34
REMARK   17  A    between atoms: C34_34  and  C35_35
REMARK   18  A    between atoms: C34_34  and  O40_40
REMARK   19  A    between atoms: C35_35  and  C36_36
REMARK   20  A    between atoms: C35_35  and  C41_41
REMARK   21  A    between atoms: C36_36  and  C37_37
REMARK   22  A    between atoms: C38_38  and  C39_39
REMARK   23  A    between atoms: C44_44  and  C45_45
REMARK   24  A    between atoms: C45_45  and  C46_46
REMARK   25  A    between atoms: N49_49  and  C77_77
REMARK   26  A    between atoms: C53_53  and  C57_57
REMARK   27  A    between atoms: C57_57  and  C58_58
REMARK   28  A    between atoms: C58_58  and  C59_59
REMARK   29  A    between atoms: C58_58  and  C76_76
REMARK   30  A    between atoms: C61_61  and  C62_62
REMARK   31  A    between atoms: C62_62  and  C63_63
REMARK   32  A    between atoms: C62_62  and  C64_64
REMARK   33  A    between atoms: N66_66  and  C68_68
REMARK   34  A    between atoms: C67_67  and  C75_75
REMARK   35  A    between atoms: C73_73  and  C74_74
REMARK   36  A    between atoms: C75_75  and  C79_79
REMARK   37  A    between atoms: C79_79  and  C80_80
REMARK   38  A    between atoms: C79_79  and  C81_81
REMARK   39  A    between atoms: C82_82  and  C83_83
REMARK   40  A    between atoms: C82_82  and  C84_84
REMARK                            x       y       z     vdW  Elec       q    Type
REMARK                         _______ _______ _______ _____ _____    ______ ____
ROOT
ATOM      1  C1  UNK     0      51.983   5.995   5.940  0.00  0.00    +0.000 C 
ATOM      2  C2  UNK     0      52.317   4.519   5.588  0.00  0.00    +0.000 C 
ATOM      3  N3  UNK     0      52.714   6.293   7.162  0.00  0.00    +0.000 N 
ATOM      4  C4  UNK     0      53.107   7.560   7.521  0.00  0.00    +0.000 C 
ATOM      5  O5  UNK     0      52.953   8.539   6.794  0.00  0.00    +0.000 OA
ATOM      6  C6  UNK     0      51.397   3.569   5.855  0.00  0.00    +0.000 C 
ATOM      7  N7  UNK     0      53.601   4.229   5.027  0.00  0.00    +0.000 N 
ATOM      8  C8  UNK     0      54.540   5.313   4.683  0.00  0.00    +0.000 C 
ATOM      9  C9  UNK     0      54.084   2.822   4.775  0.00  0.00    +0.000 C 
ATOM     10  C10 UNK     0      54.702   2.194   6.075  0.00  0.00    +0.000 C 
ATOM     11  N11 UNK     0      54.531   0.794   6.311  0.00  0.00    +0.000 N 
ATOM     12  C12 UNK     0      54.605   0.186   7.680  0.00  0.00    +0.000 C 
ATOM     13  C13 UNK     0      55.903  -0.672   7.849  0.00  0.00    +0.000 C 
ATOM     14  N14 UNK     0      55.871  -1.729   8.798  0.00  0.00    +0.000 N 
ATOM     15  C19 UNK     0      55.362   2.983   6.948  0.00  0.00    +0.000 C 
ATOM     16  C20 UNK     0      54.166  -0.141   5.238  0.00  0.00    +0.000 C 
ATOM     17  C22 UNK     0      56.995  -0.470   7.086  0.00  0.00    +0.000 C 
ATOM     18  C23 UNK     0      55.811  -3.074   8.150  0.00  0.00    +0.000 C 
ATOM     19  C24 UNK     0      56.815  -1.706  10.007  0.00  0.00    +0.000 C 
ATOM     20  C26 UNK     0      56.423  -2.897  11.007  0.00  0.00    +0.000 C 
ATOM     21  N28 UNK     0      57.136  -2.861  12.286  0.00  0.00    +0.000 NA
ATOM     22  C29 UNK     0      58.455  -3.491  12.169  0.00  0.00    +0.000 C 
ATOM     23  C32 UNK     0      56.366  -3.363  13.471  0.00  0.00    +0.000 C 
ATOM     24  C33 UNK     0      57.082  -2.775  14.717  0.00  0.00    +0.000 C 
ATOM     25  O42 UNK     0      57.651  -3.446  15.570  0.00  0.00    +0.000 OA
ATOM     26  N43 UNK     0      57.037  -1.392  14.722  0.00  0.00    +0.000 N 
ATOM     27  C44 UNK     0      57.622  -0.578  15.768  0.00  0.00    +0.000 C 
ATOM     28  C47 UNK     0      56.683  -0.588  16.999  0.00  0.00    +0.000 C 
ATOM     29  C48 UNK     0      57.227  -1.059  18.141  0.00  0.00    +0.000 C 
ATOM     30  N49 UNK     0      55.335  -0.145  16.942  0.00  0.00    +0.000 N 
ATOM     31  C50 UNK     0      54.614   0.300  15.717  0.00  0.00    +0.000 C 
ATOM     32  C51 UNK     0      54.128   1.756  15.841  0.00  0.00    +0.000 C 
ATOM     33  N52 UNK     0      54.896   2.526  16.688  0.00  0.00    +0.000 N 
ATOM     34  C53 UNK     0      54.771   3.975  16.737  0.00  0.00    +0.000 C 
ATOM     35  C54 UNK     0      55.495   4.568  15.500  0.00  0.00    +0.000 C 
ATOM     36  N55 UNK     0      55.094   5.852  15.181  0.00  0.00    +0.000 N 
ATOM     37  O56 UNK     0      53.174   2.202  15.209  0.00  0.00    +0.000 OA
ATOM     38  O60 UNK     0      56.379   3.965  14.899  0.00  0.00    +0.000 OA
ATOM     39  C61 UNK     0      55.530   6.572  13.976  0.00  0.00    +0.000 C 
ATOM     40  C65 UNK     0      54.692   6.034  12.778  0.00  0.00    +0.000 C 
ATOM     41  N66 UNK     0      53.296   6.219  12.820  0.00  0.00    +0.000 N 
ATOM     42  C67 UNK     0      52.514   5.611  11.703  0.00  0.00    +0.000 C 
ATOM     43  C68 UNK     0      52.695   7.372  13.492  0.00  0.00    +0.000 C 
ATOM     44  O69 UNK     0      55.219   5.480  11.808  0.00  0.00    +0.000 OA
ATOM     45  C70 UNK     0      52.528   6.623  10.532  0.00  0.00    +0.000 C 
ATOM     46  N71 UNK     0      53.659   6.541   9.740  0.00  0.00    +0.000 N 
ATOM     47  O72 UNK     0      51.673   7.493  10.385  0.00  0.00    +0.000 OA
ATOM     48  C73 UNK     0      53.975   7.616   8.796  0.00  0.00    +0.000 C 
ATOM     49  C74 UNK     0      55.440   7.525   8.380  0.00  0.00    +0.000 C 
ATOM     50  C77 UNK     0      54.415  -0.362  18.077  0.00  0.00    +0.000 C 
ATOM     51  C78 UNK     0      50.503   6.359   6.109  0.00  0.00    +0.000 C 
ATOM     52  H2  UNK     0      52.900   5.533   7.805  0.00  0.00    +0.000 HD
ATOM     53  H58 UNK     0      56.792  -0.958  13.842  0.00  0.00    +0.000 HD
ATOM     54  H69 UNK     0      55.774   2.091  16.962  0.00  0.00    +0.000 HD
ATOM     55  H71 UNK     0      54.201   6.131  15.562  0.00  0.00    +0.000 HD
ATOM     56  H90 UNK     0      54.442   6.038  10.164  0.00  0.00    +0.000 HD
ENDROOT
BRANCH  39  57
ATOM     57  C62 UNK     0      57.061   6.587  13.720  0.00  0.00    +0.000 C 
ATOM     58  C63 UNK     0      57.408   7.512  12.542  0.00  0.00    +0.000 C 
ATOM     59  C64 UNK     0      57.841   7.070  14.951  0.00  0.00    +0.000 C 
ENDBRANCH  39  57
BRANCH  19  60
ATOM     60  C25 UNK     0      56.860  -0.339  10.788  0.00  0.00    +0.000 C 
ATOM     61  C30 UNK     0      57.874   0.675  10.252  0.00  0.00    +0.000 C 
ATOM     62  C31 UNK     0      55.505   0.332  11.031  0.00  0.00    +0.000 C 
ENDBRANCH  19  60
BRANCH  20  63
ATOM     63  O27 UNK     0      55.003  -2.899  11.197  0.00  0.00    +0.000 OA
ATOM     64  H34 UNK     0      54.672  -3.524  10.519  0.00  0.00    +0.000 HD
ENDBRANCH  20  63
BRANCH  27  65
ATOM     65  C45 UNK     0      57.989   0.823  15.249  0.00  0.00    +0.000 C 
ATOM     66  C46 UNK     0      58.677   0.802  13.890  0.00  0.00    +0.000 C 
ENDBRANCH  27  65
BRANCH  23  67
ATOM     67  C34 UNK     0      56.136  -4.902  13.595  0.00  0.00    +0.000 C 
BRANCH  67  68
ATOM     68  C35 UNK     0      55.805  -5.407  15.034  0.00  0.00    +0.000 C 
ATOM     69  C41 UNK     0      56.468  -6.736  15.409  0.00  0.00    +0.000 C 
BRANCH  68  70
ATOM     70  C36 UNK     0      54.265  -5.502  15.204  0.00  0.00    +0.000 C 
BRANCH  70  71
ATOM     71  C37 UNK     0      53.827  -5.711  16.630  0.00  0.00    +0.000 C 
ATOM     72  C38 UNK     0      53.128  -6.776  17.050  0.00  0.00    +0.000 C 
ATOM     73  C39 UNK     0      52.684  -6.982  18.460  0.00  0.00    +0.000 C 
ENDBRANCH  70  71
ENDBRANCH  68  70
ENDBRANCH  67  68
BRANCH  67  74
ATOM     74  O40 UNK     0      55.013  -5.293  12.772  0.00  0.00    +0.000 OA
ATOM     75  H54 UNK     0      54.218  -5.125  13.318  0.00  0.00    +0.000 HD
ENDBRANCH  67  74
ENDBRANCH  23  67
BRANCH  34  76
ATOM     76  C57 UNK     0      55.386   4.486  18.051  0.00  0.00    +0.000 C 
BRANCH  76  77
ATOM     77  C58 UNK     0      54.410   5.098  19.075  0.00  0.00    +0.000 C 
ATOM     78  C59 UNK     0      55.013   6.289  19.822  0.00  0.00    +0.000 C 
ATOM     79  C76 UNK     0      53.127   5.539  18.360  0.00  0.00    +0.000 C 
ENDBRANCH  76  77
ENDBRANCH  34  76
BRANCH  12  80
ATOM     80  C21 UNK     0      53.307  -0.601   8.026  0.00  0.00    +0.000 C 
BRANCH  80  81
ATOM     81  C82 UNK     0      52.022   0.244   8.128  0.00  0.00    +0.000 C 
ATOM     82  C83 UNK     0      51.463   0.289   9.549  0.00  0.00    +0.000 C 
ATOM     83  C84 UNK     0      50.960  -0.317   7.177  0.00  0.00    +0.000 C 
ENDBRANCH  80  81
ENDBRANCH  12  80
BRANCH  42  84
ATOM     84  C75 UNK     0      51.087   5.222  12.138  0.00  0.00    +0.000 C 
BRANCH  84  85
ATOM     85  C79 UNK     0      50.665   3.790  11.747  0.00  0.00    +0.000 C 
ATOM     86  C80 UNK     0      51.749   2.749  12.026  0.00  0.00    +0.000 C 
ATOM     87  C81 UNK     0      50.293   3.751  10.262  0.00  0.00    +0.000 C 
ENDBRANCH  84  85
ENDBRANCH  42  84
BRANCH   9  88
ATOM     88  C15 UNK     0      55.018   2.669   3.540  0.00  0.00    +0.000 C 
BRANCH  88  89
ATOM     89  C16 UNK     0      54.260   2.558   2.195  0.00  0.00    +0.000 C 
ATOM     90  C17 UNK     0      55.047   1.806   1.124  0.00  0.00    +0.000 C 
ATOM     91  C18 UNK     0      52.909   1.871   2.417  0.00  0.00    +0.000 C 
ENDBRANCH  88  89
ENDBRANCH   9  88
TORSDOF 17
ENDMDL
MODEL 6
REMARK VINA RESULT:      -5.2      3.444      8.792
REMARK  Name = CyclosporineA.pdb
REMARK  40 active torsions:
REMARK  status: ('A' for Active; 'I' for Inactive)
REMARK    1  A    between atoms: C1_1  and  C78_78
REMARK    2  A    between atoms: N7_7  and  C8_8
REMARK    3  A    between atoms: C9_9  and  C15_15
REMARK    4  A    between atoms: N11_11  and  C20_20
REMARK    5  A    between atoms: C12_12  and  C21_21
REMARK    6  A    between atoms: N14_14  and  C23_23
REMARK    7  A    between atoms: C15_15  and  C16_16
REMARK    8  A    between atoms: C16_16  and  C17_17
REMARK    9  A    between atoms: C16_16  and  C18_18
REMARK   10  A    between atoms: C21_21  and  C82_82
REMARK   11  A    between atoms: C24_24  and  C25_25
REMARK   12  A    between atoms: C25_25  and  C30_30
REMARK   13  A    between atoms: C25_25  and  C31_31
REMARK   14  A    between atoms: C26_26  and  O27_27
REMARK   15  A    between atoms: N28_28  and  C29_29
REMARK   16  A    between atoms: C32_32  and  C34_34
REMARK   17  A    between atoms: C34_34  and  C35_35
REMARK   18  A    between atoms: C34_34  and  O40_40
REMARK   19  A    between atoms: C35_35  and  C36_36
REMARK   20  A    between atoms: C35_35  and  C41_41
REMARK   21  A    between atoms: C36_36  and  C37_37
REMARK   22  A    between atoms: C38_38  and  C39_39
REMARK   23  A    between atoms: C44_44  and  C45_45
REMARK   24  A    between atoms: C45_45  and  C46_46
REMARK   25  A    between atoms: N49_49  and  C77_77
REMARK   26  A    between atoms: C53_53  and  C57_57
REMARK   27  A    between atoms: C57_57  and  C58_58
REMARK   28  A    between atoms: C58_58  and  C59_59
REMARK   29  A    between atoms: C58_58  and  C76_76
REMARK   30  A    between atoms: C61_61  and  C62_62
REMARK   31  A    between atoms: C62_62  and  C63_63
REMARK   32  A    between atoms: C62_62  and  C64_64
REMARK   33  A    between atoms: N66_66  and  C68_68
REMARK   34  A    between atoms: C67_67  and  C75_75
REMARK   35  A    between atoms: C73_73  and  C74_74
REMARK   36  A    between atoms: C75_75  and  C79_79
REMARK   37  A    between atoms: C79_79  and  C80_80
REMARK   38  A    between atoms: C79_79  and  C81_81
REMARK   39  A    between atoms: C82_82  and  C83_83
REMARK   40  A    between atoms: C82_82  and  C84_84
REMARK                            x       y       z     vdW  Elec       q    Type
REMARK                         _______ _______ _______ _____ _____    ______ ____
ROOT
ATOM      1  C1  UNK     0      52.956  -5.455   6.420  0.00  0.00    +0.000 C 
ATOM      2  C2  UNK     0      53.480  -5.050   7.826  0.00  0.00    +0.000 C 
ATOM      3  N3  UNK     0      53.388  -4.405   5.511  0.00  0.00    +0.000 N 
ATOM      4  C4  UNK     0      53.588  -4.601   4.166  0.00  0.00    +0.000 C 
ATOM      5  O5  UNK     0      53.505  -5.706   3.632  0.00  0.00    +0.000 OA
ATOM      6  C6  UNK     0      52.610  -4.524   8.712  0.00  0.00    +0.000 C 
ATOM      7  N7  UNK     0      54.873  -5.222   8.106  0.00  0.00    +0.000 N 
ATOM      8  C8  UNK     0      55.767  -5.873   7.131  0.00  0.00    +0.000 C 
ATOM      9  C9  UNK     0      55.516  -4.738   9.382  0.00  0.00    +0.000 C 
ATOM     10  C10 UNK     0      55.901  -3.219   9.281  0.00  0.00    +0.000 C 
ATOM     11  N11 UNK     0      55.805  -2.406  10.453  0.00  0.00    +0.000 N 
ATOM     12  C12 UNK     0      55.644  -0.916  10.397  0.00  0.00    +0.000 C 
ATOM     13  C13 UNK     0      56.946  -0.188  10.869  0.00  0.00    +0.000 C 
ATOM     14  N14 UNK     0      56.807   1.119  11.409  0.00  0.00    +0.000 N 
ATOM     15  C19 UNK     0      56.295  -2.708   8.096  0.00  0.00    +0.000 C 
ATOM     16  C20 UNK     0      55.753  -2.983  11.804  0.00  0.00    +0.000 C 
ATOM     17  C22 UNK     0      58.152  -0.787  10.830  0.00  0.00    +0.000 C 
ATOM     18  C23 UNK     0      56.999   1.146  12.890  0.00  0.00    +0.000 C 
ATOM     19  C24 UNK     0      57.473   2.314  10.713  0.00  0.00    +0.000 C 
ATOM     20  C26 UNK     0      56.985   3.672  11.412  0.00  0.00    +0.000 C 
ATOM     21  N28 UNK     0      57.409   4.888  10.715  0.00  0.00    +0.000 NA
ATOM     22  C29 UNK     0      58.773   5.265  11.101  0.00  0.00    +0.000 C 
ATOM     23  C32 UNK     0      56.455   6.043  10.786  0.00  0.00    +0.000 C 
ATOM     24  C33 UNK     0      56.842   6.981   9.611  0.00  0.00    +0.000 C 
ATOM     25  O42 UNK     0      57.277   8.120   9.747  0.00  0.00    +0.000 OA
ATOM     26  N43 UNK     0      56.679   6.356   8.388  0.00  0.00    +0.000 N 
ATOM     27  C44 UNK     0      56.962   6.997   7.120  0.00  0.00    +0.000 C 
ATOM     28  C47 UNK     0      55.791   7.945   6.762  0.00  0.00    +0.000 C 
ATOM     29  C48 UNK     0      56.124   9.243   6.602  0.00  0.00    +0.000 C 
ATOM     30  N49 UNK     0      54.452   7.495   6.621  0.00  0.00    +0.000 N 
ATOM     31  C50 UNK     0      53.967   6.109   6.870  0.00  0.00    +0.000 C 
ATOM     32  C51 UNK     0      53.344   5.490   5.605  0.00  0.00    +0.000 C 
ATOM     33  N52 UNK     0      53.850   6.003   4.430  0.00  0.00    +0.000 N 
ATOM     34  C53 UNK     0      53.594   5.375   3.142  0.00  0.00    +0.000 C 
ATOM     35  C54 UNK     0      54.506   4.126   3.020  0.00  0.00    +0.000 C 
ATOM     36  N55 UNK     0      54.072   3.207   2.083  0.00  0.00    +0.000 N 
ATOM     37  O56 UNK     0      52.508   4.590   5.639  0.00  0.00    +0.000 OA
ATOM     38  O60 UNK     0      55.545   4.000   3.662  0.00  0.00    +0.000 OA
ATOM     39  C61 UNK     0      54.687   1.886   1.883  0.00  0.00    +0.000 C 
ATOM     40  C65 UNK     0      54.166   0.950   3.013  0.00  0.00    +0.000 C 
ATOM     41  N66 UNK     0      52.781   0.696   3.067  0.00  0.00    +0.000 N 
ATOM     42  C67 UNK     0      52.305  -0.130   4.215  0.00  0.00    +0.000 C 
ATOM     43  C68 UNK     0      51.958   0.678   1.857  0.00  0.00    +0.000 C 
ATOM     44  O69 UNK     0      54.929   0.424   3.830  0.00  0.00    +0.000 OA
ATOM     45  C70 UNK     0      52.476  -1.615   3.813  0.00  0.00    +0.000 C 
ATOM     46  N71 UNK     0      53.750  -2.107   4.033  0.00  0.00    +0.000 N 
ATOM     47  O72 UNK     0      51.599  -2.264   3.248  0.00  0.00    +0.000 OA
ATOM     48  C73 UNK     0      54.163  -3.375   3.426  0.00  0.00    +0.000 C 
ATOM     49  C74 UNK     0      55.684  -3.482   3.436  0.00  0.00    +0.000 C 
ATOM     50  C77 UNK     0      53.338   8.455   6.486  0.00  0.00    +0.000 C 
ATOM     51  C78 UNK     0      51.447  -5.691   6.275  0.00  0.00    +0.000 C 
ATOM     52  H2  UNK     0      53.500  -3.469   5.881  0.00  0.00    +0.000 HD
ATOM     53  H58 UNK     0      56.588   5.349   8.419  0.00  0.00    +0.000 HD
ATOM     54  H69 UNK     0      54.685   6.570   4.551  0.00  0.00    +0.000 HD
ATOM     55  H71 UNK     0      53.099   3.284   1.824  0.00  0.00    +0.000 HD
ATOM     56  H90 UNK     0      54.467  -1.390   4.167  0.00  0.00    +0.000 HD
ENDROOT
BRANCH  39  57
ATOM     57  C62 UNK     0      56.230   1.883   1.720  0.00  0.00    +0.000 C 
ATOM     58  C63 UNK     0      56.734   0.485   1.323  0.00  0.00    +0.000 C 
ATOM     59  C64 UNK     0      56.694   2.878   0.647  0.00  0.00    +0.000 C 
ENDBRANCH  39  57
BRANCH  19  60
ATOM     60  C25 UNK     0      57.237   2.392   9.159  0.00  0.00    +0.000 C 
ATOM     61  C30 UNK     0      58.243   1.604   8.315  0.00  0.00    +0.000 C 
ATOM     62  C31 UNK     0      55.807   2.114   8.689  0.00  0.00    +0.000 C 
ENDBRANCH  19  60
BRANCH  20  63
ATOM     63  O27 UNK     0      55.561   3.630  11.573  0.00  0.00    +0.000 OA
ATOM     64  H34 UNK     0      55.433   3.260  12.472  0.00  0.00    +0.000 HD
ENDBRANCH  20  63
BRANCH  27  65
ATOM     65  C45 UNK     0      57.308   5.964   6.034  0.00  0.00    +0.000 C 
ATOM     66  C46 UNK     0      57.759   6.594   4.723  0.00  0.00    +0.000 C 
ENDBRANCH  27  65
BRANCH  23  67
ATOM     67  C34 UNK     0      56.336   6.811  12.139  0.00  0.00    +0.000 C 
BRANCH  67  68
ATOM     68  C35 UNK     0      55.031   7.649  12.312  0.00  0.00    +0.000 C 
ATOM     69  C41 UNK     0      54.931   8.404  13.640  0.00  0.00    +0.000 C 
BRANCH  68  70
ATOM     70  C36 UNK     0      53.798   6.727  12.117  0.00  0.00    +0.000 C 
BRANCH  70  71
ATOM     71  C37 UNK     0      52.626   7.415  11.467  0.00  0.00    +0.000 C 
ATOM     72  C38 UNK     0      52.398   7.418  10.145  0.00  0.00    +0.000 C 
ATOM     73  C39 UNK     0      51.243   8.107   9.497  0.00  0.00    +0.000 C 
ENDBRANCH  70  71
ENDBRANCH  68  70
ENDBRANCH  67  68
BRANCH  67  74
ATOM     74  O40 UNK     0      56.347   5.868  13.235  0.00  0.00    +0.000 OA
ATOM     75  H54 UNK     0      56.859   5.099  12.913  0.00  0.00    +0.000 HD
ENDBRANCH  67  74
ENDBRANCH  23  67
BRANCH  34  76
ATOM     76  C57 UNK     0      53.875   6.392   2.024  0.00  0.00    +0.000 C 
BRANCH  76  77
ATOM     77  C58 UNK     0      55.251   7.087   2.056  0.00  0.00    +0.000 C 
ATOM     78  C59 UNK     0      56.103   6.757   0.830  0.00  0.00    +0.000 C 
ATOM     79  C76 UNK     0      55.056   8.604   2.152  0.00  0.00    +0.000 C 
ENDBRANCH  76  77
ENDBRANCH  34  76
BRANCH  12  80
ATOM     80  C21 UNK     0      54.374  -0.450  11.169  0.00  0.00    +0.000 C 
BRANCH  80  81
ATOM     81  C82 UNK     0      53.347   0.349  10.342  0.00  0.00    +0.000 C 
ATOM     82  C83 UNK     0      52.081   0.669  11.134  0.00  0.00    +0.000 C 
ATOM     83  C84 UNK     0      52.977  -0.438   9.081  0.00  0.00    +0.000 C 
ENDBRANCH  80  81
ENDBRANCH  12  80
BRANCH  42  84
ATOM     84  C75 UNK     0      50.856   0.216   4.618  0.00  0.00    +0.000 C 
BRANCH  84  85
ATOM     85  C79 UNK     0      50.580   0.155   6.134  0.00  0.00    +0.000 C 
ATOM     86  C80 UNK     0      50.326  -1.264   6.640  0.00  0.00    +0.000 C 
ATOM     87  C81 UNK     0      49.375   1.039   6.473  0.00  0.00    +0.000 C 
ENDBRANCH  84  85
ENDBRANCH  42  84
BRANCH   9  88
ATOM     88  C15 UNK     0      56.697  -5.618   9.886  0.00  0.00    +0.000 C 
BRANCH  88  89
ATOM     89  C16 UNK     0      56.264  -6.754  10.843  0.00  0.00    +0.000 C 
ATOM     90  C17 UNK     0      54.851  -6.569  11.393  0.00  0.00    +0.000 C 
ATOM     91  C18 UNK     0      56.362  -8.102  10.123  0.00  0.00    +0.000 C 
ENDBRANCH  88  89
ENDBRANCH   9  88
TORSDOF 17
ENDMDL
MODEL 7
REMARK VINA RESULT:      -5.0     15.726     18.796
REMARK  Name = CyclosporineA.pdb
REMARK  40 active torsions:
REMARK  status: ('A' for Active; 'I' for Inactive)
REMARK    1  A    between atoms: C1_1  and  C78_78
REMARK    2  A    between atoms: N7_7  and  C8_8
REMARK    3  A    between atoms: C9_9  and  C15_15
REMARK    4  A    between atoms: N11_11  and  C20_20
REMARK    5  A    between atoms: C12_12  and  C21_21
REMARK    6  A    between atoms: N14_14  and  C23_23
REMARK    7  A    between atoms: C15_15  and  C16_16
REMARK    8  A    between atoms: C16_16  and  C17_17
REMARK    9  A    between atoms: C16_16  and  C18_18
REMARK   10  A    between atoms: C21_21  and  C82_82
REMARK   11  A    between atoms: C24_24  and  C25_25
REMARK   12  A    between atoms: C25_25  and  C30_30
REMARK   13  A    between atoms: C25_25  and  C31_31
REMARK   14  A    between atoms: C26_26  and  O27_27
REMARK   15  A    between atoms: N28_28  and  C29_29
REMARK   16  A    between atoms: C32_32  and  C34_34
REMARK   17  A    between atoms: C34_34  and  C35_35
REMARK   18  A    between atoms: C34_34  and  O40_40
REMARK   19  A    between atoms: C35_35  and  C36_36
REMARK   20  A    between atoms: C35_35  and  C41_41
REMARK   21  A    between atoms: C36_36  and  C37_37
REMARK   22  A    between atoms: C38_38  and  C39_39
REMARK   23  A    between atoms: C44_44  and  C45_45
REMARK   24  A    between atoms: C45_45  and  C46_46
REMARK   25  A    between atoms: N49_49  and  C77_77
REMARK   26  A    between atoms: C53_53  and  C57_57
REMARK   27  A    between atoms: C57_57  and  C58_58
REMARK   28  A    between atoms: C58_58  and  C59_59
REMARK   29  A    between atoms: C58_58  and  C76_76
REMARK   30  A    between atoms: C61_61  and  C62_62
REMARK   31  A    between atoms: C62_62  and  C63_63
REMARK   32  A    between atoms: C62_62  and  C64_64
REMARK   33  A    between atoms: N66_66  and  C68_68
REMARK   34  A    between atoms: C67_67  and  C75_75
REMARK   35  A    between atoms: C73_73  and  C74_74
REMARK   36  A    between atoms: C75_75  and  C79_79
REMARK   37  A    between atoms: C79_79  and  C80_80
REMARK   38  A    between atoms: C79_79  and  C81_81
REMARK   39  A    between atoms: C82_82  and  C83_83
REMARK   40  A    between atoms: C82_82  and  C84_84
REMARK                            x       y       z     vdW  Elec       q    Type
REMARK                         _______ _______ _______ _____ _____    ______ ____
ROOT
ATOM      1  C1  UNK     0      43.075  -5.368  16.380  0.00  0.00    +0.000 C 
ATOM      2  C2  UNK     0      42.714  -3.875  16.147  0.00  0.00    +0.000 C 
ATOM      3  N3  UNK     0      42.497  -5.727  17.665  0.00  0.00    +0.000 N 
ATOM      4  C4  UNK     0      42.140  -7.010  18.005  0.00  0.00    +0.000 C 
ATOM      5  O5  UNK     0      42.196  -7.950  17.215  0.00  0.00    +0.000 OA
ATOM      6  C6  UNK     0      43.668  -2.942  16.347  0.00  0.00    +0.000 C 
ATOM      7  N7  UNK     0      41.374  -3.553  15.763  0.00  0.00    +0.000 N 
ATOM      8  C8  UNK     0      40.390  -4.616  15.482  0.00  0.00    +0.000 C 
ATOM      9  C9  UNK     0      40.875  -2.134  15.645  0.00  0.00    +0.000 C 
ATOM     10  C10 UNK     0      40.426  -1.573  17.041  0.00  0.00    +0.000 C 
ATOM     11  N11 UNK     0      40.637  -0.188  17.325  0.00  0.00    +0.000 N 
ATOM     12  C12 UNK     0      40.736   0.349  18.722  0.00  0.00    +0.000 C 
ATOM     13  C13 UNK     0      39.477   1.200  19.092  0.00  0.00    +0.000 C 
ATOM     14  N14 UNK     0      39.633   2.207  20.082  0.00  0.00    +0.000 N 
ATOM     15  C19 UNK     0      39.871  -2.404  17.947  0.00  0.00    +0.000 C 
ATOM     16  C20 UNK     0      40.876   0.802  16.264  0.00  0.00    +0.000 C 
ATOM     17  C22 UNK     0      38.297   1.041  18.460  0.00  0.00    +0.000 C 
ATOM     18  C23 UNK     0      39.625   3.584  19.502  0.00  0.00    +0.000 C 
ATOM     19  C24 UNK     0      38.844   2.124  21.396  0.00  0.00    +0.000 C 
ATOM     20  C26 UNK     0      39.365   3.261  22.399  0.00  0.00    +0.000 C 
ATOM     21  N28 UNK     0      38.815   3.161  23.752  0.00  0.00    +0.000 NA
ATOM     22  C29 UNK     0      37.496   3.799  23.830  0.00  0.00    +0.000 C 
ATOM     23  C32 UNK     0      39.728   3.600  24.858  0.00  0.00    +0.000 C 
ATOM     24  C33 UNK     0      39.165   2.949  26.151  0.00  0.00    +0.000 C 
ATOM     25  O42 UNK     0      38.710   3.577  27.101  0.00  0.00    +0.000 OA
ATOM     26  N43 UNK     0      39.199   1.568  26.080  0.00  0.00    +0.000 N 
ATOM     27  C44 UNK     0      38.739   0.703  27.147  0.00  0.00    +0.000 C 
ATOM     28  C47 UNK     0      39.822   0.646  28.253  0.00  0.00    +0.000 C 
ATOM     29  C48 UNK     0      39.425   1.059  29.475  0.00  0.00    +0.000 C 
ATOM     30  N49 UNK     0      41.149   0.205  28.008  0.00  0.00    +0.000 N 
ATOM     31  C50 UNK     0      41.710  -0.178  26.682  0.00  0.00    +0.000 C 
ATOM     32  C51 UNK     0      42.195  -1.640  26.672  0.00  0.00    +0.000 C 
ATOM     33  N52 UNK     0      41.530  -2.451  27.566  0.00  0.00    +0.000 N 
ATOM     34  C53 UNK     0      41.648  -3.901  27.526  0.00  0.00    +0.000 C 
ATOM     35  C54 UNK     0      40.773  -4.428  26.358  0.00  0.00    +0.000 C 
ATOM     36  N55 UNK     0      41.121  -5.694  25.928  0.00  0.00    +0.000 N 
ATOM     37  O56 UNK     0      43.061  -2.055  25.906  0.00  0.00    +0.000 OA
ATOM     38  O60 UNK     0      39.827  -3.793  25.902  0.00  0.00    +0.000 OA
ATOM     39  C61 UNK     0      40.535  -6.351  24.750  0.00  0.00    +0.000 C 
ATOM     40  C65 UNK     0      41.224  -5.753  23.488  0.00  0.00    +0.000 C 
ATOM     41  N66 UNK     0      42.613  -5.944  23.349  0.00  0.00    +0.000 N 
ATOM     42  C67 UNK     0      43.257  -5.281  22.176  0.00  0.00    +0.000 C 
ATOM     43  C68 UNK     0      43.281  -7.131  23.882  0.00  0.00    +0.000 C 
ATOM     44  O69 UNK     0      40.587  -5.149  22.618  0.00  0.00    +0.000 OA
ATOM     45  C70 UNK     0      43.092  -6.231  20.966  0.00  0.00    +0.000 C 
ATOM     46  N71 UNK     0      41.873  -6.105  20.323  0.00  0.00    +0.000 N 
ATOM     47  O72 UNK     0      43.915  -7.093  20.670  0.00  0.00    +0.000 OA
ATOM     48  C73 UNK     0      41.435  -7.129  19.372  0.00  0.00    +0.000 C 
ATOM     49  C74 UNK     0      39.931  -7.014  19.144  0.00  0.00    +0.000 C 
ATOM     50  C77 UNK     0      42.202   0.361  29.031  0.00  0.00    +0.000 C 
ATOM     51  C78 UNK     0      44.562  -5.744  16.347  0.00  0.00    +0.000 C 
ATOM     52  H2  UNK     0      42.398  -5.001  18.364  0.00  0.00    +0.000 HD
ATOM     53  H58 UNK     0      39.330   1.180  25.155  0.00  0.00    +0.000 HD
ATOM     54  H69 UNK     0      40.696  -2.029  27.968  0.00  0.00    +0.000 HD
ATOM     55  H71 UNK     0      42.052  -5.995  26.181  0.00  0.00    +0.000 HD
ATOM     56  H90 UNK     0      41.153  -5.623  20.865  0.00  0.00    +0.000 HD
ENDROOT
BRANCH  39  57
ATOM     57  C62 UNK     0      38.984  -6.349  24.684  0.00  0.00    +0.000 C 
ATOM     58  C63 UNK     0      38.487  -7.222  23.520  0.00  0.00    +0.000 C 
ATOM     59  C64 UNK     0      38.356  -6.880  25.980  0.00  0.00    +0.000 C 
ENDBRANCH  39  57
BRANCH  19  60
ATOM     60  C25 UNK     0      38.884   0.719  22.105  0.00  0.00    +0.000 C 
ATOM     61  C30 UNK     0      37.807  -0.267  21.642  0.00  0.00    +0.000 C 
ATOM     62  C31 UNK     0      40.253   0.036  22.152  0.00  0.00    +0.000 C 
ENDBRANCH  19  60
BRANCH  20  63
ATOM     63  O27 UNK     0      40.798   3.250  22.414  0.00  0.00    +0.000 OA
ATOM     64  H34 UNK     0      41.026   2.613  23.123  0.00  0.00    +0.000 HD
ENDBRANCH  20  63
BRANCH  27  65
ATOM     65  C45 UNK     0      38.299  -0.669  26.606  0.00  0.00    +0.000 C 
ATOM     66  C46 UNK     0      37.450  -0.576  25.346  0.00  0.00    +0.000 C 
ENDBRANCH  27  65
BRANCH  23  67
ATOM     67  C34 UNK     0      39.985   5.129  25.030  0.00  0.00    +0.000 C 
BRANCH  67  68
ATOM     68  C35 UNK     0      41.342   5.500  25.707  0.00  0.00    +0.000 C 
ATOM     69  C41 UNK     0      41.222   5.959  27.163  0.00  0.00    +0.000 C 
BRANCH  68  70
ATOM     70  C36 UNK     0      42.063   6.579  24.855  0.00  0.00    +0.000 C 
BRANCH  70  71
ATOM     71  C37 UNK     0      42.464   7.800  25.641  0.00  0.00    +0.000 C 
ATOM     72  C38 UNK     0      42.251   9.059  25.230  0.00  0.00    +0.000 C 
ATOM     73  C39 UNK     0      42.657  10.271  26.002  0.00  0.00    +0.000 C 
ENDBRANCH  70  71
ENDBRANCH  68  70
ENDBRANCH  67  68
BRANCH  67  74
ATOM     74  O40 UNK     0      40.003   5.768  23.734  0.00  0.00    +0.000 OA
ATOM     75  H54 UNK     0      39.293   6.441  23.765  0.00  0.00    +0.000 HD
ENDBRANCH  67  74
ENDBRANCH  23  67
BRANCH  34  76
ATOM     76  C57 UNK     0      41.194  -4.478  28.877  0.00  0.00    +0.000 C 
BRANCH  76  77
ATOM     77  C58 UNK     0      39.679  -4.699  29.058  0.00  0.00    +0.000 C 
ATOM     78  C59 UNK     0      39.347  -6.104  29.562  0.00  0.00    +0.000 C 
ATOM     79  C76 UNK     0      39.123  -3.659  30.037  0.00  0.00    +0.000 C 
ENDBRANCH  76  77
ENDBRANCH  34  76
BRANCH  12  80
ATOM     80  C21 UNK     0      42.073   1.115  18.945  0.00  0.00    +0.000 C 
BRANCH  80  81
ATOM     81  C82 UNK     0      43.083   0.431  19.889  0.00  0.00    +0.000 C 
ATOM     82  C83 UNK     0      44.129   1.404  20.430  0.00  0.00    +0.000 C 
ATOM     83  C84 UNK     0      43.783  -0.714  19.151  0.00  0.00    +0.000 C 
ENDBRANCH  80  81
ENDBRANCH  12  80
BRANCH  42  84
ATOM     84  C75 UNK     0      44.731  -4.917  22.452  0.00  0.00    +0.000 C 
BRANCH  84  85
ATOM     85  C79 UNK     0      45.113  -3.468  22.086  0.00  0.00    +0.000 C 
ATOM     86  C80 UNK     0      43.966  -2.478  22.281  0.00  0.00    +0.000 C 
ATOM     87  C81 UNK     0      45.590  -3.415  20.631  0.00  0.00    +0.000 C 
ENDBRANCH  84  85
ENDBRANCH  42  84
BRANCH   9  88
ATOM     88  C15 UNK     0      39.798  -1.916  14.542  0.00  0.00    +0.000 C 
BRANCH  88  89
ATOM     89  C16 UNK     0      40.321  -1.151  13.302  0.00  0.00    +0.000 C 
ATOM     90  C17 UNK     0      40.625  -2.066  12.118  0.00  0.00    +0.000 C 
ATOM     91  C18 UNK     0      39.301  -0.088  12.882  0.00  0.00    +0.000 C 
ENDBRANCH  88  89
ENDBRANCH   9  88
TORSDOF 17
ENDMDL
MODEL 8
REMARK VINA RESULT:      -4.8     14.384     19.233
REMARK  Name = CyclosporineA.pdb
REMARK  40 active torsions:
REMARK  status: ('A' for Active; 'I' for Inactive)
REMARK    1  A    between atoms: C1_1  and  C78_78
REMARK    2  A    between atoms: N7_7  and  C8_8
REMARK    3  A    between atoms: C9_9  and  C15_15
REMARK    4  A    between atoms: N11_11  and  C20_20
REMARK    5  A    between atoms: C12_12  and  C21_21
REMARK    6  A    between atoms: N14_14  and  C23_23
REMARK    7  A    between atoms: C15_15  and  C16_16
REMARK    8  A    between atoms: C16_16  and  C17_17
REMARK    9  A    between atoms: C16_16  and  C18_18
REMARK   10  A    between atoms: C21_21  and  C82_82
REMARK   11  A    between atoms: C24_24  and  C25_25
REMARK   12  A    between atoms: C25_25  and  C30_30
REMARK   13  A    between atoms: C25_25  and  C31_31
REMARK   14  A    between atoms: C26_26  and  O27_27
REMARK   15  A    between atoms: N28_28  and  C29_29
REMARK   16  A    between atoms: C32_32  and  C34_34
REMARK   17  A    between atoms: C34_34  and  C35_35
REMARK   18  A    between atoms: C34_34  and  O40_40
REMARK   19  A    between atoms: C35_35  and  C36_36
REMARK   20  A    between atoms: C35_35  and  C41_41
REMARK   21  A    between atoms: C36_36  and  C37_37
REMARK   22  A    between atoms: C38_38  and  C39_39
REMARK   23  A    between atoms: C44_44  and  C45_45
REMARK   24  A    between atoms: C45_45  and  C46_46
REMARK   25  A    between atoms: N49_49  and  C77_77
REMARK   26  A    between atoms: C53_53  and  C57_57
REMARK   27  A    between atoms: C57_57  and  C58_58
REMARK   28  A    between atoms: C58_58  and  C59_59
REMARK   29  A    between atoms: C58_58  and  C76_76
REMARK   30  A    between atoms: C61_61  and  C62_62
REMARK   31  A    between atoms: C62_62  and  C63_63
REMARK   32  A    between atoms: C62_62  and  C64_64
REMARK   33  A    between atoms: N66_66  and  C68_68
REMARK   34  A    between atoms: C67_67  and  C75_75
REMARK   35  A    between atoms: C73_73  and  C74_74
REMARK   36  A    between atoms: C75_75  and  C79_79
REMARK   37  A    between atoms: C79_79  and  C80_80
REMARK   38  A    between atoms: C79_79  and  C81_81
REMARK   39  A    between atoms: C82_82  and  C83_83
REMARK   40  A    between atoms: C82_82  and  C84_84
REMARK                            x       y       z     vdW  Elec       q    Type
REMARK                         _______ _______ _______ _____ _____    ______ ____
ROOT
ATOM      1  C1  UNK     0      36.378 -16.611   7.130  0.00  0.00    +0.000 C 
ATOM      2  C2  UNK     0      35.985 -15.638   8.277  0.00  0.00    +0.000 C 
ATOM      3  N3  UNK     0      37.800 -16.870   7.293  0.00  0.00    +0.000 N 
ATOM      4  C4  UNK     0      38.418 -18.014   6.847  0.00  0.00    +0.000 C 
ATOM      5  O5  UNK     0      37.803 -18.957   6.354  0.00  0.00    +0.000 OA
ATOM      6  C6  UNK     0      35.814 -14.333   7.984  0.00  0.00    +0.000 C 
ATOM      7  N7  UNK     0      35.855 -16.167   9.600  0.00  0.00    +0.000 N 
ATOM      8  C8  UNK     0      35.975 -17.615   9.853  0.00  0.00    +0.000 C 
ATOM      9  C9  UNK     0      35.613 -15.296  10.808  0.00  0.00    +0.000 C 
ATOM     10  C10 UNK     0      36.960 -14.709  11.362  0.00  0.00    +0.000 C 
ATOM     11  N11 UNK     0      36.956 -13.396  11.927  0.00  0.00    +0.000 N 
ATOM     12  C12 UNK     0      38.189 -12.546  12.013  0.00  0.00    +0.000 C 
ATOM     13  C13 UNK     0      38.678 -12.405  13.493  0.00  0.00    +0.000 C 
ATOM     14  N14 UNK     0      39.429 -11.247  13.828  0.00  0.00    +0.000 N 
ATOM     15  C19 UNK     0      38.091 -15.441  11.278  0.00  0.00    +0.000 C 
ATOM     16  C20 UNK     0      35.720 -12.739  12.374  0.00  0.00    +0.000 C 
ATOM     17  C22 UNK     0      38.353 -13.308  14.440  0.00  0.00    +0.000 C 
ATOM     18  C23 UNK     0      38.643 -10.277  14.650  0.00  0.00    +0.000 C 
ATOM     19  C24 UNK     0      40.878 -11.383  14.315  0.00  0.00    +0.000 C 
ATOM     20  C26 UNK     0      41.539  -9.926  14.420  0.00  0.00    +0.000 C 
ATOM     21  N28 UNK     0      42.978  -9.943  14.696  0.00  0.00    +0.000 NA
ATOM     22  C29 UNK     0      43.233 -10.082  16.133  0.00  0.00    +0.000 C 
ATOM     23  C32 UNK     0      43.769  -8.827  14.080  0.00  0.00    +0.000 C 
ATOM     24  C33 UNK     0      45.243  -9.315  14.068  0.00  0.00    +0.000 C 
ATOM     25  O42 UNK     0      46.151  -8.792  14.704  0.00  0.00    +0.000 OA
ATOM     26  N43 UNK     0      45.397 -10.443  13.283  0.00  0.00    +0.000 N 
ATOM     27  C44 UNK     0      46.667 -11.111  13.087  0.00  0.00    +0.000 C 
ATOM     28  C47 UNK     0      47.504 -10.313  12.058  0.00  0.00    +0.000 C 
ATOM     29  C48 UNK     0      48.697  -9.865  12.501  0.00  0.00    +0.000 C 
ATOM     30  N49 UNK     0      47.053 -10.051  10.737  0.00  0.00    +0.000 N 
ATOM     31  C50 UNK     0      45.720 -10.417  10.182  0.00  0.00    +0.000 C 
ATOM     32  C51 UNK     0      45.847 -11.362   8.973  0.00  0.00    +0.000 C 
ATOM     33  N52 UNK     0      46.987 -12.137   8.994  0.00  0.00    +0.000 N 
ATOM     34  C53 UNK     0      47.165 -13.271   8.098  0.00  0.00    +0.000 C 
ATOM     35  C54 UNK     0      46.320 -14.454   8.638  0.00  0.00    +0.000 C 
ATOM     36  N55 UNK     0      46.041 -15.420   7.690  0.00  0.00    +0.000 N 
ATOM     37  O56 UNK     0      44.991 -11.452   8.097  0.00  0.00    +0.000 OA
ATOM     38  O60 UNK     0      45.981 -14.542   9.815  0.00  0.00    +0.000 OA
ATOM     39  C61 UNK     0      45.145 -16.563   7.921  0.00  0.00    +0.000 C 
ATOM     40  C65 UNK     0      43.681 -16.045   7.796  0.00  0.00    +0.000 C 
ATOM     41  N66 UNK     0      43.277 -15.519   6.553  0.00  0.00    +0.000 N 
ATOM     42  C67 UNK     0      41.898 -14.948   6.495  0.00  0.00    +0.000 C 
ATOM     43  C68 UNK     0      43.842 -16.006   5.294  0.00  0.00    +0.000 C 
ATOM     44  O69 UNK     0      42.884 -16.105   8.738  0.00  0.00    +0.000 OA
ATOM     45  C70 UNK     0      40.929 -16.122   6.218  0.00  0.00    +0.000 C 
ATOM     46  N71 UNK     0      40.556 -16.815   7.356  0.00  0.00    +0.000 N 
ATOM     47  O72 UNK     0      40.609 -16.477   5.086  0.00  0.00    +0.000 OA
ATOM     48  C73 UNK     0      39.907 -18.123   7.240  0.00  0.00    +0.000 C 
ATOM     49  C74 UNK     0      39.997 -18.864   8.570  0.00  0.00    +0.000 C 
ATOM     50  C77 UNK     0      47.782  -9.116   9.856  0.00  0.00    +0.000 C 
ATOM     51  C78 UNK     0      36.085 -16.158   5.694  0.00  0.00    +0.000 C 
ATOM     52  H2  UNK     0      38.373 -16.148   7.712  0.00  0.00    +0.000 HD
ATOM     53  H58 UNK     0      44.544 -10.932  13.045  0.00  0.00    +0.000 HD
ATOM     54  H69 UNK     0      47.485 -12.119   9.881  0.00  0.00    +0.000 HD
ATOM     55  H71 UNK     0      46.132 -15.119   6.730  0.00  0.00    +0.000 HD
ATOM     56  H90 UNK     0      41.154 -16.653   8.169  0.00  0.00    +0.000 HD
ENDROOT
BRANCH  39  57
ATOM     57  C62 UNK     0      45.419 -17.379   9.212  0.00  0.00    +0.000 C 
ATOM     58  C63 UNK     0      44.505 -18.613   9.282  0.00  0.00    +0.000 C 
ATOM     59  C64 UNK     0      46.875 -17.860   9.286  0.00  0.00    +0.000 C 
ENDBRANCH  39  57
BRANCH  19  60
ATOM     60  C25 UNK     0      41.785 -12.326  13.440  0.00  0.00    +0.000 C 
ATOM     61  C30 UNK     0      42.293 -11.702  12.138  0.00  0.00    +0.000 C 
ATOM     62  C31 UNK     0      42.927 -13.026  14.182  0.00  0.00    +0.000 C 
ENDBRANCH  19  60
BRANCH  20  63
ATOM     63  O27 UNK     0      41.243  -9.191  13.226  0.00  0.00    +0.000 OA
ATOM     64  H34 UNK     0      42.008  -9.369  12.639  0.00  0.00    +0.000 HD
ENDBRANCH  20  63
BRANCH  27  65
ATOM     65  C45 UNK     0      46.472 -12.598  12.743  0.00  0.00    +0.000 C 
ATOM     66  C46 UNK     0      47.780 -13.338  12.499  0.00  0.00    +0.000 C 
ENDBRANCH  27  65
BRANCH  23  67
ATOM     67  C34 UNK     0      43.624  -7.401  14.697  0.00  0.00    +0.000 C 
BRANCH  67  68
ATOM     68  C35 UNK     0      44.141  -6.235  13.797  0.00  0.00    +0.000 C 
ATOM     69  C41 UNK     0      44.705  -5.038  14.568  0.00  0.00    +0.000 C 
BRANCH  68  70
ATOM     70  C36 UNK     0      43.003  -5.780  12.843  0.00  0.00    +0.000 C 
BRANCH  70  71
ATOM     71  C37 UNK     0      42.641  -4.325  12.987  0.00  0.00    +0.000 C 
ATOM     72  C38 UNK     0      41.879  -3.653  12.112  0.00  0.00    +0.000 C 
ATOM     73  C39 UNK     0      41.525  -2.209  12.246  0.00  0.00    +0.000 C 
ENDBRANCH  70  71
ENDBRANCH  68  70
ENDBRANCH  67  68
BRANCH  67  74
ATOM     74  O40 UNK     0      42.228  -7.119  14.946  0.00  0.00    +0.000 OA
ATOM     75  H54 UNK     0      42.068  -7.390  15.873  0.00  0.00    +0.000 HD
ENDBRANCH  67  74
ENDBRANCH  23  67
BRANCH  34  76
ATOM     76  C57 UNK     0      48.659 -13.626   8.030  0.00  0.00    +0.000 C 
BRANCH  76  77
ATOM     77  C58 UNK     0      49.093 -14.916   8.755  0.00  0.00    +0.000 C 
ATOM     78  C59 UNK     0      49.719 -15.940   7.808  0.00  0.00    +0.000 C 
ATOM     79  C76 UNK     0      50.092 -14.567   9.865  0.00  0.00    +0.000 C 
ENDBRANCH  76  77
ENDBRANCH  34  76
BRANCH  12  80
ATOM     80  C21 UNK     0      37.985 -11.172  11.308  0.00  0.00    +0.000 C 
BRANCH  80  81
ATOM     81  C82 UNK     0      38.504 -11.083   9.859  0.00  0.00    +0.000 C 
ATOM     82  C83 UNK     0      37.408 -11.346   8.829  0.00  0.00    +0.000 C 
ATOM     83  C84 UNK     0      39.646 -12.085   9.659  0.00  0.00    +0.000 C 
ENDBRANCH  80  81
ENDBRANCH  12  80
BRANCH  42  84
ATOM     84  C75 UNK     0      41.782 -13.819   5.450  0.00  0.00    +0.000 C 
BRANCH  84  85
ATOM     85  C79 UNK     0      40.918 -12.620   5.894  0.00  0.00    +0.000 C 
ATOM     86  C80 UNK     0      40.372 -11.808   4.720  0.00  0.00    +0.000 C 
ATOM     87  C81 UNK     0      41.740 -11.705   6.807  0.00  0.00    +0.000 C 
ENDBRANCH  84  85
ENDBRANCH  42  84
BRANCH   9  88
ATOM     88  C15 UNK     0      34.751 -15.959  11.922  0.00  0.00    +0.000 C 
BRANCH  88  89
ATOM     89  C16 UNK     0      33.227 -15.784  11.719  0.00  0.00    +0.000 C 
ATOM     90  C17 UNK     0      32.467 -15.577  13.027  0.00  0.00    +0.000 C 
ATOM     91  C18 UNK     0      32.962 -14.604  10.779  0.00  0.00    +0.000 C 
ENDBRANCH  88  89
ENDBRANCH   9  88
TORSDOF 17
ENDMDL
MODEL 9
REMARK VINA RESULT:      -4.6      2.816      8.733
REMARK  Name = CyclosporineA.pdb
REMARK  40 active torsions:
REMARK  status: ('A' for Active; 'I' for Inactive)
REMARK    1  A    between atoms: C1_1  and  C78_78
REMARK    2  A    between atoms: N7_7  and  C8_8
REMARK    3  A    between atoms: C9_9  and  C15_15
REMARK    4  A    between atoms: N11_11  and  C20_20
REMARK    5  A    between atoms: C12_12  and  C21_21
REMARK    6  A    between atoms: N14_14  and  C23_23
REMARK    7  A    between atoms: C15_15  and  C16_16
REMARK    8  A    between atoms: C16_16  and  C17_17
REMARK    9  A    between atoms: C16_16  and  C18_18
REMARK   10  A    between atoms: C21_21  and  C82_82
REMARK   11  A    between atoms: C24_24  and  C25_25
REMARK   12  A    between atoms: C25_25  and  C30_30
REMARK   13  A    between atoms: C25_25  and  C31_31
REMARK   14  A    between atoms: C26_26  and  O27_27
REMARK   15  A    between atoms: N28_28  and  C29_29
REMARK   16  A    between atoms: C32_32  and  C34_34
REMARK   17  A    between atoms: C34_34  and  C35_35
REMARK   18  A    between atoms: C34_34  and  O40_40
REMARK   19  A    between atoms: C35_35  and  C36_36
REMARK   20  A    between atoms: C35_35  and  C41_41
REMARK   21  A    between atoms: C36_36  and  C37_37
REMARK   22  A    between atoms: C38_38  and  C39_39
REMARK   23  A    between atoms: C44_44  and  C45_45
REMARK   24  A    between atoms: C45_45  and  C46_46
REMARK   25  A    between atoms: N49_49  and  C77_77
REMARK   26  A    between atoms: C53_53  and  C57_57
REMARK   27  A    between atoms: C57_57  and  C58_58
REMARK   28  A    between atoms: C58_58  and  C59_59
REMARK   29  A    between atoms: C58_58  and  C76_76
REMARK   30  A    between atoms: C61_61  and  C62_62
REMARK   31  A    between atoms: C62_62  and  C63_63
REMARK   32  A    between atoms: C62_62  and  C64_64
REMARK   33  A    between atoms: N66_66  and  C68_68
REMARK   34  A    between atoms: C67_67  and  C75_75
REMARK   35  A    between atoms: C73_73  and  C74_74
REMARK   36  A    between atoms: C75_75  and  C79_79
REMARK   37  A    between atoms: C79_79  and  C80_80
REMARK   38  A    between atoms: C79_79  and  C81_81
REMARK   39  A    between atoms: C82_82  and  C83_83
REMARK   40  A    between atoms: C82_82  and  C84_84
REMARK                            x       y       z     vdW  Elec       q    Type
REMARK                         _______ _______ _______ _____ _____    ______ ____
ROOT
ATOM      1  C1  UNK     0      54.402   4.101   4.493  0.00  0.00    +0.000 C 
ATOM      2  C2  UNK     0      54.058   5.024   5.694  0.00  0.00    +0.000 C 
ATOM      3  N3  UNK     0      54.419   2.745   5.019  0.00  0.00    +0.000 N 
ATOM      4  C4  UNK     0      54.175   1.631   4.252  0.00  0.00    +0.000 C 
ATOM      5  O5  UNK     0      53.832   1.693   3.073  0.00  0.00    +0.000 OA
ATOM      6  C6  UNK     0      55.053   5.725   6.275  0.00  0.00    +0.000 C 
ATOM      7  N7  UNK     0      52.703   5.063   6.153  0.00  0.00    +0.000 N 
ATOM      8  C8  UNK     0      51.638   4.338   5.435  0.00  0.00    +0.000 C 
ATOM      9  C9  UNK     0      52.281   5.814   7.392  0.00  0.00    +0.000 C 
ATOM     10  C10 UNK     0      52.511   4.951   8.683  0.00  0.00    +0.000 C 
ATOM     11  N11 UNK     0      52.899   5.611   9.891  0.00  0.00    +0.000 N 
ATOM     12  C12 UNK     0      53.622   4.911  11.003  0.00  0.00    +0.000 C 
ATOM     13  C13 UNK     0      52.695   4.720  12.249  0.00  0.00    +0.000 C 
ATOM     14  N14 UNK     0      53.319   4.615  13.521  0.00  0.00    +0.000 N 
ATOM     15  C19 UNK     0      52.358   3.612   8.627  0.00  0.00    +0.000 C 
ATOM     16  C20 UNK     0      52.709   7.055  10.089  0.00  0.00    +0.000 C 
ATOM     17  C22 UNK     0      51.351   4.718  12.144  0.00  0.00    +0.000 C 
ATOM     18  C23 UNK     0      53.135   5.845  14.349  0.00  0.00    +0.000 C 
ATOM     19  C24 UNK     0      53.173   3.330  14.346  0.00  0.00    +0.000 C 
ATOM     20  C26 UNK     0      54.138   3.410  15.624  0.00  0.00    +0.000 C 
ATOM     21  N28 UNK     0      54.223   2.162  16.386  0.00  0.00    +0.000 NA
ATOM     22  C29 UNK     0      53.105   2.047  17.329  0.00  0.00    +0.000 C 
ATOM     23  C32 UNK     0      55.547   1.887  17.034  0.00  0.00    +0.000 C 
ATOM     24  C33 UNK     0      55.564   0.361  17.323  0.00  0.00    +0.000 C 
ATOM     25  O42 UNK     0      55.600  -0.132  18.445  0.00  0.00    +0.000 OA
ATOM     26  N43 UNK     0      55.489  -0.377  16.155  0.00  0.00    +0.000 N 
ATOM     27  C44 UNK     0      55.490  -1.825  16.124  0.00  0.00    +0.000 C 
ATOM     28  C47 UNK     0      56.939  -2.333  16.321  0.00  0.00    +0.000 C 
ATOM     29  C48 UNK     0      57.134  -3.135  17.389  0.00  0.00    +0.000 C 
ATOM     30  N49 UNK     0      58.004  -1.976  15.451  0.00  0.00    +0.000 N 
ATOM     31  C50 UNK     0      57.915  -1.026  14.307  0.00  0.00    +0.000 C 
ATOM     32  C51 UNK     0      58.267  -1.709  12.973  0.00  0.00    +0.000 C 
ATOM     33  N52 UNK     0      58.011  -3.064  12.959  0.00  0.00    +0.000 N 
ATOM     34  C53 UNK     0      58.021  -3.838  11.726  0.00  0.00    +0.000 C 
ATOM     35  C54 UNK     0      56.700  -3.554  10.964  0.00  0.00    +0.000 C 
ATOM     36  N55 UNK     0      56.758  -3.855   9.617  0.00  0.00    +0.000 N 
ATOM     37  O56 UNK     0      58.692  -1.098  11.996  0.00  0.00    +0.000 OA
ATOM     38  O60 UNK     0      55.685  -3.152  11.526  0.00  0.00    +0.000 OA
ATOM     39  C61 UNK     0      55.685  -3.546   8.660  0.00  0.00    +0.000 C 
ATOM     40  C65 UNK     0      55.792  -2.033   8.307  0.00  0.00    +0.000 C 
ATOM     41  N66 UNK     0      56.971  -1.589   7.677  0.00  0.00    +0.000 N 
ATOM     42  C67 UNK     0      57.079  -0.120   7.436  0.00  0.00    +0.000 C 
ATOM     43  C68 UNK     0      57.739  -2.460   6.786  0.00  0.00    +0.000 C 
ATOM     44  O69 UNK     0      54.875  -1.239   8.545  0.00  0.00    +0.000 OA
ATOM     45  C70 UNK     0      56.355   0.179   6.101  0.00  0.00    +0.000 C 
ATOM     46  N71 UNK     0      54.987   0.337   6.235  0.00  0.00    +0.000 N 
ATOM     47  O72 UNK     0      56.921   0.166   5.012  0.00  0.00    +0.000 OA
ATOM     48  C73 UNK     0      54.125   0.312   5.051  0.00  0.00    +0.000 C 
ATOM     49  C74 UNK     0      52.679   0.061   5.468  0.00  0.00    +0.000 C 
ATOM     50  C77 UNK     0      59.403  -2.309  15.787  0.00  0.00    +0.000 C 
ATOM     51  C78 UNK     0      55.706   4.389   3.737  0.00  0.00    +0.000 C 
ATOM     52  H2  UNK     0      54.672   2.612   5.990  0.00  0.00    +0.000 HD
ATOM     53  H58 UNK     0      55.185   0.131  15.335  0.00  0.00    +0.000 HD
ATOM     54  H69 UNK     0      57.457  -3.389  13.748  0.00  0.00    +0.000 HD
ATOM     55  H71 UNK     0      57.689  -3.917   9.229  0.00  0.00    +0.000 HD
ATOM     56  H90 UNK     0      54.599  -0.021   7.111  0.00  0.00    +0.000 HD
ENDROOT
BRANCH  39  57
ATOM     57  C62 UNK     0      54.261  -3.998   9.081  0.00  0.00    +0.000 C 
ATOM     58  C63 UNK     0      53.264  -3.806   7.925  0.00  0.00    +0.000 C 
ATOM     59  C64 UNK     0      54.230  -5.475   9.496  0.00  0.00    +0.000 C 
ENDBRANCH  39  57
BRANCH  19  60
ATOM     60  C25 UNK     0      53.439   1.998  13.551  0.00  0.00    +0.000 C 
ATOM     61  C30 UNK     0      54.916   1.695  13.279  0.00  0.00    +0.000 C 
ATOM     62  C31 UNK     0      52.724   0.752  14.082  0.00  0.00    +0.000 C 
ENDBRANCH  19  60
BRANCH  20  63
ATOM     63  O27 UNK     0      55.433   3.857  15.205  0.00  0.00    +0.000 OA
ATOM     64  H34 UNK     0      55.267   4.300  14.346  0.00  0.00    +0.000 HD
ENDBRANCH  20  63
BRANCH  27  65
ATOM     65  C45 UNK     0      54.785  -2.360  14.866  0.00  0.00    +0.000 C 
ATOM     66  C46 UNK     0      54.858  -3.875  14.732  0.00  0.00    +0.000 C 
ENDBRANCH  27  65
BRANCH  23  67
ATOM     67  C34 UNK     0      55.936   2.729  18.289  0.00  0.00    +0.000 C 
BRANCH  67  68
ATOM     68  C35 UNK     0      57.469   2.843  18.560  0.00  0.00    +0.000 C 
ATOM     69  C41 UNK     0      57.881   4.074  19.373  0.00  0.00    +0.000 C 
BRANCH  68  70
ATOM     70  C36 UNK     0      58.234   2.803  17.209  0.00  0.00    +0.000 C 
BRANCH  70  71
ATOM     71  C37 UNK     0      58.759   4.146  16.773  0.00  0.00    +0.000 C 
ATOM     72  C38 UNK     0      59.121   4.435  15.514  0.00  0.00    +0.000 C 
ATOM     73  C39 UNK     0      59.651   5.762  15.080  0.00  0.00    +0.000 C 
ENDBRANCH  70  71
ENDBRANCH  68  70
ENDBRANCH  67  68
BRANCH  67  74
ATOM     74  O40 UNK     0      55.461   4.085  18.131  0.00  0.00    +0.000 OA
ATOM     75  H54 UNK     0      55.934   4.437  17.350  0.00  0.00    +0.000 HD
ENDBRANCH  67  74
ENDBRANCH  23  67
BRANCH  34  76
ATOM     76  C57 UNK     0      58.166  -5.329  12.072  0.00  0.00    +0.000 C 
BRANCH  76  77
ATOM     77  C58 UNK     0      57.225  -5.877  13.163  0.00  0.00    +0.000 C 
ATOM     78  C59 UNK     0      56.185  -6.850  12.606  0.00  0.00    +0.000 C 
ATOM     79  C76 UNK     0      58.052  -6.577  14.248  0.00  0.00    +0.000 C 
ENDBRANCH  76  77
ENDBRANCH  34  76
BRANCH  12  80
ATOM     80  C21 UNK     0      54.964   5.622  11.348  0.00  0.00    +0.000 C 
BRANCH  80  81
ATOM     81  C82 UNK     0      56.243   4.849  10.971  0.00  0.00    +0.000 C 
ATOM     82  C83 UNK     0      57.207   4.706  12.147  0.00  0.00    +0.000 C 
ATOM     83  C84 UNK     0      56.951   5.559   9.813  0.00  0.00    +0.000 C 
ENDBRANCH  80  81
ENDBRANCH  12  80
BRANCH  42  84
ATOM     84  C75 UNK     0      58.545   0.363   7.441  0.00  0.00    +0.000 C 
BRANCH  84  85
ATOM     85  C79 UNK     0      58.853   1.466   8.474  0.00  0.00    +0.000 C 
ATOM     86  C80 UNK     0      57.750   1.635   9.518  0.00  0.00    +0.000 C 
ATOM     87  C81 UNK     0      59.076   2.799   7.751  0.00  0.00    +0.000 C 
ENDBRANCH  84  85
ENDBRANCH  42  84
BRANCH   9  88
ATOM     88  C15 UNK     0      50.846   6.415   7.327  0.00  0.00    +0.000 C 
BRANCH  88  89
ATOM     89  C16 UNK     0      50.802   7.867   6.793  0.00  0.00    +0.000 C 
ATOM     90  C17 UNK     0      50.877   8.916   7.899  0.00  0.00    +0.000 C 
ATOM     91  C18 UNK     0      51.945   8.087   5.798  0.00  0.00    +0.000 C 
ENDBRANCH  88  89
ENDBRANCH   9  88
TORSDOF 17
ENDMDL
