MODEL 1
REMARK VINA RESULT:      -9.7      0.000      0.000
REMARK  Name = Cyclosporin_A.pdbqt.pdb
REMARK  4 active torsions:
REMARK  status: ('A' for Active; 'I' for Inactive)
REMARK    1  A    between atoms: N_13  and  C_36
REMARK    2  A    between atoms: C_36  and  O_70
REMARK    3  A    between atoms: C_72  and  C_73
REMARK    4  A    between atoms: C_75  and  C_76
REMARK                            x       y       z     vdW  Elec       q    Type
REMARK                         _______ _______ _______ _____ _____    ______ ____
ROOT
ATOM      1  O   UNL     1      54.989   3.641  12.310  0.00  0.00    +0.000 OA
ATOM      2  O   UNL     1      51.915  -0.086  10.587  0.00  0.00    +0.000 OA
ATOM      3  O   UNL     1      49.521   2.191   7.123  0.00  0.00    +0.000 OA
ATOM      4  O   UNL     1      53.359   8.262  12.258  0.00  0.00    +0.000 OA
ATOM      5  O   UNL     1      53.835  -0.465   6.877  0.00  0.00    +0.000 OA
ATOM      6  O   UNL     1      57.752   7.722   0.189  0.00  0.00    +0.000 OA
ATOM      7  O   UNL     1      58.628   7.292  10.713  0.00  0.00    +0.000 OA
ATOM      8  O   UNL     1      56.226  10.728   3.782  0.00  0.00    +0.000 OA
ATOM      9  O   UNL     1      55.936   3.235  -0.032  0.00  0.00    +0.000 OA
ATOM     10  O   UNL     1      57.915  10.257   7.496  0.00  0.00    +0.000 OA
ATOM     11  O   UNL     1      56.337   1.125   3.708  0.00  0.00    +0.000 OA
ATOM     12  N   UNL     1      52.569   1.730  10.746  0.00  0.00    +0.000 NA
ATOM     13  N   UNL     1      53.289   4.737  11.007  0.00  0.00    +0.000 NA
ATOM     14  N   UNL     1      50.456   1.004   8.409  0.00  0.00    +0.000 NA
ATOM     15  N   UNL     1      51.996   0.865   5.630  0.00  0.00    +0.000 NA
ATOM     16  N   UNL     1      54.836   7.363  10.538  0.00  0.00    +0.000 NA
ATOM     17  N   UNL     1      55.568   6.986   0.675  0.00  0.00    +0.000 N 
ATOM     18  N   UNL     1      56.219   8.428   3.344  0.00  0.00    +0.000 N 
ATOM     19  N   UNL     1      57.230   9.260   5.938  0.00  0.00    +0.000 NA
ATOM     20  N   UNL     1      57.351   6.922   8.867  0.00  0.00    +0.000 NA
ATOM     21  N   UNL     1      54.449   2.331   4.778  0.00  0.00    +0.000 NA
ATOM     22  N   UNL     1      55.787   4.262   2.149  0.00  0.00    +0.000 NA
ATOM     23  C   UNL     1      53.786   2.213  11.131  0.00  0.00    +0.000 C 
ATOM     24  C   UNL     1      51.229   1.823   9.127  0.00  0.00    +0.000 C 
ATOM     25  C   UNL     1      53.221   5.892  11.762  0.00  0.00    +0.000 C 
ATOM     26  C   UNL     1      54.694   1.483  11.876  0.00  0.00    +0.000 C 
ATOM     27  C   UNL     1      50.175   2.800   9.482  0.00  0.00    +0.000 C 
ATOM     28  C   UNL     1      53.935   3.558  11.394  0.00  0.00    +0.000 C 
ATOM     29  C   UNL     1      51.987   0.918   9.790  0.00  0.00    +0.000 C 
ATOM     30  C   UNL     1      51.150   0.436   6.525  0.00  0.00    +0.000 C 
ATOM     31  C   UNL     1      50.624   1.508   7.183  0.00  0.00    +0.000 C 
ATOM     32  C   UNL     1      53.644   7.242  11.284  0.00  0.00    +0.000 C 
ATOM     33  C   UNL     1      53.914   0.317  12.152  0.00  0.00    +0.000 C 
ATOM     34  C   UNL     1      55.289   2.358  12.723  0.00  0.00    +0.000 C 
ATOM     35  C   UNL     1      52.793   0.511  11.359  0.00  0.00    +0.000 C 
ATOM     36  C   UNL     1      49.266   1.780   8.451  0.00  0.00    +0.000 C 
ATOM     37  C   UNL     1      56.128   7.565  11.087  0.00  0.00    +0.000 C 
ATOM     38  C   UNL     1      57.010   8.359   2.226  0.00  0.00    +0.000 A 
ATOM     39  C   UNL     1      53.094   0.620   6.338  0.00  0.00    +0.000 C 
ATOM     40  C   UNL     1      55.668   5.648   0.219  0.00  0.00    +0.000 C 
ATOM     41  C   UNL     1      56.028   9.705   5.497  0.00  0.00    +0.000 C 
ATOM     42  C   UNL     1      51.519  -0.197   4.706  0.00  0.00    +0.000 C 
ATOM     43  C   UNL     1      58.304   8.916   1.993  0.00  0.00    +0.000 A 
ATOM     44  C   UNL     1      55.378   5.931  -1.547  0.00  0.00    +0.000 C 
ATOM     45  C   UNL     1      54.150   1.399   5.630  0.00  0.00    +0.000 C 
ATOM     46  C   UNL     1      56.273  11.148   5.147  0.00  0.00    +0.000 C 
ATOM     47  C   UNL     1      56.109   7.950  12.461  0.00  0.00    +0.000 C 
ATOM     48  C   UNL     1      56.700   7.649   1.071  0.00  0.00    +0.000 A 
ATOM     49  C   UNL     1      57.235   7.307  10.346  0.00  0.00    +0.000 C 
ATOM     50  C   UNL     1      56.143   9.475   4.136  0.00  0.00    +0.000 C 
ATOM     51  C   UNL     1      55.844   4.403   0.776  0.00  0.00    +0.000 C 
ATOM     52  C   UNL     1      57.070   8.084   8.019  0.00  0.00    +0.000 C 
ATOM     53  C   UNL     1      59.176   9.714   2.925  0.00  0.00    +0.000 C 
ATOM     54  C   UNL     1      58.716   8.500   0.753  0.00  0.00    +0.000 A 
ATOM     55  C   UNL     1      56.946   9.288   7.278  0.00  0.00    +0.000 C 
ATOM     56  C   UNL     1      55.929   3.151   2.796  0.00  0.00    +0.000 C 
ATOM     57  C   UNL     1      54.626   0.288   6.270  0.00  0.00    +0.000 C 
ATOM     58  C   UNL     1      55.344   6.975  -0.659  0.00  0.00    +0.000 C 
ATOM     59  C   UNL     1      55.384   8.137  13.396  0.00  0.00    +0.000 C 
ATOM     60  C   UNL     1      55.451   2.245   3.915  0.00  0.00    +0.000 C 
ATOM     61  C   UNL     1      57.969  10.634   6.084  0.00  0.00    +0.000 C 
ATOM     62  C   UNL     1      58.496   6.991   9.520  0.00  0.00    +0.000 C 
ATOM     63  C   UNL     1      56.592   1.969   2.833  0.00  0.00    +0.000 C 
ATOM     64  H   UNL     1      54.894   6.648   9.813  0.00  0.00    +0.000 HD
ATOM     65  H   UNL     1      55.851   7.545   3.689  0.00  0.00    +0.000 HD
ATOM     66  H   UNL     1      53.741   3.038   4.596  0.00  0.00    +0.000 HD
ATOM     67  H   UNL     1      55.263   5.022   2.573  0.00  0.00    +0.000 HD
ATOM     68  C   UNL     1      53.149   5.878  13.065  0.00  0.00    +0.000 C 
ATOM     69  C   UNL     1      53.449   6.778  14.125  0.00  0.00    +0.000 C 
ATOM     70  C   UNL     1      53.963   8.036  13.548  0.00  0.00    +0.000 C 
ATOM     71  C   UNL     1      48.949   2.987  10.604  0.00  0.00    +0.000 C 
ATOM     72  C   UNL     1      48.562   4.125  11.177  0.00  0.00    +0.000 C 
ATOM     73  C   UNL     1      48.552   2.270   9.472  0.00  0.00    +0.000 C 
ATOM     74  C   UNL     1      50.522  -0.572   5.659  0.00  0.00    +0.000 C 
ATOM     75  C   UNL     1      51.034  -1.605   4.885  0.00  0.00    +0.000 C 
ATOM     76  C   UNL     1      50.155  -2.352   3.859  0.00  0.00    +0.000 C 
ATOM     77  C   UNL     1      52.271  -1.300   4.350  0.00  0.00    +0.000 C 
ATOM     78  C   UNL     1      56.364  12.624   5.760  0.00  0.00    +0.000 C 
ATOM     79  C   UNL     1      56.128  13.848   5.296  0.00  0.00    +0.000 C 
ATOM     80  C   UNL     1      57.501  11.916   6.153  0.00  0.00    +0.000 C 
ATOM     81  C   UNL     1      55.474   4.739  -2.142  0.00  0.00    +0.000 C 
ATOM     82  C   UNL     1      55.285   4.565  -3.612  0.00  0.00    +0.000 C 
ATOM     83  C   UNL     1      55.737   3.642  -1.285  0.00  0.00    +0.000 C 
ENDROOT
BRANCH  69  84
ATOM     84  C   UNL     1      53.636   6.432  15.485  0.00  0.00    +0.000 C 
ATOM     85  C   UNL     1      53.788   6.143  16.640  0.00  0.00    +0.000 C 
BRANCH  85  86
ATOM     86  C   UNL     1      53.979   5.777  18.116  0.00  0.00    +0.000 C 
ATOM     87  C   UNL     1      54.140   5.459  19.399  0.00  0.00    +0.000 C 
ENDBRANCH  85  86
ENDBRANCH  69  84
BRANCH  13  88
ATOM     88  C   UNL     1      52.905   4.841   9.609  0.00  0.00    +0.000 C 
BRANCH  88  89
ATOM     89  O   UNL     1      52.568   4.958   8.332  0.00  0.00    +0.000 OA
ATOM     90  H   UNL     1      53.113   5.642   7.904  0.00  0.00    +0.000 HD
ENDBRANCH  88  89
ENDBRANCH  13  88
TORSDOF 4
ENDMDL
MODEL 2
REMARK VINA RESULT:      -9.4     26.000     30.827
REMARK  Name = Cyclosporin_A.pdbqt.pdb
REMARK  4 active torsions:
REMARK  status: ('A' for Active; 'I' for Inactive)
REMARK    1  A    between atoms: N_13  and  C_36
REMARK    2  A    between atoms: C_36  and  O_70
REMARK    3  A    between atoms: C_72  and  C_73
REMARK    4  A    between atoms: C_75  and  C_76
REMARK                            x       y       z     vdW  Elec       q    Type
REMARK                         _______ _______ _______ _____ _____    ______ ____
ROOT
ATOM      1  O   UNL     1      22.751  16.210  12.644  0.00  0.00    +0.000 OA
ATOM      2  O   UNL     1      26.283  19.285  14.738  0.00  0.00    +0.000 OA
ATOM      3  O   UNL     1      30.322  16.948  13.667  0.00  0.00    +0.000 OA
ATOM      4  O   UNL     1      23.556  11.377  12.592  0.00  0.00    +0.000 OA
ATOM      5  O   UNL     1      27.881  20.561  11.075  0.00  0.00    +0.000 OA
ATOM      6  O   UNL     1      29.912  14.422   1.840  0.00  0.00    +0.000 OA
ATOM      7  O   UNL     1      21.378  13.751   8.040  0.00  0.00    +0.000 OA
ATOM      8  O   UNL     1      27.983  10.723   4.460  0.00  0.00    +0.000 OA
ATOM      9  O   UNL     1      31.536  18.342   4.179  0.00  0.00    +0.000 OA
ATOM     10  O   UNL     1      24.098  11.121   5.732  0.00  0.00    +0.000 OA
ATOM     11  O   UNL     1      28.568  20.012   6.826  0.00  0.00    +0.000 OA
ATOM     12  N   UNL     1      25.625  17.671  13.894  0.00  0.00    +0.000 NA
ATOM     13  N   UNL     1      24.773  14.911  12.759  0.00  0.00    +0.000 NA
ATOM     14  N   UNL     1      28.814  18.156  14.119  0.00  0.00    +0.000 NA
ATOM     15  N   UNL     1      29.936  18.997  11.265  0.00  0.00    +0.000 NA
ATOM     16  N   UNL     1      23.962  12.805  10.656  0.00  0.00    +0.000 NA
ATOM     17  N   UNL     1      31.003  14.554   3.923  0.00  0.00    +0.000 N 
ATOM     18  N   UNL     1      28.463  12.991   4.782  0.00  0.00    +0.000 N 
ATOM     19  N   UNL     1      25.787  12.110   5.491  0.00  0.00    +0.000 NA
ATOM     20  N   UNL     1      23.631  14.032   7.882  0.00  0.00    +0.000 NA
ATOM     21  N   UNL     1      28.903  18.270   8.563  0.00  0.00    +0.000 NA
ATOM     22  N   UNL     1      29.912  17.050   5.414  0.00  0.00    +0.000 NA
ATOM     23  C   UNL     1      24.515  17.447  13.133  0.00  0.00    +0.000 C 
ATOM     24  C   UNL     1      27.717  17.462  13.806  0.00  0.00    +0.000 C 
ATOM     25  C   UNL     1      24.171  13.690  12.991  0.00  0.00    +0.000 C 
ATOM     26  C   UNL     1      23.406  18.274  13.141  0.00  0.00    +0.000 C 
ATOM     27  C   UNL     1      28.068  16.227  14.542  0.00  0.00    +0.000 C 
ATOM     28  C   UNL     1      24.134  16.153  12.844  0.00  0.00    +0.000 C 
ATOM     29  C   UNL     1      26.779  18.432  13.916  0.00  0.00    +0.000 C 
ATOM     30  C   UNL     1      29.831  19.100  12.561  0.00  0.00    +0.000 C 
ATOM     31  C   UNL     1      29.605  17.861  13.084  0.00  0.00    +0.000 C 
ATOM     32  C   UNL     1      24.176  12.547  12.027  0.00  0.00    +0.000 C 
ATOM     33  C   UNL     1      23.775  19.178  14.184  0.00  0.00    +0.000 C 
ATOM     34  C   UNL     1      22.324  17.468  13.024  0.00  0.00    +0.000 C 
ATOM     35  C   UNL     1      25.091  18.823  14.439  0.00  0.00    +0.000 C 
ATOM     36  C   UNL     1      29.504  17.120  14.806  0.00  0.00    +0.000 C 
ATOM     37  C   UNL     1      22.697  12.850  10.019  0.00  0.00    +0.000 C 
ATOM     38  C   UNL     1      28.805  13.383   3.513  0.00  0.00    +0.000 A 
ATOM     39  C   UNL     1      28.703  19.407  10.986  0.00  0.00    +0.000 C 
ATOM     40  C   UNL     1      31.368  15.924   3.907  0.00  0.00    +0.000 C 
ATOM     41  C   UNL     1      26.872  11.450   5.965  0.00  0.00    +0.000 C 
ATOM     42  C   UNL     1      31.013  20.020  11.296  0.00  0.00    +0.000 C 
ATOM     43  C   UNL     1      28.109  13.181   2.283  0.00  0.00    +0.000 A 
ATOM     44  C   UNL     1      32.880  15.799   2.915  0.00  0.00    +0.000 C 
ATOM     45  C   UNL     1      28.508  18.993   9.566  0.00  0.00    +0.000 C 
ATOM     46  C   UNL     1      26.890  10.161   5.188  0.00  0.00    +0.000 C 
ATOM     47  C   UNL     1      21.641  12.305  10.810  0.00  0.00    +0.000 C 
ATOM     48  C   UNL     1      29.928  14.135   3.184  0.00  0.00    +0.000 A 
ATOM     49  C   UNL     1      22.559  13.452   8.811  0.00  0.00    +0.000 C 
ATOM     50  C   UNL     1      27.846  11.867   5.072  0.00  0.00    +0.000 C 
ATOM     51  C   UNL     1      30.909  17.097   4.458  0.00  0.00    +0.000 C 
ATOM     52  C   UNL     1      24.384  12.950   7.242  0.00  0.00    +0.000 C 
ATOM     53  C   UNL     1      26.787  12.504   2.039  0.00  0.00    +0.000 C 
ATOM     54  C   UNL     1      28.810  13.832   1.300  0.00  0.00    +0.000 A 
ATOM     55  C   UNL     1      24.951  11.851   6.546  0.00  0.00    +0.000 C 
ATOM     56  C   UNL     1      29.398  18.075   6.013  0.00  0.00    +0.000 C 
ATOM     57  C   UNL     1      27.783  20.098   9.919  0.00  0.00    +0.000 C 
ATOM     58  C   UNL     1      32.161  14.676   3.235  0.00  0.00    +0.000 C 
ATOM     59  C   UNL     1      21.389  11.838  11.885  0.00  0.00    +0.000 C 
ATOM     60  C   UNL     1      28.915  18.697   7.309  0.00  0.00    +0.000 C 
ATOM     61  C   UNL     1      25.112  10.944   4.693  0.00  0.00    +0.000 C 
ATOM     62  C   UNL     1      22.389  14.157   7.453  0.00  0.00    +0.000 C 
ATOM     63  C   UNL     1      29.015  19.366   5.864  0.00  0.00    +0.000 C 
ATOM     64  H   UNL     1      24.521  13.597  10.337  0.00  0.00    +0.000 HD
ATOM     65  H   UNL     1      28.496  13.712   5.498  0.00  0.00    +0.000 HD
ATOM     66  H   UNL     1      29.455  17.443   8.776  0.00  0.00    +0.000 HD
ATOM     67  H   UNL     1      29.881  16.141   5.866  0.00  0.00    +0.000 HD
ATOM     68  C   UNL     1      23.229  13.526  13.878  0.00  0.00    +0.000 C 
ATOM     69  C   UNL     1      22.173  12.599  14.105  0.00  0.00    +0.000 C 
ATOM     70  C   UNL     1      22.201  11.580  13.037  0.00  0.00    +0.000 C 
ATOM     71  C   UNL     1      27.999  15.618  16.099  0.00  0.00    +0.000 C 
ATOM     72  C   UNL     1      27.743  14.359  16.449  0.00  0.00    +0.000 C 
ATOM     73  C   UNL     1      29.161  16.353  15.848  0.00  0.00    +0.000 C 
ATOM     74  C   UNL     1      30.958  20.029  12.724  0.00  0.00    +0.000 C 
ATOM     75  C   UNL     1      31.279  21.240  12.127  0.00  0.00    +0.000 C 
ATOM     76  C   UNL     1      32.674  21.877  12.302  0.00  0.00    +0.000 C 
ATOM     77  C   UNL     1      30.865  21.306  10.810  0.00  0.00    +0.000 C 
ATOM     78  C   UNL     1      26.273   8.685   5.131  0.00  0.00    +0.000 C 
ATOM     79  C   UNL     1      26.701   7.506   4.688  0.00  0.00    +0.000 C 
ATOM     80  C   UNL     1      25.282   9.588   4.742  0.00  0.00    +0.000 C 
ATOM     81  C   UNL     1      33.344  17.043   2.775  0.00  0.00    +0.000 C 
ATOM     82  C   UNL     1      34.594  17.347   2.018  0.00  0.00    +0.000 C 
ATOM     83  C   UNL     1      32.591  18.057   3.416  0.00  0.00    +0.000 C 
ENDROOT
BRANCH  69  84
ATOM     84  C   UNL     1      21.042  12.810  14.928  0.00  0.00    +0.000 C 
ATOM     85  C   UNL     1      20.081  12.997  15.623  0.00  0.00    +0.000 C 
BRANCH  85  86
ATOM     86  C   UNL     1      18.855  13.240  16.511  0.00  0.00    +0.000 C 
ATOM     87  C   UNL     1      17.793  13.455  17.284  0.00  0.00    +0.000 C 
ENDBRANCH  85  86
ENDBRANCH  69  84
BRANCH  13  88
ATOM     88  C   UNL     1      26.077  14.891  12.116  0.00  0.00    +0.000 C 
BRANCH  88  89
ATOM     89  O   UNL     1      27.258  14.856  11.515  0.00  0.00    +0.000 OA
ATOM     90  H   UNL     1      27.952  14.622  12.157  0.00  0.00    +0.000 HD
ENDBRANCH  88  89
ENDBRANCH  13  88
TORSDOF 4
ENDMDL
MODEL 3
REMARK VINA RESULT:      -9.1     25.426     30.525
REMARK  Name = Cyclosporin_A.pdbqt.pdb
REMARK  4 active torsions:
REMARK  status: ('A' for Active; 'I' for Inactive)
REMARK    1  A    between atoms: N_13  and  C_36
REMARK    2  A    between atoms: C_36  and  O_70
REMARK    3  A    between atoms: C_72  and  C_73
REMARK    4  A    between atoms: C_75  and  C_76
REMARK                            x       y       z     vdW  Elec       q    Type
REMARK                         _______ _______ _______ _____ _____    ______ ____
ROOT
ATOM      1  O   UNL     1      26.995  21.041  15.112  0.00  0.00    +0.000 OA
ATOM      2  O   UNL     1      24.415  16.900  13.527  0.00  0.00    +0.000 OA
ATOM      3  O   UNL     1      27.961  13.729  12.989  0.00  0.00    +0.000 OA
ATOM      4  O   UNL     1      31.529  21.794  13.414  0.00  0.00    +0.000 OA
ATOM      5  O   UNL     1      25.061  14.695  17.036  0.00  0.00    +0.000 OA
ATOM      6  O   UNL     1      34.490  13.968  23.173  0.00  0.00    +0.000 OA
ATOM      7  O   UNL     1      30.529  22.745  18.817  0.00  0.00    +0.000 OA
ATOM      8  O   UNL     1      36.301  17.164  19.891  0.00  0.00    +0.000 OA
ATOM      9  O   UNL     1      30.562  11.386  21.998  0.00  0.00    +0.000 OA
ATOM     10  O   UNL     1      34.447  20.815  19.574  0.00  0.00    +0.000 OA
ATOM     11  O   UNL     1      27.309  13.880  20.657  0.00  0.00    +0.000 OA
ATOM     12  N   UNL     1      25.991  17.963  13.898  0.00  0.00    +0.000 NA
ATOM     13  N   UNL     1      28.643  19.546  14.197  0.00  0.00    +0.000 NA
ATOM     14  N   UNL     1      26.319  14.811  13.251  0.00  0.00    +0.000 NA
ATOM     15  N   UNL     1      26.927  13.259  15.959  0.00  0.00    +0.000 NA
ATOM     16  N   UNL     1      31.084  20.807  15.600  0.00  0.00    +0.000 NA
ATOM     17  N   UNL     1      33.889  13.061  21.085  0.00  0.00    +0.000 N 
ATOM     18  N   UNL     1      34.289  16.023  20.251  0.00  0.00    +0.000 N 
ATOM     19  N   UNL     1      34.102  18.887  19.806  0.00  0.00    +0.000 NA
ATOM     20  N   UNL     1      30.934  20.514  18.633  0.00  0.00    +0.000 NA
ATOM     21  N   UNL     1      28.303  14.249  18.413  0.00  0.00    +0.000 NA
ATOM     22  N   UNL     1      30.825  13.427  20.734  0.00  0.00    +0.000 NA
ATOM     23  C   UNL     1      26.179  19.023  14.737  0.00  0.00    +0.000 C 
ATOM     24  C   UNL     1      26.763  16.043  13.518  0.00  0.00    +0.000 C 
ATOM     25  C   UNL     1      29.485  20.518  13.693  0.00  0.00    +0.000 C 
ATOM     26  C   UNL     1      25.147  19.812  15.210  0.00  0.00    +0.000 C 
ATOM     27  C   UNL     1      27.682  16.157  12.364  0.00  0.00    +0.000 C 
ATOM     28  C   UNL     1      27.338  19.767  14.648  0.00  0.00    +0.000 C 
ATOM     29  C   UNL     1      25.610  16.634  13.913  0.00  0.00    +0.000 C 
ATOM     30  C   UNL     1      26.327  13.429  14.814  0.00  0.00    +0.000 C 
ATOM     31  C   UNL     1      27.175  14.074  13.964  0.00  0.00    +0.000 C 
ATOM     32  C   UNL     1      30.861  20.795  14.206  0.00  0.00    +0.000 C 
ATOM     33  C   UNL     1      24.052  19.262  14.474  0.00  0.00    +0.000 C 
ATOM     34  C   UNL     1      25.621  21.080  15.255  0.00  0.00    +0.000 C 
ATOM     35  C   UNL     1      24.621  18.149  13.874  0.00  0.00    +0.000 C 
ATOM     36  C   UNL     1      27.168  14.539  12.145  0.00  0.00    +0.000 C 
ATOM     37  C   UNL     1      30.946  21.939  16.441  0.00  0.00    +0.000 C 
ATOM     38  C   UNL     1      34.502  15.475  21.490  0.00  0.00    +0.000 A 
ATOM     39  C   UNL     1      26.339  14.274  16.584  0.00  0.00    +0.000 C 
ATOM     40  C   UNL     1      32.772  12.283  21.484  0.00  0.00    +0.000 C 
ATOM     41  C   UNL     1      34.801  18.106  18.947  0.00  0.00    +0.000 C 
ATOM     42  C   UNL     1      26.289  11.921  16.066  0.00  0.00    +0.000 C 
ATOM     43  C   UNL     1      34.953  16.099  22.693  0.00  0.00    +0.000 A 
ATOM     44  C   UNL     1      33.651  10.813  22.077  0.00  0.00    +0.000 C 
ATOM     45  C   UNL     1      27.183  14.475  17.797  0.00  0.00    +0.000 C 
ATOM     46  C   UNL     1      36.241  18.433  19.237  0.00  0.00    +0.000 C 
ATOM     47  C   UNL     1      30.858  23.172  15.728  0.00  0.00    +0.000 C 
ATOM     48  C   UNL     1      34.251  14.150  21.832  0.00  0.00    +0.000 A 
ATOM     49  C   UNL     1      30.822  21.784  17.784  0.00  0.00    +0.000 C 
ATOM     50  C   UNL     1      35.019  16.983  19.728  0.00  0.00    +0.000 C 
ATOM     51  C   UNL     1      31.402  12.393  21.447  0.00  0.00    +0.000 C 
ATOM     52  C   UNL     1      32.333  20.090  18.727  0.00  0.00    +0.000 C 
ATOM     53  C   UNL     1      35.297  17.543  22.942  0.00  0.00    +0.000 C 
ATOM     54  C   UNL     1      34.924  15.152  23.685  0.00  0.00    +0.000 A 
ATOM     55  C   UNL     1      33.720  19.844  18.902  0.00  0.00    +0.000 C 
ATOM     56  C   UNL     1      29.554  13.638  20.614  0.00  0.00    +0.000 C 
ATOM     57  C   UNL     1      25.876  14.842  17.972  0.00  0.00    +0.000 C 
ATOM     58  C   UNL     1      34.342  11.872  21.544  0.00  0.00    +0.000 C 
ATOM     59  C   UNL     1      30.808  23.643  14.627  0.00  0.00    +0.000 C 
ATOM     60  C   UNL     1      28.392  14.003  19.712  0.00  0.00    +0.000 C 
ATOM     61  C   UNL     1      35.258  19.829  20.287  0.00  0.00    +0.000 C 
ATOM     62  C   UNL     1      30.654  21.615  19.305  0.00  0.00    +0.000 C 
ATOM     63  C   UNL     1      28.359  13.583  21.251  0.00  0.00    +0.000 C 
ATOM     64  H   UNL     1      30.645  20.004  16.051  0.00  0.00    +0.000 HD
ATOM     65  H   UNL     1      33.390  15.822  19.820  0.00  0.00    +0.000 HD
ATOM     66  H   UNL     1      29.106  14.003  17.839  0.00  0.00    +0.000 HD
ATOM     67  H   UNL     1      31.458  13.778  20.021  0.00  0.00    +0.000 HD
ATOM     68  C   UNL     1      29.052  21.531  12.994  0.00  0.00    +0.000 C 
ATOM     69  C   UNL     1      29.514  22.839  12.677  0.00  0.00    +0.000 C 
ATOM     70  C   UNL     1      30.825  23.049  13.323  0.00  0.00    +0.000 C 
ATOM     71  C   UNL     1      27.628  16.539  10.736  0.00  0.00    +0.000 C 
ATOM     72  C   UNL     1      28.551  17.205  10.044  0.00  0.00    +0.000 C 
ATOM     73  C   UNL     1      27.373  15.188  10.992  0.00  0.00    +0.000 C 
ATOM     74  C   UNL     1      25.737  12.084  14.758  0.00  0.00    +0.000 C 
ATOM     75  C   UNL     1      24.965  11.352  15.650  0.00  0.00    +0.000 C 
ATOM     76  C   UNL     1      24.702   9.846  15.437  0.00  0.00    +0.000 C 
ATOM     77  C   UNL     1      25.286  11.617  16.967  0.00  0.00    +0.000 C 
ATOM     78  C   UNL     1      37.413  19.476  18.918  0.00  0.00    +0.000 C 
ATOM     79  C   UNL     1      38.740  19.406  18.859  0.00  0.00    +0.000 C 
ATOM     80  C   UNL     1      36.491  20.098  19.762  0.00  0.00    +0.000 C 
ATOM     81  C   UNL     1      32.718   9.972  22.529  0.00  0.00    +0.000 C 
ATOM     82  C   UNL     1      33.059   8.634  23.095  0.00  0.00    +0.000 C 
ATOM     83  C   UNL     1      31.378  10.416  22.412  0.00  0.00    +0.000 C 
ENDROOT
BRANCH  69  84
ATOM     84  C   UNL     1      28.722  23.909  12.198  0.00  0.00    +0.000 C 
ATOM     85  C   UNL     1      28.047  24.818  11.799  0.00  0.00    +0.000 C 
BRANCH  85  86
ATOM     86  C   UNL     1      27.182  25.978  11.293  0.00  0.00    +0.000 C 
ATOM     87  C   UNL     1      26.427  26.984  10.856  0.00  0.00    +0.000 C 
ENDBRANCH  85  86
ENDBRANCH  69  84
BRANCH  13  88
ATOM     88  C   UNL     1      29.244  18.268  14.541  0.00  0.00    +0.000 C 
BRANCH  88  89
ATOM     89  O   UNL     1      29.811  17.113  14.865  0.00  0.00    +0.000 OA
ATOM     90  H   UNL     1      30.426  16.835  14.163  0.00  0.00    +0.000 HD
ENDBRANCH  88  89
ENDBRANCH  13  88
TORSDOF 4
ENDMDL
MODEL 4
REMARK VINA RESULT:      -9.0     17.675     21.831
REMARK  Name = Cyclosporin_A.pdbqt.pdb
REMARK  4 active torsions:
REMARK  status: ('A' for Active; 'I' for Inactive)
REMARK    1  A    between atoms: N_13  and  C_36
REMARK    2  A    between atoms: C_36  and  O_70
REMARK    3  A    between atoms: C_72  and  C_73
REMARK    4  A    between atoms: C_75  and  C_76
REMARK                            x       y       z     vdW  Elec       q    Type
REMARK                         _______ _______ _______ _____ _____    ______ ____
ROOT
ATOM      1  O   UNL     1      36.944   1.610  22.886  0.00  0.00    +0.000 OA
ATOM      2  O   UNL     1      37.233  -0.086  18.053  0.00  0.00    +0.000 OA
ATOM      3  O   UNL     1      41.750   1.032  16.929  0.00  0.00    +0.000 OA
ATOM      4  O   UNL     1      39.505   5.591  24.150  0.00  0.00    +0.000 OA
ATOM      5  O   UNL     1      39.865  -3.234  18.922  0.00  0.00    +0.000 OA
ATOM      6  O   UNL     1      48.755  -3.171  25.855  0.00  0.00    +0.000 OA
ATOM      7  O   UNL     1      39.356   1.296  27.703  0.00  0.00    +0.000 OA
ATOM      8  O   UNL     1      47.401   1.476  26.771  0.00  0.00    +0.000 OA
ATOM      9  O   UNL     1      47.153  -5.318  21.818  0.00  0.00    +0.000 OA
ATOM     10  O   UNL     1      43.667   2.085  28.370  0.00  0.00    +0.000 OA
ATOM     11  O   UNL     1      42.861  -5.101  21.446  0.00  0.00    +0.000 OA
ATOM     12  N   UNL     1      37.837   0.862  19.631  0.00  0.00    +0.000 NA
ATOM     13  N   UNL     1      38.910   2.629  21.945  0.00  0.00    +0.000 NA
ATOM     14  N   UNL     1      39.901   0.361  17.192  0.00  0.00    +0.000 NA
ATOM     15  N   UNL     1      41.922  -1.954  18.008  0.00  0.00    +0.000 NA
ATOM     16  N   UNL     1      40.268   3.324  24.625  0.00  0.00    +0.000 NA
ATOM     17  N   UNL     1      48.407  -2.236  23.722  0.00  0.00    +0.000 N 
ATOM     18  N   UNL     1      46.680  -0.289  25.414  0.00  0.00    +0.000 N 
ATOM     19  N   UNL     1      44.659   1.011  27.046  0.00  0.00    +0.000 NA
ATOM     20  N   UNL     1      41.008   0.824  26.211  0.00  0.00    +0.000 NA
ATOM     21  N   UNL     1      42.882  -2.726  20.724  0.00  0.00    +0.000 NA
ATOM     22  N   UNL     1      45.801  -3.460  22.559  0.00  0.00    +0.000 NA
ATOM     23  C   UNL     1      37.504   0.715  20.946  0.00  0.00    +0.000 C 
ATOM     24  C   UNL     1      39.527   0.850  18.378  0.00  0.00    +0.000 C 
ATOM     25  C   UNL     1      38.826   3.821  22.638  0.00  0.00    +0.000 C 
ATOM     26  C   UNL     1      36.342   0.098  21.373  0.00  0.00    +0.000 C 
ATOM     27  C   UNL     1      39.891   2.260  18.114  0.00  0.00    +0.000 C 
ATOM     28  C   UNL     1      37.891   1.674  21.859  0.00  0.00    +0.000 C 
ATOM     29  C   UNL     1      38.381   0.156  18.573  0.00  0.00    +0.000 C 
ATOM     30  C   UNL     1      41.112  -1.337  17.192  0.00  0.00    +0.000 C 
ATOM     31  C   UNL     1      41.160   0.000  17.453  0.00  0.00    +0.000 C 
ATOM     32  C   UNL     1      39.800   4.263  23.681  0.00  0.00    +0.000 C 
ATOM     33  C   UNL     1      35.699  -0.126  20.117  0.00  0.00    +0.000 C 
ATOM     34  C   UNL     1      35.919   0.786  22.462  0.00  0.00    +0.000 C 
ATOM     35  C   UNL     1      36.687   0.222  19.207  0.00  0.00    +0.000 C 
ATOM     36  C   UNL     1      40.464   1.555  16.664  0.00  0.00    +0.000 C 
ATOM     37  C   UNL     1      39.646   3.029  25.864  0.00  0.00    +0.000 C 
ATOM     38  C   UNL     1      47.455  -1.324  25.874  0.00  0.00    +0.000 A 
ATOM     39  C   UNL     1      40.987  -2.366  18.858  0.00  0.00    +0.000 C 
ATOM     40  C   UNL     1      48.140  -3.420  22.990  0.00  0.00    +0.000 C 
ATOM     41  C   UNL     1      45.480   1.747  26.258  0.00  0.00    +0.000 C 
ATOM     42  C   UNL     1      42.299  -2.870  16.900  0.00  0.00    +0.000 C 
ATOM     43  C   UNL     1      47.672  -1.769  27.213  0.00  0.00    +0.000 A 
ATOM     44  C   UNL     1      49.846  -3.950  22.682  0.00  0.00    +0.000 C 
ATOM     45  C   UNL     1      41.764  -2.768  20.066  0.00  0.00    +0.000 C 
ATOM     46  C   UNL     1      46.422   2.413  27.225  0.00  0.00    +0.000 C 
ATOM     47  C   UNL     1      38.655   3.982  26.245  0.00  0.00    +0.000 C 
ATOM     48  C   UNL     1      48.166  -2.208  25.070  0.00  0.00    +0.000 A 
ATOM     49  C   UNL     1      39.946   1.883  26.526  0.00  0.00    +0.000 C 
ATOM     50  C   UNL     1      46.515   0.852  26.044  0.00  0.00    +0.000 C 
ATOM     51  C   UNL     1      47.035  -4.079  22.506  0.00  0.00    +0.000 C 
ATOM     52  C   UNL     1      42.344   1.339  26.525  0.00  0.00    +0.000 C 
ATOM     53  C   UNL     1      47.086  -1.242  28.496  0.00  0.00    +0.000 C 
ATOM     54  C   UNL     1      48.458  -2.891  27.153  0.00  0.00    +0.000 A 
ATOM     55  C   UNL     1      43.577   1.851  27.005  0.00  0.00    +0.000 C 
ATOM     56  C   UNL     1      44.688  -3.965  22.134  0.00  0.00    +0.000 C 
ATOM     57  C   UNL     1      40.593  -3.460  19.913  0.00  0.00    +0.000 C 
ATOM     58  C   UNL     1      49.588  -2.785  23.359  0.00  0.00    +0.000 C 
ATOM     59  C   UNL     1      38.081   4.969  25.881  0.00  0.00    +0.000 C 
ATOM     60  C   UNL     1      43.389  -3.759  21.380  0.00  0.00    +0.000 C 
ATOM     61  C   UNL     1      45.047   1.607  28.442  0.00  0.00    +0.000 C 
ATOM     62  C   UNL     1      40.261   0.572  27.269  0.00  0.00    +0.000 C 
ATOM     63  C   UNL     1      43.966  -5.105  22.015  0.00  0.00    +0.000 C 
ATOM     64  H   UNL     1      40.538   2.449  24.174  0.00  0.00    +0.000 HD
ATOM     65  H   UNL     1      46.034  -0.513  24.661  0.00  0.00    +0.000 HD
ATOM     66  H   UNL     1      43.511  -1.954  20.521  0.00  0.00    +0.000 HD
ATOM     67  H   UNL     1      45.900  -2.450  22.616  0.00  0.00    +0.000 HD
ATOM     68  C   UNL     1      37.716   4.498  22.742  0.00  0.00    +0.000 C 
ATOM     69  C   UNL     1      37.179   5.470  23.632  0.00  0.00    +0.000 C 
ATOM     70  C   UNL     1      38.176   5.751  24.684  0.00  0.00    +0.000 C 
ATOM     71  C   UNL     1      39.253   3.613  17.365  0.00  0.00    +0.000 C 
ATOM     72  C   UNL     1      39.379   4.877  17.765  0.00  0.00    +0.000 C 
ATOM     73  C   UNL     1      39.959   2.783  16.490  0.00  0.00    +0.000 C 
ATOM     74  C   UNL     1      41.494  -2.106  15.999  0.00  0.00    +0.000 C 
ATOM     75  C   UNL     1      41.567  -3.467  15.735  0.00  0.00    +0.000 C 
ATOM     76  C   UNL     1      42.259  -4.002  14.463  0.00  0.00    +0.000 C 
ATOM     77  C   UNL     1      41.934  -4.202  16.846  0.00  0.00    +0.000 C 
ATOM     78  C   UNL     1      46.583   3.664  28.209  0.00  0.00    +0.000 C 
ATOM     79  C   UNL     1      47.610   4.388  28.646  0.00  0.00    +0.000 C 
ATOM     80  C   UNL     1      45.690   2.762  28.791  0.00  0.00    +0.000 C 
ATOM     81  C   UNL     1      49.768  -5.101  22.012  0.00  0.00    +0.000 C 
ATOM     82  C   UNL     1      50.983  -5.847  21.567  0.00  0.00    +0.000 C 
ATOM     83  C   UNL     1      48.460  -5.559  21.721  0.00  0.00    +0.000 C 
ENDROOT
BRANCH  69  84
ATOM     84  C   UNL     1      35.812   5.810  23.767  0.00  0.00    +0.000 C 
ATOM     85  C   UNL     1      34.652   6.103  23.875  0.00  0.00    +0.000 C 
BRANCH  85  86
ATOM     86  C   UNL     1      33.173   6.481  24.008  0.00  0.00    +0.000 C 
ATOM     87  C   UNL     1      31.888   6.812  24.120  0.00  0.00    +0.000 C 
ENDBRANCH  85  86
ENDBRANCH  69  84
BRANCH  13  88
ATOM     88  C   UNL     1      40.232   2.213  21.508  0.00  0.00    +0.000 C 
BRANCH  88  89
ATOM     89  O   UNL     1      41.445   1.829  21.133  0.00  0.00    +0.000 OA
ATOM     90  H   UNL     1      42.110   2.170  21.757  0.00  0.00    +0.000 HD
ENDBRANCH  88  89
ENDBRANCH  13  88
TORSDOF 4
ENDMDL
MODEL 5
REMARK VINA RESULT:      -8.8     25.069     30.925
REMARK  Name = Cyclosporin_A.pdbqt.pdb
REMARK  4 active torsions:
REMARK  status: ('A' for Active; 'I' for Inactive)
REMARK    1  A    between atoms: N_13  and  C_36
REMARK    2  A    between atoms: C_36  and  O_70
REMARK    3  A    between atoms: C_72  and  C_73
REMARK    4  A    between atoms: C_75  and  C_76
REMARK                            x       y       z     vdW  Elec       q    Type
REMARK                         _______ _______ _______ _____ _____    ______ ____
ROOT
ATOM      1  O   UNL     1      29.828  12.013  26.696  0.00  0.00    +0.000 OA
ATOM      2  O   UNL     1      34.763  12.964  25.669  0.00  0.00    +0.000 OA
ATOM      3  O   UNL     1      35.069  11.539  21.109  0.00  0.00    +0.000 OA
ATOM      4  O   UNL     1      27.663   8.179  24.548  0.00  0.00    +0.000 OA
ATOM      5  O   UNL     1      33.988  16.115  23.011  0.00  0.00    +0.000 OA
ATOM      6  O   UNL     1      25.933  16.778  15.150  0.00  0.00    +0.000 OA
ATOM      7  O   UNL     1      24.813  12.956  24.940  0.00  0.00    +0.000 OA
ATOM      8  O   UNL     1      24.567  12.367  16.865  0.00  0.00    +0.000 OA
ATOM      9  O   UNL     1      30.419  18.357  16.077  0.00  0.00    +0.000 OA
ATOM     10  O   UNL     1      23.440  12.129  20.808  0.00  0.00    +0.000 OA
ATOM     11  O   UNL     1      31.358  18.233  20.285  0.00  0.00    +0.000 OA
ATOM     12  N   UNL     1      32.998  12.240  25.335  0.00  0.00    +0.000 NA
ATOM     13  N   UNL     1      30.328  10.800  24.680  0.00  0.00    +0.000 NA
ATOM     14  N   UNL     1      35.168  12.304  22.937  0.00  0.00    +0.000 NA
ATOM     15  N   UNL     1      34.412  14.645  20.922  0.00  0.00    +0.000 NA
ATOM     16  N   UNL     1      27.412  10.464  23.734  0.00  0.00    +0.000 NA
ATOM     17  N   UNL     1      27.939  15.550  15.259  0.00  0.00    +0.000 N 
ATOM     18  N   UNL     1      26.248  13.935  17.300  0.00  0.00    +0.000 N 
ATOM     19  N   UNL     1      24.750  12.960  19.590  0.00  0.00    +0.000 NA
ATOM     20  N   UNL     1      26.109  13.145  23.080  0.00  0.00    +0.000 NA
ATOM     21  N   UNL     1      31.725  15.778  20.296  0.00  0.00    +0.000 NA
ATOM     22  N   UNL     1      29.620  16.676  17.615  0.00  0.00    +0.000 NA
ATOM     23  C   UNL     1      31.777  12.591  25.833  0.00  0.00    +0.000 C 
ATOM     24  C   UNL     1      33.989  12.010  23.493  0.00  0.00    +0.000 C 
ATOM     25  C   UNL     1      29.492   9.728  24.920  0.00  0.00    +0.000 C 
ATOM     26  C   UNL     1      31.610  13.304  27.006  0.00  0.00    +0.000 C 
ATOM     27  C   UNL     1      33.995  10.564  23.174  0.00  0.00    +0.000 C 
ATOM     28  C   UNL     1      30.692  11.766  25.624  0.00  0.00    +0.000 C 
ATOM     29  C   UNL     1      34.057  12.763  24.615  0.00  0.00    +0.000 C 
ATOM     30  C   UNL     1      35.238  13.942  21.647  0.00  0.00    +0.000 C 
ATOM     31  C   UNL     1      34.786  12.657  21.706  0.00  0.00    +0.000 C 
ATOM     32  C   UNL     1      28.269   9.412  24.121  0.00  0.00    +0.000 C 
ATOM     33  C   UNL     1      32.963  13.361  27.461  0.00  0.00    +0.000 C 
ATOM     34  C   UNL     1      30.505  12.799  27.608  0.00  0.00    +0.000 C 
ATOM     35  C   UNL     1      33.666  12.849  26.381  0.00  0.00    +0.000 C 
ATOM     36  C   UNL     1      35.436  11.027  22.374  0.00  0.00    +0.000 C 
ATOM     37  C   UNL     1      26.328  10.961  24.500  0.00  0.00    +0.000 C 
ATOM     38  C   UNL     1      25.836  14.999  16.540  0.00  0.00    +0.000 A 
ATOM     39  C   UNL     1      33.769  15.210  21.939  0.00  0.00    +0.000 C 
ATOM     40  C   UNL     1      28.862  16.621  15.360  0.00  0.00    +0.000 C 
ATOM     41  C   UNL     1      25.301  12.088  18.712  0.00  0.00    +0.000 C 
ATOM     42  C   UNL     1      35.574  15.373  20.350  0.00  0.00    +0.000 C 
ATOM     43  C   UNL     1      24.556  15.631  16.481  0.00  0.00    +0.000 A 
ATOM     44  C   UNL     1      28.998  17.041  13.603  0.00  0.00    +0.000 C 
ATOM     45  C   UNL     1      32.533  15.759  21.311  0.00  0.00    +0.000 C 
ATOM     46  C   UNL     1      24.127  11.542  17.945  0.00  0.00    +0.000 C 
ATOM     47  C   UNL     1      25.958  10.108  25.584  0.00  0.00    +0.000 C 
ATOM     48  C   UNL     1      26.648  15.731  15.680  0.00  0.00    +0.000 A 
ATOM     49  C   UNL     1      25.800  12.181  24.230  0.00  0.00    +0.000 C 
ATOM     50  C   UNL     1      25.492  12.906  17.610  0.00  0.00    +0.000 C 
ATOM     51  C   UNL     1      29.586  17.238  16.354  0.00  0.00    +0.000 C 
ATOM     52  C   UNL     1      25.540  12.637  21.828  0.00  0.00    +0.000 C 
ATOM     53  C   UNL     1      23.307  15.320  17.262  0.00  0.00    +0.000 C 
ATOM     54  C   UNL     1      24.663  16.704  15.635  0.00  0.00    +0.000 A 
ATOM     55  C   UNL     1      24.823  12.160  20.700  0.00  0.00    +0.000 C 
ATOM     56  C   UNL     1      30.265  17.150  18.631  0.00  0.00    +0.000 C 
ATOM     57  C   UNL     1      32.947  16.460  22.411  0.00  0.00    +0.000 C 
ATOM     58  C   UNL     1      28.206  15.999  14.011  0.00  0.00    +0.000 C 
ATOM     59  C   UNL     1      26.256   9.098  26.156  0.00  0.00    +0.000 C 
ATOM     60  C   UNL     1      31.157  16.879  19.826  0.00  0.00    +0.000 C 
ATOM     61  C   UNL     1      23.243  12.564  19.426  0.00  0.00    +0.000 C 
ATOM     62  C   UNL     1      25.213  13.577  23.947  0.00  0.00    +0.000 C 
ATOM     63  C   UNL     1      30.646  18.284  19.268  0.00  0.00    +0.000 C 
ATOM     64  H   UNL     1      27.940  11.253  23.359  0.00  0.00    +0.000 HD
ATOM     65  H   UNL     1      27.109  14.067  17.826  0.00  0.00    +0.000 HD
ATOM     66  H   UNL     1      31.726  14.963  19.688  0.00  0.00    +0.000 HD
ATOM     67  H   UNL     1      29.407  15.683  17.579  0.00  0.00    +0.000 HD
ATOM     68  C   UNL     1      29.450   9.111  26.069  0.00  0.00    +0.000 C 
ATOM     69  C   UNL     1      28.516   8.301  26.773  0.00  0.00    +0.000 C 
ATOM     70  C   UNL     1      27.305   8.145  25.943  0.00  0.00    +0.000 C 
ATOM     71  C   UNL     1      34.627   9.137  23.777  0.00  0.00    +0.000 C 
ATOM     72  C   UNL     1      34.038   7.943  23.775  0.00  0.00    +0.000 C 
ATOM     73  C   UNL     1      35.503   9.805  22.916  0.00  0.00    +0.000 C 
ATOM     74  C   UNL     1      36.462  14.512  21.067  0.00  0.00    +0.000 C 
ATOM     75  C   UNL     1      36.904  15.815  20.885  0.00  0.00    +0.000 C 
ATOM     76  C   UNL     1      38.128  16.133  20.001  0.00  0.00    +0.000 C 
ATOM     77  C   UNL     1      35.868  16.694  20.632  0.00  0.00    +0.000 C 
ATOM     78  C   UNL     1      22.962  10.445  17.986  0.00  0.00    +0.000 C 
ATOM     79  C   UNL     1      22.287   9.759  17.068  0.00  0.00    +0.000 C 
ATOM     80  C   UNL     1      22.646  11.453  18.899  0.00  0.00    +0.000 C 
ATOM     81  C   UNL     1      29.830  18.083  13.527  0.00  0.00    +0.000 C 
ATOM     82  C   UNL     1      30.200  18.713  12.225  0.00  0.00    +0.000 C 
ATOM     83  C   UNL     1      30.364  18.537  14.757  0.00  0.00    +0.000 C 
ENDROOT
BRANCH  69  84
ATOM     84  C   UNL     1      28.528   8.031  28.162  0.00  0.00    +0.000 C 
ATOM     85  C   UNL     1      28.533   7.808  29.342  0.00  0.00    +0.000 C 
BRANCH  85  86
ATOM     86  C   UNL     1      28.540   7.529  30.849  0.00  0.00    +0.000 C 
ATOM     87  C   UNL     1      28.548   7.281  32.157  0.00  0.00    +0.000 C 
ENDBRANCH  85  86
ENDBRANCH  69  84
BRANCH  13  88
ATOM     88  C   UNL     1      30.629  11.102  23.290  0.00  0.00    +0.000 C 
BRANCH  88  89
ATOM     89  O   UNL     1      30.879  11.376  22.017  0.00  0.00    +0.000 OA
ATOM     90  H   UNL     1      31.765  11.051  21.774  0.00  0.00    +0.000 HD
ENDBRANCH  88  89
ENDBRANCH  13  88
TORSDOF 4
ENDMDL
MODEL 6
REMARK VINA RESULT:      -8.8      3.907      7.487
REMARK  Name = Cyclosporin_A.pdbqt.pdb
REMARK  4 active torsions:
REMARK  status: ('A' for Active; 'I' for Inactive)
REMARK    1  A    between atoms: N_13  and  C_36
REMARK    2  A    between atoms: C_36  and  O_70
REMARK    3  A    between atoms: C_72  and  C_73
REMARK    4  A    between atoms: C_75  and  C_76
REMARK                            x       y       z     vdW  Elec       q    Type
REMARK                         _______ _______ _______ _____ _____    ______ ____
ROOT
ATOM      1  O   UNL     1      56.231   3.696   5.575  0.00  0.00    +0.000 OA
ATOM      2  O   UNL     1      54.437  -1.079   6.119  0.00  0.00    +0.000 OA
ATOM      3  O   UNL     1      50.754  -1.057   3.062  0.00  0.00    +0.000 OA
ATOM      4  O   UNL     1      53.066   7.317   4.639  0.00  0.00    +0.000 OA
ATOM      5  O   UNL     1      55.598  -2.349   2.293  0.00  0.00    +0.000 OA
ATOM      6  O   UNL     1      54.901   3.306  -7.435  0.00  0.00    +0.000 OA
ATOM      7  O   UNL     1      57.917   7.260   1.891  0.00  0.00    +0.000 OA
ATOM      8  O   UNL     1      53.128   6.950  -4.635  0.00  0.00    +0.000 OA
ATOM      9  O   UNL     1      54.823  -1.219  -5.704  0.00  0.00    +0.000 OA
ATOM     10  O   UNL     1      55.566   8.431  -1.679  0.00  0.00    +0.000 OA
ATOM     11  O   UNL     1      56.684  -1.516  -1.824  0.00  0.00    +0.000 OA
ATOM     12  N   UNL     1      54.409   0.758   5.507  0.00  0.00    +0.000 NA
ATOM     13  N   UNL     1      54.030   3.703   4.604  0.00  0.00    +0.000 NA
ATOM     14  N   UNL     1      52.287  -1.355   4.286  0.00  0.00    +0.000 NA
ATOM     15  N   UNL     1      53.197  -2.150   1.344  0.00  0.00    +0.000 NA
ATOM     16  N   UNL     1      54.400   6.247   2.901  0.00  0.00    +0.000 NA
ATOM     17  N   UNL     1      53.272   2.266  -6.091  0.00  0.00    +0.000 N 
ATOM     18  N   UNL     1      53.867   4.751  -4.329  0.00  0.00    +0.000 N 
ATOM     19  N   UNL     1      54.996   6.763  -2.565  0.00  0.00    +0.000 NA
ATOM     20  N   UNL     1      56.525   5.875   0.742  0.00  0.00    +0.000 NA
ATOM     21  N   UNL     1      54.737  -0.538  -0.636  0.00  0.00    +0.000 NA
ATOM     22  N   UNL     1      54.744   0.496  -4.006  0.00  0.00    +0.000 NA
ATOM     23  C   UNL     1      55.419   1.657   5.325  0.00  0.00    +0.000 C 
ATOM     24  C   UNL     1      52.837  -0.147   4.441  0.00  0.00    +0.000 C 
ATOM     25  C   UNL     1      53.699   4.997   4.955  0.00  0.00    +0.000 C 
ATOM     26  C   UNL     1      56.657   1.545   5.932  0.00  0.00    +0.000 C 
ATOM     27  C   UNL     1      51.592   0.573   4.795  0.00  0.00    +0.000 C 
ATOM     28  C   UNL     1      55.120   2.986   5.107  0.00  0.00    +0.000 C 
ATOM     29  C   UNL     1      53.984  -0.485   5.075  0.00  0.00    +0.000 C 
ATOM     30  C   UNL     1      52.755  -2.405   2.545  0.00  0.00    +0.000 C 
ATOM     31  C   UNL     1      52.018  -1.343   2.977  0.00  0.00    +0.000 C 
ATOM     32  C   UNL     1      53.503   6.114   3.982  0.00  0.00    +0.000 C 
ATOM     33  C   UNL     1      56.421   0.418   6.778  0.00  0.00    +0.000 C 
ATOM     34  C   UNL     1      57.049   2.805   6.242  0.00  0.00    +0.000 C 
ATOM     35  C   UNL     1      55.174  -0.018   6.357  0.00  0.00    +0.000 C 
ATOM     36  C   UNL     1      50.930  -0.969   4.461  0.00  0.00    +0.000 C 
ATOM     37  C   UNL     1      55.612   6.982   2.928  0.00  0.00    +0.000 C 
ATOM     38  C   UNL     1      54.394   4.464  -5.563  0.00  0.00    +0.000 A 
ATOM     39  C   UNL     1      54.425  -1.799   1.712  0.00  0.00    +0.000 C 
ATOM     40  C   UNL     1      53.757   0.934  -6.126  0.00  0.00    +0.000 C 
ATOM     41  C   UNL     1      53.653   6.665  -2.719  0.00  0.00    +0.000 C 
ATOM     42  C   UNL     1      52.964  -3.573   0.985  0.00  0.00    +0.000 C 
ATOM     43  C   UNL     1      55.327   5.208  -6.347  0.00  0.00    +0.000 A 
ATOM     44  C   UNL     1      53.044   0.419  -7.711  0.00  0.00    +0.000 C 
ATOM     45  C   UNL     1      54.967  -1.107   0.507  0.00  0.00    +0.000 C 
ATOM     46  C   UNL     1      53.287   7.865  -3.549  0.00  0.00    +0.000 C 
ATOM     47  C   UNL     1      55.725   7.852   4.054  0.00  0.00    +0.000 C 
ATOM     48  C   UNL     1      54.141   3.305  -6.290  0.00  0.00    +0.000 A 
ATOM     49  C   UNL     1      56.569   6.760   1.993  0.00  0.00    +0.000 C 
ATOM     50  C   UNL     1      53.575   5.961  -3.910  0.00  0.00    +0.000 C 
ATOM     51  C   UNL     1      54.476   0.100  -5.303  0.00  0.00    +0.000 C 
ATOM     52  C   UNL     1      55.683   6.494  -0.285  0.00  0.00    +0.000 C 
ATOM     53  C   UNL     1      56.016   6.507  -6.023  0.00  0.00    +0.000 C 
ATOM     54  C   UNL     1      55.610   4.467  -7.466  0.00  0.00    +0.000 A 
ATOM     55  C   UNL     1      54.990   7.235  -1.278  0.00  0.00    +0.000 C 
ATOM     56  C   UNL     1      55.401  -0.194  -3.132  0.00  0.00    +0.000 C 
ATOM     57  C   UNL     1      55.929  -1.711   1.271  0.00  0.00    +0.000 C 
ATOM     58  C   UNL     1      52.810   1.677  -7.217  0.00  0.00    +0.000 C 
ATOM     59  C   UNL     1      55.180   8.189   5.066  0.00  0.00    +0.000 C 
ATOM     60  C   UNL     1      55.512  -0.684  -1.701  0.00  0.00    +0.000 C 
ATOM     61  C   UNL     1      55.203   8.228  -3.081  0.00  0.00    +0.000 C 
ATOM     62  C   UNL     1      57.671   6.495   0.950  0.00  0.00    +0.000 C 
ATOM     63  C   UNL     1      56.440  -1.045  -2.948  0.00  0.00    +0.000 C 
ATOM     64  H   UNL     1      54.569   5.349   2.447  0.00  0.00    +0.000 HD
ATOM     65  H   UNL     1      53.918   4.008  -3.636  0.00  0.00    +0.000 HD
ATOM     66  H   UNL     1      53.800  -0.173  -0.792  0.00  0.00    +0.000 HD
ATOM     67  H   UNL     1      54.075   1.193  -3.691  0.00  0.00    +0.000 HD
ATOM     68  C   UNL     1      53.894   5.474   6.154  0.00  0.00    +0.000 C 
ATOM     69  C   UNL     1      54.049   6.760   6.741  0.00  0.00    +0.000 C 
ATOM     70  C   UNL     1      53.950   7.781   5.679  0.00  0.00    +0.000 C 
ATOM     71  C   UNL     1      50.627   0.849   6.133  0.00  0.00    +0.000 C 
ATOM     72  C   UNL     1      49.975   1.974   6.424  0.00  0.00    +0.000 C 
ATOM     73  C   UNL     1      50.302  -0.329   5.455  0.00  0.00    +0.000 C 
ATOM     74  C   UNL     1      52.378  -3.798   2.268  0.00  0.00    +0.000 C 
ATOM     75  C   UNL     1      53.066  -4.874   1.724  0.00  0.00    +0.000 C 
ATOM     76  C   UNL     1      52.334  -6.166   1.303  0.00  0.00    +0.000 C 
ATOM     77  C   UNL     1      53.979  -4.485   0.763  0.00  0.00    +0.000 C 
ATOM     78  C   UNL     1      52.957   9.430  -3.473  0.00  0.00    +0.000 C 
ATOM     79  C   UNL     1      52.208  10.266  -4.188  0.00  0.00    +0.000 C 
ATOM     80  C   UNL     1      54.326   9.261  -3.262  0.00  0.00    +0.000 C 
ATOM     81  C   UNL     1      53.446  -0.838  -7.914  0.00  0.00    +0.000 C 
ATOM     82  C   UNL     1      53.048  -1.615  -9.125  0.00  0.00    +0.000 C 
ATOM     83  C   UNL     1      54.250  -1.402  -6.894  0.00  0.00    +0.000 C 
ENDROOT
BRANCH  69  84
ATOM     84  C   UNL     1      54.611   7.034   8.011  0.00  0.00    +0.000 C 
ATOM     85  C   UNL     1      55.085   7.260   9.091  0.00  0.00    +0.000 C 
BRANCH  85  86
ATOM     86  C   UNL     1      55.687   7.544  10.471  0.00  0.00    +0.000 C 
ATOM     87  C   UNL     1      56.206   7.788  11.673  0.00  0.00    +0.000 C 
ENDBRANCH  85  86
ENDBRANCH  69  84
BRANCH  13  88
ATOM     88  C   UNL     1      53.368   3.148   3.435  0.00  0.00    +0.000 C 
BRANCH  88  89
ATOM     89  O   UNL     1      52.761   2.665   2.359  0.00  0.00    +0.000 OA
ATOM     90  H   UNL     1      52.897   3.263   1.603  0.00  0.00    +0.000 HD
ENDBRANCH  88  89
ENDBRANCH  13  88
TORSDOF 4
ENDMDL
MODEL 7
REMARK VINA RESULT:      -8.7     23.178     27.105
REMARK  Name = Cyclosporin_A.pdbqt.pdb
REMARK  4 active torsions:
REMARK  status: ('A' for Active; 'I' for Inactive)
REMARK    1  A    between atoms: N_13  and  C_36
REMARK    2  A    between atoms: C_36  and  O_70
REMARK    3  A    between atoms: C_72  and  C_73
REMARK    4  A    between atoms: C_75  and  C_76
REMARK                            x       y       z     vdW  Elec       q    Type
REMARK                         _______ _______ _______ _____ _____    ______ ____
ROOT
ATOM      1  O   UNL     1      27.276  11.731  -2.521  0.00  0.00    +0.000 OA
ATOM      2  O   UNL     1      27.955  15.323   1.078  0.00  0.00    +0.000 OA
ATOM      3  O   UNL     1      32.503  14.539   2.347  0.00  0.00    +0.000 OA
ATOM      4  O   UNL     1      29.621   7.453  -2.062  0.00  0.00    +0.000 OA
ATOM      5  O   UNL     1      30.613  17.632  -1.200  0.00  0.00    +0.000 OA
ATOM      6  O   UNL     1      38.989  14.079  -7.858  0.00  0.00    +0.000 OA
ATOM      7  O   UNL     1      29.353   9.801  -7.113  0.00  0.00    +0.000 OA
ATOM      8  O   UNL     1      37.434   9.577  -6.600  0.00  0.00    +0.000 OA
ATOM      9  O   UNL     1      37.739  17.844  -5.075  0.00  0.00    +0.000 OA
ATOM     10  O   UNL     1      33.580   8.555  -7.588  0.00  0.00    +0.000 OA
ATOM     11  O   UNL     1      33.480  18.055  -4.431  0.00  0.00    +0.000 OA
ATOM     12  N   UNL     1      28.417  13.755   0.039  0.00  0.00    +0.000 NA
ATOM     13  N   UNL     1      29.271  11.105  -1.331  0.00  0.00    +0.000 NA
ATOM     14  N   UNL     1      30.662  15.137   1.913  0.00  0.00    +0.000 NA
ATOM     15  N   UNL     1      32.690  16.755   0.074  0.00  0.00    +0.000 NA
ATOM     16  N   UNL     1      30.416   9.247  -3.510  0.00  0.00    +0.000 NA
ATOM     17  N   UNL     1      38.763  14.175  -5.516  0.00  0.00    +0.000 N 
ATOM     18  N   UNL     1      36.864  11.793  -6.108  0.00  0.00    +0.000 N 
ATOM     19  N   UNL     1      34.695  10.035  -6.912  0.00  0.00    +0.000 NA
ATOM     20  N   UNL     1      31.118  10.773  -6.058  0.00  0.00    +0.000 NA
ATOM     21  N   UNL     1      33.479  16.226  -2.753  0.00  0.00    +0.000 NA
ATOM     22  N   UNL     1      36.283  15.928  -4.869  0.00  0.00    +0.000 NA
ATOM     23  C   UNL     1      27.998  13.340  -1.191  0.00  0.00    +0.000 C 
ATOM     24  C   UNL     1      30.191  14.208   1.076  0.00  0.00    +0.000 C 
ATOM     25  C   UNL     1      29.103   9.738  -1.435  0.00  0.00    +0.000 C 
ATOM     26  C   UNL     1      26.828  13.779  -1.784  0.00  0.00    +0.000 C 
ATOM     27  C   UNL     1      30.530  13.030   1.906  0.00  0.00    +0.000 C 
ATOM     28  C   UNL     1      28.291  12.061  -1.617  0.00  0.00    +0.000 C 
ATOM     29  C   UNL     1      29.056  14.815   0.657  0.00  0.00    +0.000 C 
ATOM     30  C   UNL     1      31.921  16.597   1.116  0.00  0.00    +0.000 C 
ATOM     31  C   UNL     1      31.910  15.278   1.459  0.00  0.00    +0.000 C 
ATOM     32  C   UNL     1      29.987   8.834  -2.231  0.00  0.00    +0.000 C 
ATOM     33  C   UNL     1      26.282  14.559  -0.719  0.00  0.00    +0.000 C 
ATOM     34  C   UNL     1      26.309  12.715  -2.445  0.00  0.00    +0.000 C 
ATOM     35  C   UNL     1      27.320  14.580   0.201  0.00  0.00    +0.000 C 
ATOM     36  C   UNL     1      31.224  14.257   2.877  0.00  0.00    +0.000 C 
ATOM     37  C   UNL     1      29.718   9.015  -4.722  0.00  0.00    +0.000 C 
ATOM     38  C   UNL     1      37.635  12.482  -7.009  0.00  0.00    +0.000 A 
ATOM     39  C   UNL     1      31.710  16.814  -0.823  0.00  0.00    +0.000 C 
ATOM     40  C   UNL     1      38.584  15.572  -5.357  0.00  0.00    +0.000 C 
ATOM     41  C   UNL     1      35.546   9.664  -5.925  0.00  0.00    +0.000 C 
ATOM     42  C   UNL     1      33.171  18.035   0.655  0.00  0.00    +0.000 C 
ATOM     43  C   UNL     1      37.770  12.294  -8.418  0.00  0.00    +0.000 A 
ATOM     44  C   UNL     1      40.322  16.083  -5.395  0.00  0.00    +0.000 C 
ATOM     45  C   UNL     1      32.412  16.611  -2.123  0.00  0.00    +0.000 C 
ATOM     46  C   UNL     1      36.397   8.594  -6.554  0.00  0.00    +0.000 C 
ATOM     47  C   UNL     1      28.674   8.049  -4.602  0.00  0.00    +0.000 C 
ATOM     48  C   UNL     1      38.428  13.584  -6.705  0.00  0.00    +0.000 A 
ATOM     49  C   UNL     1      30.005   9.745  -5.829  0.00  0.00    +0.000 C 
ATOM     50  C   UNL     1      36.621  10.503  -6.172  0.00  0.00    +0.000 C 
ATOM     51  C   UNL     1      37.536  16.438  -5.152  0.00  0.00    +0.000 C 
ATOM     52  C   UNL     1      32.413  10.097  -6.184  0.00  0.00    +0.000 C 
ATOM     53  C   UNL     1      37.081  11.301  -9.315  0.00  0.00    +0.000 C 
ATOM     54  C   UNL     1      38.592  13.285  -8.890  0.00  0.00    +0.000 A 
ATOM     55  C   UNL     1      33.593   9.359  -6.456  0.00  0.00    +0.000 C 
ATOM     56  C   UNL     1      35.219  16.630  -4.649  0.00  0.00    +0.000 C 
ATOM     57  C   UNL     1      31.277  17.367  -2.226  0.00  0.00    +0.000 C 
ATOM     58  C   UNL     1      39.983  14.758  -5.486  0.00  0.00    +0.000 C 
ATOM     59  C   UNL     1      28.098   7.350  -3.818  0.00  0.00    +0.000 C 
ATOM     60  C   UNL     1      33.970  16.844  -3.816  0.00  0.00    +0.000 C 
ATOM     61  C   UNL     1      34.965   8.875  -7.929  0.00  0.00    +0.000 C 
ATOM     62  C   UNL     1      30.307  10.588  -7.082  0.00  0.00    +0.000 C 
ATOM     63  C   UNL     1      34.541  17.751  -5.000  0.00  0.00    +0.000 C 
ATOM     64  H   UNL     1      30.743  10.213  -3.497  0.00  0.00    +0.000 HD
ATOM     65  H   UNL     1      36.279  12.356  -5.495  0.00  0.00    +0.000 HD
ATOM     66  H   UNL     1      34.098  15.581  -2.267  0.00  0.00    +0.000 HD
ATOM     67  H   UNL     1      36.348  14.989  -4.487  0.00  0.00    +0.000 HD
ATOM     68  C   UNL     1      27.968   9.147  -1.179  0.00  0.00    +0.000 C 
ATOM     69  C   UNL     1      27.341   7.920  -1.532  0.00  0.00    +0.000 C 
ATOM     70  C   UNL     1      28.253   7.156  -2.406  0.00  0.00    +0.000 C 
ATOM     71  C   UNL     1      29.906  12.170   3.199  0.00  0.00    +0.000 C 
ATOM     72  C   UNL     1      29.965  10.852   3.380  0.00  0.00    +0.000 C 
ATOM     73  C   UNL     1      30.696  13.255   3.591  0.00  0.00    +0.000 C 
ATOM     74  C   UNL     1      32.409  17.781   1.837  0.00  0.00    +0.000 C 
ATOM     75  C   UNL     1      32.542  19.116   1.482  0.00  0.00    +0.000 C 
ATOM     76  C   UNL     1      33.337  20.106   2.359  0.00  0.00    +0.000 C 
ATOM     77  C   UNL     1      32.851  19.279   0.145  0.00  0.00    +0.000 C 
ATOM     78  C   UNL     1      36.451   7.034  -6.906  0.00  0.00    +0.000 C 
ATOM     79  C   UNL     1      37.422   6.134  -7.036  0.00  0.00    +0.000 C 
ATOM     80  C   UNL     1      35.547   7.647  -7.775  0.00  0.00    +0.000 C 
ATOM     81  C   UNL     1      40.327  17.414  -5.287  0.00  0.00    +0.000 C 
ATOM     82  C   UNL     1      41.591  18.207  -5.272  0.00  0.00    +0.000 C 
ATOM     83  C   UNL     1      39.057  18.027  -5.158  0.00  0.00    +0.000 C 
ENDROOT
BRANCH  69  84
ATOM     84  C   UNL     1      25.959   7.633  -1.437  0.00  0.00    +0.000 C 
ATOM     85  C   UNL     1      24.787   7.383  -1.354  0.00  0.00    +0.000 C 
BRANCH  85  86
ATOM     86  C   UNL     1      23.293   7.058  -1.249  0.00  0.00    +0.000 C 
ATOM     87  C   UNL     1      21.996   6.771  -1.159  0.00  0.00    +0.000 C 
ENDBRANCH  85  86
ENDBRANCH  69  84
BRANCH  13  88
ATOM     88  C   UNL     1      30.633  11.592  -1.185  0.00  0.00    +0.000 C 
BRANCH  88  89
ATOM     89  O   UNL     1      31.882  12.025  -1.073  0.00  0.00    +0.000 OA
ATOM     90  H   UNL     1      32.459  11.303  -0.766  0.00  0.00    +0.000 HD
ENDBRANCH  88  89
ENDBRANCH  13  88
TORSDOF 4
ENDMDL
MODEL 8
REMARK VINA RESULT:      -8.5     25.669     30.971
REMARK  Name = Cyclosporin_A.pdbqt.pdb
REMARK  4 active torsions:
REMARK  status: ('A' for Active; 'I' for Inactive)
REMARK    1  A    between atoms: N_13  and  C_36
REMARK    2  A    between atoms: C_36  and  O_70
REMARK    3  A    between atoms: C_72  and  C_73
REMARK    4  A    between atoms: C_75  and  C_76
REMARK                            x       y       z     vdW  Elec       q    Type
REMARK                         _______ _______ _______ _____ _____    ______ ____
ROOT
ATOM      1  O   UNL     1      29.669  15.468  25.274  0.00  0.00    +0.000 OA
ATOM      2  O   UNL     1      34.739  15.133  24.567  0.00  0.00    +0.000 OA
ATOM      3  O   UNL     1      34.966  13.823  19.969  0.00  0.00    +0.000 OA
ATOM      4  O   UNL     1      26.734  12.399  22.828  0.00  0.00    +0.000 OA
ATOM      5  O   UNL     1      34.979  18.460  22.023  0.00  0.00    +0.000 OA
ATOM      6  O   UNL     1      27.903  21.445  13.770  0.00  0.00    +0.000 OA
ATOM      7  O   UNL     1      25.194  17.739  23.290  0.00  0.00    +0.000 OA
ATOM      8  O   UNL     1      25.335  17.490  15.194  0.00  0.00    +0.000 OA
ATOM      9  O   UNL     1      32.574  21.772  15.018  0.00  0.00    +0.000 OA
ATOM     10  O   UNL     1      23.929  17.429  19.053  0.00  0.00    +0.000 OA
ATOM     11  O   UNL     1      33.170  21.274  19.260  0.00  0.00    +0.000 OA
ATOM     12  N   UNL     1      32.873  14.905  24.102  0.00  0.00    +0.000 NA
ATOM     13  N   UNL     1      29.971  14.231  23.233  0.00  0.00    +0.000 NA
ATOM     14  N   UNL     1      35.138  14.477  21.834  0.00  0.00    +0.000 NA
ATOM     15  N   UNL     1      35.146  16.997  19.893  0.00  0.00    +0.000 NA
ATOM     16  N   UNL     1      27.136  14.696  22.112  0.00  0.00    +0.000 NA
ATOM     17  N   UNL     1      29.512  19.734  13.931  0.00  0.00    +0.000 N 
ATOM     18  N   UNL     1      27.332  18.552  15.796  0.00  0.00    +0.000 N 
ATOM     19  N   UNL     1      25.486  17.929  17.950  0.00  0.00    +0.000 NA
ATOM     20  N   UNL     1      26.614  17.642  21.515  0.00  0.00    +0.000 NA
ATOM     21  N   UNL     1      32.890  18.809  19.174  0.00  0.00    +0.000 NA
ATOM     22  N   UNL     1      31.268  20.309  16.427  0.00  0.00    +0.000 NA
ATOM     23  C   UNL     1      31.754  15.546  24.548  0.00  0.00    +0.000 C 
ATOM     24  C   UNL     1      33.890  14.482  22.309  0.00  0.00    +0.000 C 
ATOM     25  C   UNL     1      28.872  13.406  23.375  0.00  0.00    +0.000 C 
ATOM     26  C   UNL     1      31.699  16.240  25.743  0.00  0.00    +0.000 C 
ATOM     27  C   UNL     1      33.544  13.096  21.922  0.00  0.00    +0.000 C 
ATOM     28  C   UNL     1      30.508  15.039  24.240  0.00  0.00    +0.000 C 
ATOM     29  C   UNL     1      34.076  15.156  23.468  0.00  0.00    +0.000 C 
ATOM     30  C   UNL     1      35.713  16.080  20.628  0.00  0.00    +0.000 C 
ATOM     31  C   UNL     1      34.942  14.956  20.602  0.00  0.00    +0.000 C 
ATOM     32  C   UNL     1      27.665  13.445  22.495  0.00  0.00    +0.000 C 
ATOM     33  C   UNL     1      32.989  15.928  26.274  0.00  0.00    +0.000 C 
ATOM     34  C   UNL     1      30.465  16.021  26.258  0.00  0.00    +0.000 C 
ATOM     35  C   UNL     1      33.605  15.286  25.211  0.00  0.00    +0.000 C 
ATOM     36  C   UNL     1      35.105  13.193  21.226  0.00  0.00    +0.000 C 
ATOM     37  C   UNL     1      26.168  15.433  22.840  0.00  0.00    +0.000 C 
ATOM     38  C   UNL     1      27.259  19.710  15.066  0.00  0.00    +0.000 A 
ATOM     39  C   UNL     1      34.605  17.677  20.899  0.00  0.00    +0.000 C 
ATOM     40  C   UNL     1      30.672  20.525  14.134  0.00  0.00    +0.000 C 
ATOM     41  C   UNL     1      25.850  16.971  17.064  0.00  0.00    +0.000 C 
ATOM     42  C   UNL     1      36.492  17.415  19.422  0.00  0.00    +0.000 C 
ATOM     43  C   UNL     1      26.192  20.655  14.967  0.00  0.00    +0.000 A 
ATOM     44  C   UNL     1      31.027  20.950  12.409  0.00  0.00    +0.000 C 
ATOM     45  C   UNL     1      33.597  18.549  20.231  0.00  0.00    +0.000 C 
ATOM     46  C   UNL     1      24.628  16.774  16.208  0.00  0.00    +0.000 C 
ATOM     47  C   UNL     1      25.521  14.672  23.859  0.00  0.00    +0.000 C 
ATOM     48  C   UNL     1      28.287  20.232  14.287  0.00  0.00    +0.000 A 
ATOM     49  C   UNL     1      25.991  16.757  22.599  0.00  0.00    +0.000 C 
ATOM     50  C   UNL     1      26.318  17.746  16.014  0.00  0.00    +0.000 C 
ATOM     51  C   UNL     1      31.463  20.900  15.194  0.00  0.00    +0.000 C 
ATOM     52  C   UNL     1      26.017  17.340  20.211  0.00  0.00    +0.000 C 
ATOM     53  C   UNL     1      24.856  20.655  15.661  0.00  0.00    +0.000 C 
ATOM     54  C   UNL     1      26.628  21.690  14.179  0.00  0.00    +0.000 A 
ATOM     55  C   UNL     1      25.277  17.103  19.024  0.00  0.00    +0.000 C 
ATOM     56  C   UNL     1      31.945  20.566  17.499  0.00  0.00    +0.000 C 
ATOM     57  C   UNL     1      34.104  19.083  21.384  0.00  0.00    +0.000 C 
ATOM     58  C   UNL     1      29.968  20.137  12.723  0.00  0.00    +0.000 C 
ATOM     59  C   UNL     1      25.510  13.602  24.398  0.00  0.00    +0.000 C 
ATOM     60  C   UNL     1      32.657  20.034  18.727  0.00  0.00    +0.000 C 
ATOM     61  C   UNL     1      23.942  17.944  17.685  0.00  0.00    +0.000 C 
ATOM     62  C   UNL     1      25.805  18.265  22.351  0.00  0.00    +0.000 C 
ATOM     63  C   UNL     1      32.563  21.541  18.209  0.00  0.00    +0.000 C 
ATOM     64  H   UNL     1      27.873  15.331  21.805  0.00  0.00    +0.000 HD
ATOM     65  H   UNL     1      28.161  18.438  16.374  0.00  0.00    +0.000 HD
ATOM     66  H   UNL     1      32.720  18.042  18.529  0.00  0.00    +0.000 HD
ATOM     67  H   UNL     1      30.810  19.407  16.332  0.00  0.00    +0.000 HD
ATOM     68  C   UNL     1      28.598  12.786  24.489  0.00  0.00    +0.000 C 
ATOM     69  C   UNL     1      27.442  12.225  25.101  0.00  0.00    +0.000 C 
ATOM     70  C   UNL     1      26.288  12.416  24.199  0.00  0.00    +0.000 C 
ATOM     71  C   UNL     1      33.745  11.536  22.491  0.00  0.00    +0.000 C 
ATOM     72  C   UNL     1      32.869  10.536  22.399  0.00  0.00    +0.000 C 
ATOM     73  C   UNL     1      34.818  11.979  21.713  0.00  0.00    +0.000 C 
ATOM     74  C   UNL     1      37.078  16.330  20.145  0.00  0.00    +0.000 C 
ATOM     75  C   UNL     1      37.852  17.479  20.050  0.00  0.00    +0.000 C 
ATOM     76  C   UNL     1      39.173  17.494  19.251  0.00  0.00    +0.000 C 
ATOM     77  C   UNL     1      37.097  18.604  19.783  0.00  0.00    +0.000 C 
ATOM     78  C   UNL     1      23.219  16.018  16.133  0.00  0.00    +0.000 C 
ATOM     79  C   UNL     1      22.452  15.561  15.147  0.00  0.00    +0.000 C 
ATOM     80  C   UNL     1      23.115  17.044  17.073  0.00  0.00    +0.000 C 
ATOM     81  C   UNL     1      32.102  21.741  12.428  0.00  0.00    +0.000 C 
ATOM     82  C   UNL     1      32.707  22.294  11.181  0.00  0.00    +0.000 C 
ATOM     83  C   UNL     1      32.653  22.001  13.707  0.00  0.00    +0.000 C 
ENDROOT
BRANCH  69  84
ATOM     84  C   UNL     1      27.292  11.917  26.474  0.00  0.00    +0.000 C 
ATOM     85  C   UNL     1      27.164  11.664  27.641  0.00  0.00    +0.000 C 
BRANCH  85  86
ATOM     86  C   UNL     1      27.000  11.345  29.131  0.00  0.00    +0.000 C 
ATOM     87  C   UNL     1      26.857  11.063  30.424  0.00  0.00    +0.000 C 
ENDBRANCH  85  86
ENDBRANCH  69  84
BRANCH  13  88
ATOM     88  C   UNL     1      30.430  14.488  21.877  0.00  0.00    +0.000 C 
BRANCH  88  89
ATOM     89  O   UNL     1      30.845  14.746  20.644  0.00  0.00    +0.000 OA
ATOM     90  H   UNL     1      31.812  14.642  20.590  0.00  0.00    +0.000 HD
ENDBRANCH  88  89
ENDBRANCH  13  88
TORSDOF 4
ENDMDL
MODEL 9
REMARK VINA RESULT:      -8.4     27.814     33.523
REMARK  Name = Cyclosporin_A.pdbqt.pdb
REMARK  4 active torsions:
REMARK  status: ('A' for Active; 'I' for Inactive)
REMARK    1  A    between atoms: N_13  and  C_36
REMARK    2  A    between atoms: C_36  and  O_70
REMARK    3  A    between atoms: C_72  and  C_73
REMARK    4  A    between atoms: C_75  and  C_76
REMARK                            x       y       z     vdW  Elec       q    Type
REMARK                         _______ _______ _______ _____ _____    ______ ____
ROOT
ATOM      1  O   UNL     1      23.227  13.637   4.738  0.00  0.00    +0.000 OA
ATOM      2  O   UNL     1      24.344  10.098   1.197  0.00  0.00    +0.000 OA
ATOM      3  O   UNL     1      26.341   6.674   3.882  0.00  0.00    +0.000 OA
ATOM      4  O   UNL     1      26.201  14.136   8.601  0.00  0.00    +0.000 OA
ATOM      5  O   UNL     1      21.494   7.325   2.534  0.00  0.00    +0.000 OA
ATOM      6  O   UNL     1      18.840   4.632  13.155  0.00  0.00    +0.000 OA
ATOM      7  O   UNL     1      20.694  14.355   9.449  0.00  0.00    +0.000 OA
ATOM      8  O   UNL     1      22.158   8.072  14.348  0.00  0.00    +0.000 OA
ATOM      9  O   UNL     1      18.965   2.709   8.709  0.00  0.00    +0.000 OA
ATOM     10  O   UNL     1      21.455  11.911  13.068  0.00  0.00    +0.000 OA
ATOM     11  O   UNL     1      18.903   5.722   5.624  0.00  0.00    +0.000 OA
ATOM     12  N   UNL     1      24.385  10.911   2.954  0.00  0.00    +0.000 NA
ATOM     13  N   UNL     1      24.783  12.127   5.781  0.00  0.00    +0.000 NA
ATOM     14  N   UNL     1      25.445   7.878   2.584  0.00  0.00    +0.000 NA
ATOM     15  N   UNL     1      23.266   5.872   3.741  0.00  0.00    +0.000 NA
ATOM     16  N   UNL     1      24.111  12.881   8.696  0.00  0.00    +0.000 NA
ATOM     17  N   UNL     1      20.709   4.126  11.816  0.00  0.00    +0.000 N 
ATOM     18  N   UNL     1      21.297   7.118  12.392  0.00  0.00    +0.000 N 
ATOM     19  N   UNL     1      21.339  10.020  12.519  0.00  0.00    +0.000 NA
ATOM     20  N   UNL     1      21.243  12.147   9.432  0.00  0.00    +0.000 NA
ATOM     21  N   UNL     1      21.293   6.318   5.933  0.00  0.00    +0.000 NA
ATOM     22  N   UNL     1      20.013   4.878   8.884  0.00  0.00    +0.000 NA
ATOM     23  C   UNL     1      23.540  11.802   3.549  0.00  0.00    +0.000 C 
ATOM     24  C   UNL     1      25.202   8.998   3.271  0.00  0.00    +0.000 C 
ATOM     25  C   UNL     1      25.421  13.065   6.569  0.00  0.00    +0.000 C 
ATOM     26  C   UNL     1      22.675  12.619   2.842  0.00  0.00    +0.000 C 
ATOM     27  C   UNL     1      26.571   9.185   3.802  0.00  0.00    +0.000 C 
ATOM     28  C   UNL     1      23.914  12.419   4.725  0.00  0.00    +0.000 C 
ATOM     29  C   UNL     1      24.395   9.645   2.398  0.00  0.00    +0.000 C 
ATOM     30  C   UNL     1      24.131   6.281   2.855  0.00  0.00    +0.000 C 
ATOM     31  C   UNL     1      25.133   6.950   3.493  0.00  0.00    +0.000 C 
ATOM     32  C   UNL     1      25.351  13.108   8.061  0.00  0.00    +0.000 C 
ATOM     33  C   UNL     1      23.076  12.313   1.505  0.00  0.00    +0.000 C 
ATOM     34  C   UNL     1      22.646  13.806   3.497  0.00  0.00    +0.000 C 
ATOM     35  C   UNL     1      23.946  11.249   1.688  0.00  0.00    +0.000 C 
ATOM     36  C   UNL     1      26.790   7.686   3.005  0.00  0.00    +0.000 C 
ATOM     37  C   UNL     1      23.150  13.880   8.995  0.00  0.00    +0.000 C 
ATOM     38  C   UNL     1      20.261   6.367  12.885  0.00  0.00    +0.000 A 
ATOM     39  C   UNL     1      22.378   6.839   3.534  0.00  0.00    +0.000 C 
ATOM     40  C   UNL     1      20.061   3.425  10.768  0.00  0.00    +0.000 C 
ATOM     41  C   UNL     1      22.458   9.307  12.795  0.00  0.00    +0.000 C 
ATOM     42  C   UNL     1      23.108   4.613   2.969  0.00  0.00    +0.000 C 
ATOM     43  C   UNL     1      19.206   6.746  13.771  0.00  0.00    +0.000 A 
ATOM     44  C   UNL     1      19.948   1.794  11.550  0.00  0.00    +0.000 C 
ATOM     45  C   UNL     1      21.487   6.758   4.727  0.00  0.00    +0.000 C 
ATOM     46  C   UNL     1      22.613   9.425  14.287  0.00  0.00    +0.000 C 
ATOM     47  C   UNL     1      23.657  15.209   8.884  0.00  0.00    +0.000 C 
ATOM     48  C   UNL     1      20.004   5.042  12.550  0.00  0.00    +0.000 A 
ATOM     49  C   UNL     1      21.865  13.536   9.263  0.00  0.00    +0.000 C 
ATOM     50  C   UNL     1      21.918   8.060  13.066  0.00  0.00    +0.000 C 
ATOM     51  C   UNL     1      19.643   3.689   9.485  0.00  0.00    +0.000 C 
ATOM     52  C   UNL     1      21.652  11.562  10.712  0.00  0.00    +0.000 C 
ATOM     53  C   UNL     1      18.923   8.089  14.390  0.00  0.00    +0.000 C 
ATOM     54  C   UNL     1      18.368   5.669  13.900  0.00  0.00    +0.000 A 
ATOM     55  C   UNL     1      21.961  11.140  12.031  0.00  0.00    +0.000 C 
ATOM     56  C   UNL     1      19.693   5.244   7.686  0.00  0.00    +0.000 C 
ATOM     57  C   UNL     1      20.861   7.235   3.608  0.00  0.00    +0.000 C 
ATOM     58  C   UNL     1      20.555   2.838  12.199  0.00  0.00    +0.000 C 
ATOM     59  C   UNL     1      24.624  15.846   8.575  0.00  0.00    +0.000 C 
ATOM     60  C   UNL     1      20.128   5.868   6.374  0.00  0.00    +0.000 C 
ATOM     61  C   UNL     1      21.155  10.744  13.896  0.00  0.00    +0.000 C 
ATOM     62  C   UNL     1      20.400  13.156   9.541  0.00  0.00    +0.000 C 
ATOM     63  C   UNL     1      18.716   5.224   6.747  0.00  0.00    +0.000 C 
ATOM     64  H   UNL     1      23.633  12.073   8.298  0.00  0.00    +0.000 HD
ATOM     65  H   UNL     1      21.434   7.087  11.385  0.00  0.00    +0.000 HD
ATOM     66  H   UNL     1      22.118   6.076   6.476  0.00  0.00    +0.000 HD
ATOM     67  H   UNL     1      20.848   5.261   9.316  0.00  0.00    +0.000 HD
ATOM     68  C   UNL     1      25.827  14.215   6.104  0.00  0.00    +0.000 C 
ATOM     69  C   UNL     1      26.130  15.497   6.642  0.00  0.00    +0.000 C 
ATOM     70  C   UNL     1      25.921  15.459   8.103  0.00  0.00    +0.000 C 
ATOM     71  C   UNL     1      28.042   9.815   3.314  0.00  0.00    +0.000 C 
ATOM     72  C   UNL     1      28.917  10.473   4.074  0.00  0.00    +0.000 C 
ATOM     73  C   UNL     1      27.868   8.478   2.946  0.00  0.00    +0.000 C 
ATOM     74  C   UNL     1      24.142   5.033   2.078  0.00  0.00    +0.000 C 
ATOM     75  C   UNL     1      23.136   4.263   1.511  0.00  0.00    +0.000 C 
ATOM     76  C   UNL     1      23.417   2.846   0.968  0.00  0.00    +0.000 C 
ATOM     77  C   UNL     1      21.971   4.288   2.254  0.00  0.00    +0.000 C 
ATOM     78  C   UNL     1      23.175  10.368  15.452  0.00  0.00    +0.000 C 
ATOM     79  C   UNL     1      23.666  10.162  16.671  0.00  0.00    +0.000 C 
ATOM     80  C   UNL     1      22.016  10.952  14.937  0.00  0.00    +0.000 C 
ATOM     81  C   UNL     1      19.315   1.002  10.681  0.00  0.00    +0.000 C 
ATOM     82  C   UNL     1      19.040  -0.437  10.970  0.00  0.00    +0.000 C 
ATOM     83  C   UNL     1      18.945   1.603   9.454  0.00  0.00    +0.000 C 
ENDROOT
BRANCH  69  84
ATOM     84  C   UNL     1      26.208  16.708   5.915  0.00  0.00    +0.000 C 
ATOM     85  C   UNL     1      26.282  17.736   5.298  0.00  0.00    +0.000 C 
BRANCH  85  86
ATOM     86  C   UNL     1      26.381  19.049   4.513  0.00  0.00    +0.000 C 
ATOM     87  C   UNL     1      26.471  20.187   3.828  0.00  0.00    +0.000 C 
ENDBRANCH  85  86
ENDBRANCH  69  84
BRANCH  13  88
ATOM     88  C   UNL     1      24.794  10.753   6.255  0.00  0.00    +0.000 C 
BRANCH  88  89
ATOM     89  O   UNL     1      24.799   9.507   6.710  0.00  0.00    +0.000 OA
ATOM     90  H   UNL     1      25.423   9.426   7.454  0.00  0.00    +0.000 HD
ENDBRANCH  88  89
ENDBRANCH  13  88
TORSDOF 4
ENDMDL
