MODEL 1
REMARK VINA RESULT:      -6.8      0.000      0.000
REMARK  Name = Danazol.pdbqt.pdb
REMARK  2 active torsions:
REMARK  status: ('A' for Active; 'I' for Inactive)
REMARK    1  A    between atoms: C_9  and  O_23
REMARK    2  A    between atoms: C_9  and  C_25
REMARK                            x       y       z     vdW  Elec       q    Type
REMARK                         _______ _______ _______ _____ _____    ______ ____
ROOT
ATOM      1  O   UNL     1      53.399   7.711  13.470  0.00  0.00    +0.000 OA
ATOM      2  N   UNL     1      52.398   7.881  14.449  0.00  0.00    +0.000 NA
ATOM      3  C   UNL     1      51.222   2.221   8.667  0.00  0.00    +0.000 C 
ATOM      4  C   UNL     1      49.694   1.702   8.776  0.00  0.00    +0.000 C 
ATOM      5  C   UNL     1      51.637   3.576   9.078  0.00  0.00    +0.000 C 
ATOM      6  C   UNL     1      50.780   4.595   9.778  0.00  0.00    +0.000 C 
ATOM      7  C   UNL     1      51.222   6.049  10.064  0.00  0.00    +0.000 C 
ATOM      8  C   UNL     1      49.003   2.723   9.577  0.00  0.00    +0.000 C 
ATOM      9  C   UNL     1      49.835   0.227   9.462  0.00  0.00    +0.000 C 
ATOM     10  C   UNL     1      49.481   4.078  10.037  0.00  0.00    +0.000 C 
ATOM     11  C   UNL     1      52.103   1.108   8.778  0.00  0.00    +0.000 C 
ATOM     12  C   UNL     1      52.978   4.004   8.945  0.00  0.00    +0.000 C 
ATOM     13  C   UNL     1      51.265  -0.055   9.219  0.00  0.00    +0.000 C 
ATOM     14  C   UNL     1      52.865   6.292  10.066  0.00  0.00    +0.000 C 
ATOM     15  C   UNL     1      49.143   1.680   7.304  0.00  0.00    +0.000 C 
ATOM     16  C   UNL     1      53.609   5.285   9.403  0.00  0.00    +0.000 C 
ATOM     17  C   UNL     1      50.799   6.453  11.452  0.00  0.00    +0.000 C 
ATOM     18  C   UNL     1      50.621   6.994   8.985  0.00  0.00    +0.000 C 
ATOM     19  C   UNL     1      53.379   6.833  11.148  0.00  0.00    +0.000 C 
ATOM     20  C   UNL     1      51.462   7.009  12.585  0.00  0.00    +0.000 A 
ATOM     21  C   UNL     1      52.802   7.199  12.387  0.00  0.00    +0.000 A 
ATOM     22  C   UNL     1      51.247   7.457  13.885  0.00  0.00    +0.000 A 
ENDROOT
BRANCH   9  23
ATOM     23  O   UNL     1      49.042  -0.802   8.851  0.00  0.00    +0.000 OA
ATOM     24  H   UNL     1      49.642  -1.527   8.602  0.00  0.00    +0.000 HD
ENDBRANCH   9  23
BRANCH   9  25
ATOM     25  C   UNL     1      49.538   0.279  10.915  0.00  0.00    +0.000 C 
ATOM     26  C   UNL     1      49.306   0.295  12.087  0.00  0.00    +0.000 C 
ENDBRANCH   9  25
TORSDOF 2
ENDMDL
MODEL 2
REMARK VINA RESULT:      -6.7     11.571     13.315
REMARK  Name = Danazol.pdbqt.pdb
REMARK  2 active torsions:
REMARK  status: ('A' for Active; 'I' for Inactive)
REMARK    1  A    between atoms: C_9  and  O_23
REMARK    2  A    between atoms: C_9  and  C_25
REMARK                            x       y       z     vdW  Elec       q    Type
REMARK                         _______ _______ _______ _____ _____    ______ ____
ROOT
ATOM      1  O   UNL     1      45.974  -5.179  19.433  0.00  0.00    +0.000 OA
ATOM      2  N   UNL     1      46.885  -4.110  19.562  0.00  0.00    +0.000 NA
ATOM      3  C   UNL     1      40.706  -3.309  14.266  0.00  0.00    +0.000 C 
ATOM      4  C   UNL     1      40.974  -1.984  13.379  0.00  0.00    +0.000 C 
ATOM      5  C   UNL     1      41.795  -4.105  14.864  0.00  0.00    +0.000 C 
ATOM      6  C   UNL     1      43.256  -3.744  14.878  0.00  0.00    +0.000 C 
ATOM      7  C   UNL     1      44.374  -4.679  15.397  0.00  0.00    +0.000 C 
ATOM      8  C   UNL     1      42.399  -1.678  13.576  0.00  0.00    +0.000 C 
ATOM      9  C   UNL     1      39.917  -0.895  13.981  0.00  0.00    +0.000 C 
ATOM     10  C   UNL     1      43.477  -2.487  14.252  0.00  0.00    +0.000 C 
ATOM     11  C   UNL     1      39.433  -3.201  14.895  0.00  0.00    +0.000 C 
ATOM     12  C   UNL     1      41.524  -5.272  15.615  0.00  0.00    +0.000 C 
ATOM     13  C   UNL     1      38.977  -1.786  14.693  0.00  0.00    +0.000 C 
ATOM     14  C   UNL     1      43.863  -5.866  16.440  0.00  0.00    +0.000 C 
ATOM     15  C   UNL     1      40.694  -2.401  11.889  0.00  0.00    +0.000 C 
ATOM     16  C   UNL     1      42.475  -6.141  16.383  0.00  0.00    +0.000 C 
ATOM     17  C   UNL     1      45.368  -3.891  16.211  0.00  0.00    +0.000 C 
ATOM     18  C   UNL     1      45.055  -5.389  14.193  0.00  0.00    +0.000 C 
ATOM     19  C   UNL     1      44.460  -5.918  17.610  0.00  0.00    +0.000 C 
ATOM     20  C   UNL     1      45.929  -4.020  17.515  0.00  0.00    +0.000 A 
ATOM     21  C   UNL     1      45.438  -5.091  18.210  0.00  0.00    +0.000 A 
ATOM     22  C   UNL     1      46.839  -3.437  18.392  0.00  0.00    +0.000 A 
ENDROOT
BRANCH   9  23
ATOM     23  O   UNL     1      39.195  -0.144  12.993  0.00  0.00    +0.000 OA
ATOM     24  H   UNL     1      38.885   0.676  13.416  0.00  0.00    +0.000 HD
ENDBRANCH   9  23
BRANCH   9  25
ATOM     25  C   UNL     1      40.585   0.040  14.920  0.00  0.00    +0.000 C 
ATOM     26  C   UNL     1      41.105   0.785  15.696  0.00  0.00    +0.000 C 
ENDBRANCH   9  25
TORSDOF 2
ENDMDL
MODEL 3
REMARK VINA RESULT:      -6.1      3.801      5.431
REMARK  Name = Danazol.pdbqt.pdb
REMARK  2 active torsions:
REMARK  status: ('A' for Active; 'I' for Inactive)
REMARK    1  A    between atoms: C_9  and  O_23
REMARK    2  A    between atoms: C_9  and  C_25
REMARK                            x       y       z     vdW  Elec       q    Type
REMARK                         _______ _______ _______ _____ _____    ______ ____
ROOT
ATOM      1  O   UNL     1      53.128   7.742   3.810  0.00  0.00    +0.000 OA
ATOM      2  N   UNL     1      53.981   6.787   3.218  0.00  0.00    +0.000 NA
ATOM      3  C   UNL     1      50.424   4.909  10.337  0.00  0.00    +0.000 C 
ATOM      4  C   UNL     1      51.099   3.548  10.892  0.00  0.00    +0.000 C 
ATOM      5  C   UNL     1      51.141   5.861   9.467  0.00  0.00    +0.000 C 
ATOM      6  C   UNL     1      52.500   5.655   8.855  0.00  0.00    +0.000 C 
ATOM      7  C   UNL     1      53.265   6.741   8.062  0.00  0.00    +0.000 C 
ATOM      8  C   UNL     1      52.351   3.409  10.132  0.00  0.00    +0.000 C 
ATOM      9  C   UNL     1      49.962   2.411  10.616  0.00  0.00    +0.000 C 
ATOM     10  C   UNL     1      53.027   4.380   9.196  0.00  0.00    +0.000 C 
ATOM     11  C   UNL     1      49.016   4.723  10.234  0.00  0.00    +0.000 C 
ATOM     12  C   UNL     1      50.526   7.052   9.020  0.00  0.00    +0.000 C 
ATOM     13  C   UNL     1      48.765   3.257  10.427  0.00  0.00    +0.000 C 
ATOM     14  C   UNL     1      52.315   7.952   7.441  0.00  0.00    +0.000 C 
ATOM     15  C   UNL     1      51.398   3.808  12.414  0.00  0.00    +0.000 C 
ATOM     16  C   UNL     1      51.044   8.076   8.055  0.00  0.00    +0.000 C 
ATOM     17  C   UNL     1      53.910   6.131   6.844  0.00  0.00    +0.000 C 
ATOM     18  C   UNL     1      54.316   7.414   8.989  0.00  0.00    +0.000 C 
ATOM     19  C   UNL     1      52.402   8.164   6.146  0.00  0.00    +0.000 C 
ATOM     20  C   UNL     1      53.908   6.427   5.450  0.00  0.00    +0.000 A 
ATOM     21  C   UNL     1      53.118   7.496   5.125  0.00  0.00    +0.000 A 
ATOM     22  C   UNL     1      54.438   6.018   4.230  0.00  0.00    +0.000 A 
ENDROOT
BRANCH   9  23
ATOM     23  O   UNL     1      49.732   1.508  11.709  0.00  0.00    +0.000 OA
ATOM     24  H   UNL     1      49.164   0.789  11.382  0.00  0.00    +0.000 HD
ENDBRANCH   9  23
BRANCH   9  25
ATOM     25  C   UNL     1      50.267   1.632   9.390  0.00  0.00    +0.000 C 
ATOM     26  C   UNL     1      50.498   1.022   8.389  0.00  0.00    +0.000 C 
ENDBRANCH   9  25
TORSDOF 2
ENDMDL
MODEL 4
REMARK VINA RESULT:      -6.0      4.807      8.588
REMARK  Name = Danazol.pdbqt.pdb
REMARK  2 active torsions:
REMARK  status: ('A' for Active; 'I' for Inactive)
REMARK    1  A    between atoms: C_9  and  O_23
REMARK    2  A    between atoms: C_9  and  C_25
REMARK                            x       y       z     vdW  Elec       q    Type
REMARK                         _______ _______ _______ _____ _____    ______ ____
ROOT
ATOM      1  O   UNL     1      53.226  -6.618   8.356  0.00  0.00    +0.000 OA
ATOM      2  N   UNL     1      54.277  -6.677   9.296  0.00  0.00    +0.000 NA
ATOM      3  C   UNL     1      50.010   0.272   8.695  0.00  0.00    +0.000 C 
ATOM      4  C   UNL     1      50.775   1.407   9.557  0.00  0.00    +0.000 C 
ATOM      5  C   UNL     1      50.711  -0.867   8.072  0.00  0.00    +0.000 C 
ATOM      6  C   UNL     1      52.160  -1.229   8.258  0.00  0.00    +0.000 C 
ATOM      7  C   UNL     1      52.879  -2.352   7.475  0.00  0.00    +0.000 C 
ATOM      8  C   UNL     1      52.130   0.875   9.765  0.00  0.00    +0.000 C 
ATOM      9  C   UNL     1      49.853   1.563  10.895  0.00  0.00    +0.000 C 
ATOM     10  C   UNL     1      52.798  -0.334   9.160  0.00  0.00    +0.000 C 
ATOM     11  C   UNL     1      48.670   0.155   9.162  0.00  0.00    +0.000 C 
ATOM     12  C   UNL     1      50.013  -1.827   7.305  0.00  0.00    +0.000 C 
ATOM     13  C   UNL     1      48.593   0.940  10.437  0.00  0.00    +0.000 C 
ATOM     14  C   UNL     1      51.875  -3.502   6.824  0.00  0.00    +0.000 C 
ATOM     15  C   UNL     1      50.812   2.687   8.645  0.00  0.00    +0.000 C 
ATOM     16  C   UNL     1      50.523  -3.097   6.693  0.00  0.00    +0.000 C 
ATOM     17  C   UNL     1      53.769  -3.138   8.402  0.00  0.00    +0.000 C 
ATOM     18  C   UNL     1      53.684  -1.729   6.300  0.00  0.00    +0.000 C 
ATOM     19  C   UNL     1      52.120  -4.752   7.151  0.00  0.00    +0.000 C 
ATOM     20  C   UNL     1      53.930  -4.520   8.712  0.00  0.00    +0.000 A 
ATOM     21  C   UNL     1      53.059  -5.330   8.036  0.00  0.00    +0.000 A 
ATOM     22  C   UNL     1      54.682  -5.402   9.483  0.00  0.00    +0.000 A 
ENDROOT
BRANCH   9  23
ATOM     23  O   UNL     1      49.591   2.917  11.294  0.00  0.00    +0.000 OA
ATOM     24  H   UNL     1      48.846   3.243  10.758  0.00  0.00    +0.000 HD
ENDBRANCH   9  23
BRANCH   9  25
ATOM     25  C   UNL     1      50.435   0.818  12.039  0.00  0.00    +0.000 C 
ATOM     26  C   UNL     1      50.888   0.232  12.977  0.00  0.00    +0.000 C 
ENDBRANCH   9  25
TORSDOF 2
ENDMDL
MODEL 5
REMARK VINA RESULT:      -5.5      4.732      7.213
REMARK  Name = Danazol.pdbqt.pdb
REMARK  2 active torsions:
REMARK  status: ('A' for Active; 'I' for Inactive)
REMARK    1  A    between atoms: C_9  and  O_23
REMARK    2  A    between atoms: C_9  and  C_25
REMARK                            x       y       z     vdW  Elec       q    Type
REMARK                         _______ _______ _______ _____ _____    ______ ____
ROOT
ATOM      1  O   UNL     1      53.704  -0.636  17.507  0.00  0.00    +0.000 OA
ATOM      2  N   UNL     1      54.590  -0.033  18.425  0.00  0.00    +0.000 NA
ATOM      3  C   UNL     1      51.998   4.407  12.067  0.00  0.00    +0.000 C 
ATOM      4  C   UNL     1      52.868   5.770  12.018  0.00  0.00    +0.000 C 
ATOM      5  C   UNL     1      52.517   3.147  12.631  0.00  0.00    +0.000 C 
ATOM      6  C   UNL     1      53.820   2.970  13.362  0.00  0.00    +0.000 C 
ATOM      7  C   UNL     1      54.380   1.601  13.814  0.00  0.00    +0.000 C 
ATOM      8  C   UNL     1      54.043   5.499  12.860  0.00  0.00    +0.000 C 
ATOM      9  C   UNL     1      51.836   6.908  12.570  0.00  0.00    +0.000 C 
ATOM     10  C   UNL     1      54.512   4.206  13.478  0.00  0.00    +0.000 C 
ATOM     11  C   UNL     1      50.615   4.738  12.135  0.00  0.00    +0.000 C 
ATOM     12  C   UNL     1      51.735   1.969  12.636  0.00  0.00    +0.000 C 
ATOM     13  C   UNL     1      50.543   6.212  12.404  0.00  0.00    +0.000 C 
ATOM     14  C   UNL     1      53.248   0.395  13.955  0.00  0.00    +0.000 C 
ATOM     15  C   UNL     1      53.290   5.955  10.515  0.00  0.00    +0.000 C 
ATOM     16  C   UNL     1      52.040   0.637  13.255  0.00  0.00    +0.000 C 
ATOM     17  C   UNL     1      54.959   1.713  15.201  0.00  0.00    +0.000 C 
ATOM     18  C   UNL     1      55.442   1.113  12.789  0.00  0.00    +0.000 C 
ATOM     19  C   UNL     1      53.179  -0.215  15.118  0.00  0.00    +0.000 C 
ATOM     20  C   UNL     1      54.783   1.005  16.425  0.00  0.00    +0.000 A 
ATOM     21  C   UNL     1      53.855   0.003  16.341  0.00  0.00    +0.000 A 
ATOM     22  C   UNL     1      55.227   0.943  17.743  0.00  0.00    +0.000 A 
ENDROOT
BRANCH   9  23
ATOM     23  O   UNL     1      51.816   8.126  11.810  0.00  0.00    +0.000 OA
ATOM     24  H   UNL     1      51.076   8.068  11.182  0.00  0.00    +0.000 HD
ENDBRANCH   9  23
BRANCH   9  25
ATOM     25  C   UNL     1      52.096   7.222  13.997  0.00  0.00    +0.000 C 
ATOM     26  C   UNL     1      52.296   7.451  15.153  0.00  0.00    +0.000 C 
ENDBRANCH   9  25
TORSDOF 2
ENDMDL
MODEL 6
REMARK VINA RESULT:      -5.5      4.999      7.513
REMARK  Name = Danazol.pdbqt.pdb
REMARK  2 active torsions:
REMARK  status: ('A' for Active; 'I' for Inactive)
REMARK    1  A    between atoms: C_9  and  O_23
REMARK    2  A    between atoms: C_9  and  C_25
REMARK                            x       y       z     vdW  Elec       q    Type
REMARK                         _______ _______ _______ _____ _____    ______ ____
ROOT
ATOM      1  O   UNL     1      50.536   1.186  10.941  0.00  0.00    +0.000 OA
ATOM      2  N   UNL     1      49.216   0.913  11.359  0.00  0.00    +0.000 NA
ATOM      3  C   UNL     1      52.592  -3.993   5.756  0.00  0.00    +0.000 C 
ATOM      4  C   UNL     1      51.433  -4.957   5.169  0.00  0.00    +0.000 C 
ATOM      5  C   UNL     1      52.317  -2.646   6.290  0.00  0.00    +0.000 C 
ATOM      6  C   UNL     1      50.959  -2.037   6.511  0.00  0.00    +0.000 C 
ATOM      7  C   UNL     1      50.728  -0.570   6.944  0.00  0.00    +0.000 C 
ATOM      8  C   UNL     1      50.170  -4.309   5.555  0.00  0.00    +0.000 C 
ATOM      9  C   UNL     1      51.740  -6.401   5.866  0.00  0.00    +0.000 C 
ATOM     10  C   UNL     1      49.926  -2.950   6.161  0.00  0.00    +0.000 C 
ATOM     11  C   UNL     1      53.650  -4.795   6.270  0.00  0.00    +0.000 C 
ATOM     12  C   UNL     1      53.359  -1.822   6.773  0.00  0.00    +0.000 C 
ATOM     13  C   UNL     1      53.139  -6.205   6.301  0.00  0.00    +0.000 C 
ATOM     14  C   UNL     1      52.026   0.151   7.686  0.00  0.00    +0.000 C 
ATOM     15  C   UNL     1      51.613  -4.942   3.607  0.00  0.00    +0.000 C 
ATOM     16  C   UNL     1      53.268  -0.485   7.447  0.00  0.00    +0.000 C 
ATOM     17  C   UNL     1      49.639  -0.506   7.984  0.00  0.00    +0.000 C 
ATOM     18  C   UNL     1      50.378   0.289   5.696  0.00  0.00    +0.000 C 
ATOM     19  C   UNL     1      51.811   0.668   8.876  0.00  0.00    +0.000 C 
ATOM     20  C   UNL     1      49.523   0.063   9.286  0.00  0.00    +0.000 A 
ATOM     21  C   UNL     1      50.672   0.672   9.713  0.00  0.00    +0.000 A 
ATOM     22  C   UNL     1      48.634   0.244  10.341  0.00  0.00    +0.000 A 
ENDROOT
BRANCH   9  23
ATOM     23  O   UNL     1      51.677  -7.527   4.977  0.00  0.00    +0.000 OA
ATOM     24  H   UNL     1      50.741  -7.774   4.881  0.00  0.00    +0.000 HD
ENDBRANCH   9  23
BRANCH   9  25
ATOM     25  C   UNL     1      50.846  -6.639   7.026  0.00  0.00    +0.000 C 
ATOM     26  C   UNL     1      50.128  -6.805   7.967  0.00  0.00    +0.000 C 
ENDBRANCH   9  25
TORSDOF 2
ENDMDL
MODEL 7
REMARK VINA RESULT:      -5.3      7.793     10.707
REMARK  Name = Danazol.pdbqt.pdb
REMARK  2 active torsions:
REMARK  status: ('A' for Active; 'I' for Inactive)
REMARK    1  A    between atoms: C_9  and  O_23
REMARK    2  A    between atoms: C_9  and  C_25
REMARK                            x       y       z     vdW  Elec       q    Type
REMARK                         _______ _______ _______ _____ _____    ______ ____
ROOT
ATOM      1  O   UNL     1      54.183  -6.406   8.355  0.00  0.00    +0.000 OA
ATOM      2  N   UNL     1      55.230  -6.899   7.548  0.00  0.00    +0.000 NA
ATOM      3  C   UNL     1      50.548  -0.894   4.568  0.00  0.00    +0.000 C 
ATOM      4  C   UNL     1      50.904  -0.711   3.001  0.00  0.00    +0.000 C 
ATOM      5  C   UNL     1      50.698  -2.180   5.277  0.00  0.00    +0.000 C 
ATOM      6  C   UNL     1      51.325  -3.431   4.726  0.00  0.00    +0.000 C 
ATOM      7  C   UNL     1      51.334  -4.792   5.462  0.00  0.00    +0.000 C 
ATOM      8  C   UNL     1      51.611  -1.945   2.626  0.00  0.00    +0.000 C 
ATOM      9  C   UNL     1      51.788   0.661   2.964  0.00  0.00    +0.000 C 
ATOM     10  C   UNL     1      51.803  -3.223   3.403  0.00  0.00    +0.000 C 
ATOM     11  C   UNL     1      50.729   0.349   5.237  0.00  0.00    +0.000 C 
ATOM     12  C   UNL     1      50.354  -2.309   6.642  0.00  0.00    +0.000 C 
ATOM     13  C   UNL     1      51.434   1.254   4.270  0.00  0.00    +0.000 C 
ATOM     14  C   UNL     1      51.117  -4.698   7.105  0.00  0.00    +0.000 C 
ATOM     15  C   UNL     1      49.523  -0.611   2.256  0.00  0.00    +0.000 C 
ATOM     16  C   UNL     1      50.537  -3.486   7.553  0.00  0.00    +0.000 C 
ATOM     17  C   UNL     1      52.682  -5.448   5.316  0.00  0.00    +0.000 C 
ATOM     18  C   UNL     1      50.196  -5.691   4.900  0.00  0.00    +0.000 C 
ATOM     19  C   UNL     1      52.040  -5.259   7.854  0.00  0.00    +0.000 C 
ATOM     20  C   UNL     1      53.636  -6.000   6.219  0.00  0.00    +0.000 A 
ATOM     21  C   UNL     1      53.264  -5.890   7.531  0.00  0.00    +0.000 A 
ATOM     22  C   UNL     1      54.868  -6.645   6.272  0.00  0.00    +0.000 A 
ENDROOT
BRANCH   9  23
ATOM     23  O   UNL     1      51.433   1.580   1.919  0.00  0.00    +0.000 OA
ATOM     24  H   UNL     1      51.484   2.479   2.287  0.00  0.00    +0.000 HD
ENDBRANCH   9  23
BRANCH   9  25
ATOM     25  C   UNL     1      53.239   0.364   2.885  0.00  0.00    +0.000 C 
ATOM     26  C   UNL     1      54.413   0.144   2.841  0.00  0.00    +0.000 C 
ENDBRANCH   9  25
TORSDOF 2
ENDMDL
MODEL 8
REMARK VINA RESULT:      -5.0     22.106     24.264
REMARK  Name = Danazol.pdbqt.pdb
REMARK  2 active torsions:
REMARK  status: ('A' for Active; 'I' for Inactive)
REMARK    1  A    between atoms: C_9  and  O_23
REMARK    2  A    between atoms: C_9  and  C_25
REMARK                            x       y       z     vdW  Elec       q    Type
REMARK                         _______ _______ _______ _____ _____    ______ ____
ROOT
ATOM      1  O   UNL     1      30.142 -11.085  10.509  0.00  0.00    +0.000 OA
ATOM      2  N   UNL     1      31.031 -11.206  11.598  0.00  0.00    +0.000 NA
ATOM      3  C   UNL     1      28.891  -3.696   9.171  0.00  0.00    +0.000 C 
ATOM      4  C   UNL     1      29.837  -2.632   9.938  0.00  0.00    +0.000 C 
ATOM      5  C   UNL     1      29.320  -5.075   8.867  0.00  0.00    +0.000 C 
ATOM      6  C   UNL     1      30.589  -5.735   9.336  0.00  0.00    +0.000 C 
ATOM      7  C   UNL     1      31.057  -7.136   8.877  0.00  0.00    +0.000 C 
ATOM      8  C   UNL     1      30.968  -3.426  10.442  0.00  0.00    +0.000 C 
ATOM      9  C   UNL     1      28.854  -1.986  11.069  0.00  0.00    +0.000 C 
ATOM     10  C   UNL     1      31.345  -4.859  10.162  0.00  0.00    +0.000 C 
ATOM     11  C   UNL     1      27.527  -3.384   9.435  0.00  0.00    +0.000 C 
ATOM     12  C   UNL     1      28.474  -5.971   8.174  0.00  0.00    +0.000 C 
ATOM     13  C   UNL     1      27.529  -2.361  10.532  0.00  0.00    +0.000 C 
ATOM     14  C   UNL     1      29.854  -8.113   8.280  0.00  0.00    +0.000 C 
ATOM     15  C   UNL     1      30.315  -1.614   8.839  0.00  0.00    +0.000 C 
ATOM     16  C   UNL     1      28.685  -7.425   7.873  0.00  0.00    +0.000 C 
ATOM     17  C   UNL     1      31.597  -7.909  10.051  0.00  0.00    +0.000 C 
ATOM     18  C   UNL     1      32.121  -6.982   7.753  0.00  0.00    +0.000 C 
ATOM     19  C   UNL     1      29.716  -9.290   8.849  0.00  0.00    +0.000 C 
ATOM     20  C   UNL     1      31.344  -9.195  10.611  0.00  0.00    +0.000 A 
ATOM     21  C   UNL     1      30.364  -9.888   9.954  0.00  0.00    +0.000 A 
ATOM     22  C   UNL     1      31.743 -10.058  11.628  0.00  0.00    +0.000 A 
ENDROOT
BRANCH   9  23
ATOM     23  O   UNL     1      28.926  -0.556  11.187  0.00  0.00    +0.000 OA
ATOM     24  H   UNL     1      29.634  -0.248  10.594  0.00  0.00    +0.000 HD
ENDBRANCH   9  23
BRANCH   9  25
ATOM     25  C   UNL     1      29.087  -2.601  12.399  0.00  0.00    +0.000 C 
ATOM     26  C   UNL     1      29.253  -3.083  13.480  0.00  0.00    +0.000 C 
ENDBRANCH   9  25
TORSDOF 2
ENDMDL
MODEL 9
REMARK VINA RESULT:      -4.9      5.664      9.822
REMARK  Name = Danazol.pdbqt.pdb
REMARK  2 active torsions:
REMARK  status: ('A' for Active; 'I' for Inactive)
REMARK    1  A    between atoms: C_9  and  O_23
REMARK    2  A    between atoms: C_9  and  C_25
REMARK                            x       y       z     vdW  Elec       q    Type
REMARK                         _______ _______ _______ _____ _____    ______ ____
ROOT
ATOM      1  O   UNL     1      52.298  -7.905  11.280  0.00  0.00    +0.000 OA
ATOM      2  N   UNL     1      53.330  -7.684  12.216  0.00  0.00    +0.000 NA
ATOM      3  C   UNL     1      51.177  -1.513   7.303  0.00  0.00    +0.000 C 
ATOM      4  C   UNL     1      52.269  -0.332   7.473  0.00  0.00    +0.000 C 
ATOM      5  C   UNL     1      51.500  -2.937   7.517  0.00  0.00    +0.000 C 
ATOM      6  C   UNL     1      52.794  -3.484   8.055  0.00  0.00    +0.000 C 
ATOM      7  C   UNL     1      53.130  -4.992   8.131  0.00  0.00    +0.000 C 
ATOM      8  C   UNL     1      53.427  -0.975   8.111  0.00  0.00    +0.000 C 
ATOM      9  C   UNL     1      51.490   0.790   8.366  0.00  0.00    +0.000 C 
ATOM     10  C   UNL     1      53.699  -2.435   8.375  0.00  0.00    +0.000 C 
ATOM     11  C   UNL     1      49.881  -0.994   7.581  0.00  0.00    +0.000 C 
ATOM     12  C   UNL     1      50.525  -3.944   7.336  0.00  0.00    +0.000 C 
ATOM     13  C   UNL     1      50.087   0.367   8.179  0.00  0.00    +0.000 C 
ATOM     14  C   UNL     1      51.814  -6.003   8.113  0.00  0.00    +0.000 C 
ATOM     15  C   UNL     1      52.625   0.136   6.014  0.00  0.00    +0.000 C 
ATOM     16  C   UNL     1      50.628  -5.415   7.609  0.00  0.00    +0.000 C 
ATOM     17  C   UNL     1      53.803  -5.304   9.443  0.00  0.00    +0.000 C 
ATOM     18  C   UNL     1      54.025  -5.384   6.921  0.00  0.00    +0.000 C 
ATOM     19  C   UNL     1      51.710  -6.854   9.110  0.00  0.00    +0.000 C 
ATOM     20  C   UNL     1      53.581  -6.246  10.489  0.00  0.00    +0.000 A 
ATOM     21  C   UNL     1      52.487  -7.040  10.277  0.00  0.00    +0.000 A 
ATOM     22  C   UNL     1      54.086  -6.687  11.708  0.00  0.00    +0.000 A 
ENDROOT
BRANCH   9  23
ATOM     23  O   UNL     1      51.639   2.141   7.902  0.00  0.00    +0.000 OA
ATOM     24  H   UNL     1      51.889   2.689   8.667  0.00  0.00    +0.000 HD
ENDBRANCH   9  23
BRANCH   9  25
ATOM     25  C   UNL     1      51.888   0.713   9.793  0.00  0.00    +0.000 C 
ATOM     26  C   UNL     1      52.189   0.668  10.949  0.00  0.00    +0.000 C 
ENDBRANCH   9  25
TORSDOF 2
ENDMDL
