MODEL 1
REMARK VINA RESULT:      -5.8      0.000      0.000
REMARK  Name = Decitabine.pdbqt.pdb
REMARK  4 active torsions:
REMARK  status: ('A' for Active; 'I' for Inactive)
REMARK    1  A    between atoms: N_2  and  C1*_8
REMARK    2  A    between atoms: C4*_10  and  C5*_13
REMARK    3  A    between atoms: C3*_11  and  O3*_16
REMARK    4  A    between atoms: C5*_13  and  O5*_14
REMARK                            x       y       z     vdW  Elec       q    Type
REMARK                         _______ _______ _______ _____ _____    ______ ____
ROOT
ATOM      1  O   UNL     1      35.366  16.862  22.932  0.00  0.00    +0.000 OA
ATOM      2  N   UNL     1      36.125  15.500  21.220  0.00  0.00    +0.000 N 
ATOM      3  N   UNL     1      34.738  14.663  22.915  0.00  0.00    +0.000 NA
ATOM      4  N   UNL     1      35.526  13.241  21.175  0.00  0.00    +0.000 NA
ATOM      5  C   UNL     1      35.413  15.764  22.386  0.00  0.00    +0.000 A 
ATOM      6  C   UNL     1      36.033  14.233  20.828  0.00  0.00    +0.000 A 
ATOM      7  C   UNL     1      34.796  13.497  22.323  0.00  0.00    +0.000 A 
ATOM      8  N   UNL     1      34.118  12.459  22.874  0.00  0.00    +0.000 N 
ATOM      9  H   UNL     1      34.500  11.548  22.658  0.00  0.00    +0.000 HD
ATOM     10  H   UNL     1      33.888  12.603  23.850  0.00  0.00    +0.000 HD
ENDROOT
BRANCH   2  11
ATOM     11  C1* UNL     1      36.862  16.392  20.507  0.00  0.00    +0.000 A 
ATOM     12  O4* UNL     1      36.316  17.584  20.018  0.00  0.00    +0.000 OA
ATOM     13  C4* UNL     1      37.345  18.257  19.346  0.00  0.00    +0.000 A 
ATOM     14  C3* UNL     1      38.548  17.468  19.414  0.00  0.00    +0.000 A 
ATOM     15  C2* UNL     1      38.224  16.317  20.154  0.00  0.00    +0.000 A 
BRANCH  14  16
ATOM     16  O3* UNL     1      39.779  18.059  19.414  0.00  0.00    +0.000 OA
ATOM     17  H3* UNL     1      40.480  17.408  19.238  0.00  0.00    +0.000 HD
ENDBRANCH  14  16
BRANCH  13  18
ATOM     18  C5* UNL     1      37.205  19.575  18.870  0.00  0.00    +0.000 C 
BRANCH  18  19
ATOM     19  O5* UNL     1      37.069  20.818  18.418  0.00  0.00    +0.000 OA
ATOM     20  H5* UNL     1      36.984  21.439  19.162  0.00  0.00    +0.000 HD
ENDBRANCH  18  19
ENDBRANCH  13  18
ENDBRANCH   2  11
TORSDOF 4
ENDMDL
MODEL 2
REMARK VINA RESULT:      -5.2     16.127     17.418
REMARK  Name = Decitabine.pdbqt.pdb
REMARK  4 active torsions:
REMARK  status: ('A' for Active; 'I' for Inactive)
REMARK    1  A    between atoms: N_2  and  C1*_8
REMARK    2  A    between atoms: C4*_10  and  C5*_13
REMARK    3  A    between atoms: C3*_11  and  O3*_16
REMARK    4  A    between atoms: C5*_13  and  O5*_14
REMARK                            x       y       z     vdW  Elec       q    Type
REMARK                         _______ _______ _______ _____ _____    ______ ____
ROOT
ATOM      1  O   UNL     1      51.257  18.116   8.691  0.00  0.00    +0.000 OA
ATOM      2  N   UNL     1      49.300  17.379   9.684  0.00  0.00    +0.000 N 
ATOM      3  N   UNL     1      49.375  17.928   7.406  0.00  0.00    +0.000 NA
ATOM      4  N   UNL     1      47.347  17.192   8.413  0.00  0.00    +0.000 NA
ATOM      5  C   UNL     1      50.068  17.825   8.612  0.00  0.00    +0.000 A 
ATOM      6  C   UNL     1      48.034  17.138   9.354  0.00  0.00    +0.000 A 
ATOM      7  C   UNL     1      48.107  17.613   7.335  0.00  0.00    +0.000 A 
ATOM      8  N   UNL     1      47.480  17.725   6.137  0.00  0.00    +0.000 N 
ATOM      9  H   UNL     1      46.482  17.879   6.200  0.00  0.00    +0.000 HD
ATOM     10  H   UNL     1      47.964  18.331   5.486  0.00  0.00    +0.000 HD
ENDROOT
BRANCH   2  11
ATOM     11  C1* UNL     1      49.729  17.191  10.960  0.00  0.00    +0.000 A 
ATOM     12  O4* UNL     1      50.414  18.186  11.667  0.00  0.00    +0.000 OA
ATOM     13  C4* UNL     1      50.694  17.662  12.935  0.00  0.00    +0.000 A 
ATOM     14  C3* UNL     1      50.181  16.318  13.016  0.00  0.00    +0.000 A 
ATOM     15  C2* UNL     1      49.572  16.054  11.777  0.00  0.00    +0.000 A 
BRANCH  14  16
ATOM     16  O3* UNL     1      49.760  15.796  14.206  0.00  0.00    +0.000 OA
ATOM     17  H3* UNL     1      49.233  16.444  14.705  0.00  0.00    +0.000 HD
ENDBRANCH  14  16
BRANCH  13  18
ATOM     18  C5* UNL     1      51.226  18.445  13.978  0.00  0.00    +0.000 C 
BRANCH  18  19
ATOM     19  O5* UNL     1      51.724  19.187  14.963  0.00  0.00    +0.000 OA
ATOM     20  H5* UNL     1      51.559  20.130  14.790  0.00  0.00    +0.000 HD
ENDBRANCH  18  19
ENDBRANCH  13  18
ENDBRANCH   2  11
TORSDOF 4
ENDMDL
MODEL 3
REMARK VINA RESULT:      -4.7     24.499     25.823
REMARK  Name = Decitabine.pdbqt.pdb
REMARK  4 active torsions:
REMARK  status: ('A' for Active; 'I' for Inactive)
REMARK    1  A    between atoms: N_2  and  C1*_8
REMARK    2  A    between atoms: C4*_10  and  C5*_13
REMARK    3  A    between atoms: C3*_11  and  O3*_16
REMARK    4  A    between atoms: C5*_13  and  O5*_14
REMARK                            x       y       z     vdW  Elec       q    Type
REMARK                         _______ _______ _______ _____ _____    ______ ____
ROOT
ATOM      1  O   UNL     1      51.917  -0.336   8.771  0.00  0.00    +0.000 OA
ATOM      2  N   UNL     1      50.048   0.468   7.665  0.00  0.00    +0.000 N 
ATOM      3  N   UNL     1      50.414   0.937   9.933  0.00  0.00    +0.000 NA
ATOM      4  N   UNL     1      48.475   1.755   8.819  0.00  0.00    +0.000 NA
ATOM      5  C   UNL     1      50.871   0.306   8.775  0.00  0.00    +0.000 A 
ATOM      6  C   UNL     1      48.965   1.196   7.920  0.00  0.00    +0.000 A 
ATOM      7  C   UNL     1      49.298   1.619   9.924  0.00  0.00    +0.000 A 
ATOM      8  N   UNL     1      48.899   2.219  11.075  0.00  0.00    +0.000 N 
ATOM      9  H   UNL     1      47.901   2.363  11.147  0.00  0.00    +0.000 HD
ATOM     10  H   UNL     1      49.334   1.828  11.902  0.00  0.00    +0.000 HD
ENDROOT
BRANCH   2  11
ATOM     11  C1* UNL     1      50.263  -0.039   6.422  0.00  0.00    +0.000 A 
ATOM     12  O4* UNL     1      50.279  -1.416   6.175  0.00  0.00    +0.000 OA
ATOM     13  C4* UNL     1      50.516  -1.579   4.804  0.00  0.00    +0.000 A 
ATOM     14  C3* UNL     1      50.655  -0.284   4.190  0.00  0.00    +0.000 A 
ATOM     15  C2* UNL     1      50.479   0.660   5.218  0.00  0.00    +0.000 A 
BRANCH  14  16
ATOM     16  O3* UNL     1      50.293  -0.078   2.889  0.00  0.00    +0.000 OA
ATOM     17  H3* UNL     1      49.423   0.353   2.832  0.00  0.00    +0.000 HD
ENDBRANCH  14  16
BRANCH  13  18
ATOM     18  C5* UNL     1      50.429  -2.831   4.164  0.00  0.00    +0.000 C 
BRANCH  18  19
ATOM     19  O5* UNL     1      50.350  -4.015   3.563  0.00  0.00    +0.000 OA
ATOM     20  H5* UNL     1      49.639  -4.546   3.960  0.00  0.00    +0.000 HD
ENDBRANCH  18  19
ENDBRANCH  13  18
ENDBRANCH   2  11
TORSDOF 4
ENDMDL
MODEL 4
REMARK VINA RESULT:      -4.5     21.677     23.128
REMARK  Name = Decitabine.pdbqt.pdb
REMARK  4 active torsions:
REMARK  status: ('A' for Active; 'I' for Inactive)
REMARK    1  A    between atoms: N_2  and  C1*_8
REMARK    2  A    between atoms: C4*_10  and  C5*_13
REMARK    3  A    between atoms: C3*_11  and  O3*_16
REMARK    4  A    between atoms: C5*_13  and  O5*_14
REMARK                            x       y       z     vdW  Elec       q    Type
REMARK                         _______ _______ _______ _____ _____    ______ ____
ROOT
ATOM      1  O   UNL     1      50.536   9.190   7.435  0.00  0.00    +0.000 OA
ATOM      2  N   UNL     1      51.897   7.359   7.040  0.00  0.00    +0.000 N 
ATOM      3  N   UNL     1      50.141   7.256   8.590  0.00  0.00    +0.000 NA
ATOM      4  N   UNL     1      51.543   5.369   8.214  0.00  0.00    +0.000 NA
ATOM      5  C   UNL     1      50.843   8.024   7.660  0.00  0.00    +0.000 A 
ATOM      6  C   UNL     1      52.041   6.106   7.458  0.00  0.00    +0.000 A 
ATOM      7  C   UNL     1      50.479   6.014   8.821  0.00  0.00    +0.000 A 
ATOM      8  N   UNL     1      49.760   5.308   9.730  0.00  0.00    +0.000 N 
ATOM      9  H   UNL     1      50.269   4.553  10.170  0.00  0.00    +0.000 HD
ATOM     10  H   UNL     1      49.233   5.894  10.367  0.00  0.00    +0.000 HD
ENDROOT
BRANCH   2  11
ATOM     11  C1* UNL     1      52.733   7.875   6.101  0.00  0.00    +0.000 A 
ATOM     12  O4* UNL     1      52.305   8.158   4.799  0.00  0.00    +0.000 OA
ATOM     13  C4* UNL     1      53.410   8.678   4.113  0.00  0.00    +0.000 A 
ATOM     14  C3* UNL     1      54.545   8.713   4.999  0.00  0.00    +0.000 A 
ATOM     15  C2* UNL     1      54.093   8.220   6.236  0.00  0.00    +0.000 A 
BRANCH  14  16
ATOM     16  O3* UNL     1      55.518   9.660   4.860  0.00  0.00    +0.000 OA
ATOM     17  H3* UNL     1      55.480  10.310   5.583  0.00  0.00    +0.000 HD
ENDBRANCH  14  16
BRANCH  13  18
ATOM     18  C5* UNL     1      53.307   9.233   2.822  0.00  0.00    +0.000 C 
BRANCH  18  19
ATOM     19  O5* UNL     1      53.212   9.754   1.602  0.00  0.00    +0.000 OA
ATOM     20  H5* UNL     1      52.595   9.232   1.062  0.00  0.00    +0.000 HD
ENDBRANCH  18  19
ENDBRANCH  13  18
ENDBRANCH   2  11
TORSDOF 4
ENDMDL
MODEL 5
REMARK VINA RESULT:      -4.4      1.987      2.912
REMARK  Name = Decitabine.pdbqt.pdb
REMARK  4 active torsions:
REMARK  status: ('A' for Active; 'I' for Inactive)
REMARK    1  A    between atoms: N_2  and  C1*_8
REMARK    2  A    between atoms: C4*_10  and  C5*_13
REMARK    3  A    between atoms: C3*_11  and  O3*_16
REMARK    4  A    between atoms: C5*_13  and  O5*_14
REMARK                            x       y       z     vdW  Elec       q    Type
REMARK                         _______ _______ _______ _____ _____    ______ ____
ROOT
ATOM      1  O   UNL     1      34.356  18.439  24.046  0.00  0.00    +0.000 OA
ATOM      2  N   UNL     1      34.992  16.514  22.928  0.00  0.00    +0.000 N 
ATOM      3  N   UNL     1      33.999  16.415  25.050  0.00  0.00    +0.000 NA
ATOM      4  N   UNL     1      34.666  14.425  23.925  0.00  0.00    +0.000 NA
ATOM      5  C   UNL     1      34.446  17.216  23.998  0.00  0.00    +0.000 A 
ATOM      6  C   UNL     1      34.991  15.197  23.113  0.00  0.00    +0.000 A 
ATOM      7  C   UNL     1      34.101  15.112  24.986  0.00  0.00    +0.000 A 
ATOM      8  N   UNL     1      33.646  14.378  26.033  0.00  0.00    +0.000 N 
ATOM      9  H   UNL     1      34.095  13.477  26.138  0.00  0.00    +0.000 HD
ATOM     10  H   UNL     1      33.558  14.912  26.889  0.00  0.00    +0.000 HD
ENDROOT
BRANCH   2  11
ATOM     11  C1* UNL     1      35.496  17.050  21.785  0.00  0.00    +0.000 A 
ATOM     12  O4* UNL     1      36.863  17.017  21.489  0.00  0.00    +0.000 OA
ATOM     13  C4* UNL     1      37.025  17.645  20.248  0.00  0.00    +0.000 A 
ATOM     14  C3* UNL     1      35.739  18.081  19.767  0.00  0.00    +0.000 A 
ATOM     15  C2* UNL     1      34.802  17.685  20.737  0.00  0.00    +0.000 A 
BRANCH  14  16
ATOM     16  O3* UNL     1      35.476  18.153  18.428  0.00  0.00    +0.000 OA
ATOM     17  H3* UNL     1      34.768  17.534  18.178  0.00  0.00    +0.000 HD
ENDBRANCH  14  16
BRANCH  13  18
ATOM     18  C5* UNL     1      38.250  17.646  19.553  0.00  0.00    +0.000 C 
BRANCH  18  19
ATOM     19  O5* UNL     1      39.409  17.648  18.901  0.00  0.00    +0.000 OA
ATOM     20  H5* UNL     1      39.915  18.451  19.117  0.00  0.00    +0.000 HD
ENDBRANCH  18  19
ENDBRANCH  13  18
ENDBRANCH   2  11
TORSDOF 4
ENDMDL
MODEL 6
REMARK VINA RESULT:      -4.4      4.630      7.446
REMARK  Name = Decitabine.pdbqt.pdb
REMARK  4 active torsions:
REMARK  status: ('A' for Active; 'I' for Inactive)
REMARK    1  A    between atoms: N_2  and  C1*_8
REMARK    2  A    between atoms: C4*_10  and  C5*_13
REMARK    3  A    between atoms: C3*_11  and  O3*_16
REMARK    4  A    between atoms: C5*_13  and  O5*_14
REMARK                            x       y       z     vdW  Elec       q    Type
REMARK                         _______ _______ _______ _____ _____    ______ ____
ROOT
ATOM      1  O   UNL     1      35.751  13.121  24.055  0.00  0.00    +0.000 OA
ATOM      2  N   UNL     1      34.897  12.633  21.959  0.00  0.00    +0.000 N 
ATOM      3  N   UNL     1      35.356  14.841  22.601  0.00  0.00    +0.000 NA
ATOM      4  N   UNL     1      34.457  14.362  20.449  0.00  0.00    +0.000 NA
ATOM      5  C   UNL     1      35.363  13.490  22.951  0.00  0.00    +0.000 A 
ATOM      6  C   UNL     1      34.521  13.270  20.854  0.00  0.00    +0.000 A 
ATOM      7  C   UNL     1      34.940  15.222  21.420  0.00  0.00    +0.000 A 
ATOM      8  N   UNL     1      34.959  16.547  21.126  0.00  0.00    +0.000 N 
ATOM      9  H   UNL     1      34.283  16.830  20.428  0.00  0.00    +0.000 HD
ATOM     10  H   UNL     1      34.997  17.139  21.947  0.00  0.00    +0.000 HD
ENDROOT
BRANCH   2  11
ATOM     11  C1* UNL     1      34.801  11.280  22.043  0.00  0.00    +0.000 A 
ATOM     12  O4* UNL     1      33.585  10.609  21.876  0.00  0.00    +0.000 OA
ATOM     13  C4* UNL     1      33.852   9.242  22.018  0.00  0.00    +0.000 A 
ATOM     14  C3* UNL     1      35.256   9.060  22.284  0.00  0.00    +0.000 A 
ATOM     15  C2* UNL     1      35.827  10.344  22.281  0.00  0.00    +0.000 A 
BRANCH  14  16
ATOM     16  O3* UNL     1      35.908   7.928  21.883  0.00  0.00    +0.000 OA
ATOM     17  H3* UNL     1      35.445   7.130  22.192  0.00  0.00    +0.000 HD
ENDBRANCH  14  16
BRANCH  13  18
ATOM     18  C5* UNL     1      32.891   8.249  21.744  0.00  0.00    +0.000 C 
BRANCH  18  19
ATOM     19  O5* UNL     1      31.983   7.314  21.481  0.00  0.00    +0.000 OA
ATOM     20  H5* UNL     1      31.115   7.581  21.830  0.00  0.00    +0.000 HD
ENDBRANCH  18  19
ENDBRANCH  13  18
ENDBRANCH   2  11
TORSDOF 4
ENDMDL
MODEL 7
REMARK VINA RESULT:      -4.3      2.162      2.778
REMARK  Name = Decitabine.pdbqt.pdb
REMARK  4 active torsions:
REMARK  status: ('A' for Active; 'I' for Inactive)
REMARK    1  A    between atoms: N_2  and  C1*_8
REMARK    2  A    between atoms: C4*_10  and  C5*_13
REMARK    3  A    between atoms: C3*_11  and  O3*_16
REMARK    4  A    between atoms: C5*_13  and  O5*_14
REMARK                            x       y       z     vdW  Elec       q    Type
REMARK                         _______ _______ _______ _____ _____    ______ ____
ROOT
ATOM      1  O   UNL     1      36.439  13.930  20.569  0.00  0.00    +0.000 OA
ATOM      2  N   UNL     1      35.331  15.323  22.050  0.00  0.00    +0.000 N 
ATOM      3  N   UNL     1      35.829  13.102  22.612  0.00  0.00    +0.000 NA
ATOM      4  N   UNL     1      34.670  14.512  24.140  0.00  0.00    +0.000 NA
ATOM      5  C   UNL     1      35.906  14.118  21.658  0.00  0.00    +0.000 A 
ATOM      6  C   UNL     1      34.805  15.278  23.271  0.00  0.00    +0.000 A 
ATOM      7  C   UNL     1      35.258  13.315  23.769  0.00  0.00    +0.000 A 
ATOM      8  N   UNL     1      35.215  12.297  24.665  0.00  0.00    +0.000 N 
ATOM      9  H   UNL     1      34.451  12.352  25.325  0.00  0.00    +0.000 HD
ATOM     10  H   UNL     1      35.347  11.386  24.243  0.00  0.00    +0.000 HD
ENDROOT
BRANCH   2  11
ATOM     11  C1* UNL     1      35.271  16.464  21.314  0.00  0.00    +0.000 A 
ATOM     12  O4* UNL     1      35.947  17.629  21.693  0.00  0.00    +0.000 OA
ATOM     13  C4* UNL     1      35.674  18.594  20.715  0.00  0.00    +0.000 A 
ATOM     14  C3* UNL     1      34.811  18.021  19.714  0.00  0.00    +0.000 A 
ATOM     15  C2* UNL     1      34.586  16.689  20.103  0.00  0.00    +0.000 A 
BRANCH  14  16
ATOM     16  O3* UNL     1      34.860  18.444  18.416  0.00  0.00    +0.000 OA
ATOM     17  H3* UNL     1      35.518  17.937  17.909  0.00  0.00    +0.000 HD
ENDBRANCH  14  16
BRANCH  13  18
ATOM     18  C5* UNL     1      36.326  19.842  20.678  0.00  0.00    +0.000 C 
BRANCH  18  19
ATOM     19  O5* UNL     1      36.945  21.019  20.648  0.00  0.00    +0.000 OA
ATOM     20  H5* UNL     1      36.430  21.681  21.140  0.00  0.00    +0.000 HD
ENDBRANCH  18  19
ENDBRANCH  13  18
ENDBRANCH   2  11
TORSDOF 4
ENDMDL
MODEL 8
REMARK VINA RESULT:      -4.0     21.110     22.014
REMARK  Name = Decitabine.pdbqt.pdb
REMARK  4 active torsions:
REMARK  status: ('A' for Active; 'I' for Inactive)
REMARK    1  A    between atoms: N_2  and  C1*_8
REMARK    2  A    between atoms: C4*_10  and  C5*_13
REMARK    3  A    between atoms: C3*_11  and  O3*_16
REMARK    4  A    between atoms: C5*_13  and  O5*_14
REMARK                            x       y       z     vdW  Elec       q    Type
REMARK                         _______ _______ _______ _____ _____    ______ ____
ROOT
ATOM      1  O   UNL     1      27.872  -1.318  14.227  0.00  0.00    +0.000 OA
ATOM      2  N   UNL     1      29.262  -2.624  12.914  0.00  0.00    +0.000 N 
ATOM      3  N   UNL     1      29.455  -2.612  15.251  0.00  0.00    +0.000 NA
ATOM      4  N   UNL     1      30.908  -3.946  13.917  0.00  0.00    +0.000 NA
ATOM      5  C   UNL     1      28.791  -2.125  14.124  0.00  0.00    +0.000 A 
ATOM      6  C   UNL     1      30.272  -3.477  13.059  0.00  0.00    +0.000 A 
ATOM      7  C   UNL     1      30.433  -3.473  15.128  0.00  0.00    +0.000 A 
ATOM      8  N   UNL     1      31.043  -3.921  16.254  0.00  0.00    +0.000 N 
ATOM      9  H   UNL     1      31.998  -4.225  16.120  0.00  0.00    +0.000 HD
ATOM     10  H   UNL     1      30.897  -3.320  17.056  0.00  0.00    +0.000 HD
ENDROOT
BRANCH   2  11
ATOM     11  C1* UNL     1      28.792  -2.314  11.677  0.00  0.00    +0.000 A 
ATOM     12  O4* UNL     1      29.298  -1.241  10.937  0.00  0.00    +0.000 OA
ATOM     13  C4* UNL     1      28.599  -1.217   9.724  0.00  0.00    +0.000 A 
ATOM     14  C3* UNL     1      27.638  -2.290   9.711  0.00  0.00    +0.000 A 
ATOM     15  C2* UNL     1      27.788  -2.967  10.934  0.00  0.00    +0.000 A 
BRANCH  14  16
ATOM     16  O3* UNL     1      27.268  -2.891   8.542  0.00  0.00    +0.000 OA
ATOM     17  H3* UNL     1      27.450  -2.314   7.780  0.00  0.00    +0.000 HD
ENDBRANCH  14  16
BRANCH  13  18
ATOM     18  C5* UNL     1      28.961  -0.372   8.657  0.00  0.00    +0.000 C 
BRANCH  18  19
ATOM     19  O5* UNL     1      29.303   0.429   7.652  0.00  0.00    +0.000 OA
ATOM     20  H5* UNL     1      29.984   0.006   7.101  0.00  0.00    +0.000 HD
ENDBRANCH  18  19
ENDBRANCH  13  18
ENDBRANCH   2  11
TORSDOF 4
ENDMDL
MODEL 9
REMARK VINA RESULT:      -3.9     24.185     25.623
REMARK  Name = Decitabine.pdbqt.pdb
REMARK  4 active torsions:
REMARK  status: ('A' for Active; 'I' for Inactive)
REMARK    1  A    between atoms: N_2  and  C1*_8
REMARK    2  A    between atoms: C4*_10  and  C5*_13
REMARK    3  A    between atoms: C3*_11  and  O3*_16
REMARK    4  A    between atoms: C5*_13  and  O5*_14
REMARK                            x       y       z     vdW  Elec       q    Type
REMARK                         _______ _______ _______ _____ _____    ______ ____
ROOT
ATOM      1  O   UNL     1      27.590  -6.231   8.361  0.00  0.00    +0.000 OA
ATOM      2  N   UNL     1      29.886  -5.935   8.352  0.00  0.00    +0.000 N 
ATOM      3  N   UNL     1      28.902  -7.837   7.398  0.00  0.00    +0.000 NA
ATOM      4  N   UNL     1      31.267  -7.563   7.399  0.00  0.00    +0.000 NA
ATOM      5  C   UNL     1      28.713  -6.626   8.064  0.00  0.00    +0.000 A 
ATOM      6  C   UNL     1      30.980  -6.571   7.941  0.00  0.00    +0.000 A 
ATOM      7  C   UNL     1      30.105  -8.247   7.087  0.00  0.00    +0.000 A 
ATOM      8  N   UNL     1      30.235  -9.430   6.434  0.00  0.00    +0.000 N 
ATOM      9  H   UNL     1      31.123  -9.892   6.579  0.00  0.00    +0.000 HD
ATOM     10  H   UNL     1      29.424 -10.029   6.525  0.00  0.00    +0.000 HD
ENDROOT
BRANCH   2  11
ATOM     11  C1* UNL     1      29.981  -4.738   8.989  0.00  0.00    +0.000 A 
ATOM     12  O4* UNL     1      29.845  -3.523   8.309  0.00  0.00    +0.000 OA
ATOM     13  C4* UNL     1      29.990  -2.506   9.262  0.00  0.00    +0.000 A 
ATOM     14  C3* UNL     1      30.225  -3.099  10.554  0.00  0.00    +0.000 A 
ATOM     15  C2* UNL     1      30.201  -4.491  10.358  0.00  0.00    +0.000 A 
BRANCH  14  16
ATOM     16  O3* UNL     1      29.816  -2.477  11.699  0.00  0.00    +0.000 OA
ATOM     17  H3* UNL     1      29.602  -1.543  11.532  0.00  0.00    +0.000 HD
ENDBRANCH  14  16
BRANCH  13  18
ATOM     18  C5* UNL     1      29.743  -1.151   8.968  0.00  0.00    +0.000 C 
BRANCH  18  19
ATOM     19  O5* UNL     1      29.509   0.127   8.686  0.00  0.00    +0.000 OA
ATOM     20  H5* UNL     1      30.336   0.573   8.434  0.00  0.00    +0.000 HD
ENDBRANCH  18  19
ENDBRANCH  13  18
ENDBRANCH   2  11
TORSDOF 4
ENDMDL
