MODEL 1
REMARK VINA RESULT:      -4.3      0.000      0.000
REMARK  Name = Deferoxamine.pdbqt.pdb
REMARK  19 active torsions:
REMARK  status: ('A' for Active; 'I' for Inactive)
REMARK    1  A    between atoms: C_1  and  C_2
REMARK    2  A    between atoms: C_3  and  C_4
REMARK    3  A    between atoms: C_4  and  N_5
REMARK    4  A    between atoms: C_6  and  C_9
REMARK    5  A    between atoms: C_10  and  C_11
REMARK    6  A    between atoms: N_13  and  O_14
REMARK    7  A    between atoms: N_13  and  C_16
REMARK    8  A    between atoms: C_17  and  C_18
REMARK    9  A    between atoms: C_19  and  C_20
REMARK   10  A    between atoms: C_20  and  N_21
REMARK   11  A    between atoms: C_24  and  N_25
REMARK   12  A    between atoms: N_25  and  O_28
REMARK   13  A    between atoms: C_26  and  C_30
REMARK   14  A    between atoms: C_31  and  C_32
REMARK   15  A    between atoms: N_34  and  C_36
REMARK   16  A    between atoms: C_37  and  C_38
REMARK   17  A    between atoms: C_38  and  C_39
REMARK   18  A    between atoms: C_40  and  N_41
REMARK   19  A    between atoms: N_41  and  O_45
REMARK                            x       y       z     vdW  Elec       q    Type
REMARK                         _______ _______ _______ _____ _____    ______ ____
ROOT
ATOM      1  C   UNL     1      35.733  19.063   2.772  0.00  0.00    +0.000 C 
ATOM      2  C   UNL     1      36.498  19.982   2.655  0.00  0.00    +0.000 C 
ENDROOT
BRANCH   2   3
ATOM      3  N   UNL     1      37.359  21.012   2.523  0.00  0.00    +0.000 N 
ATOM      4  C   UNL     1      37.531  22.148   3.295  0.00  0.00    +0.000 C 
ATOM      5  O   UNL     1      36.773  22.510   4.189  0.00  0.00    +0.000 OA
BRANCH   4   6
ATOM      6  C   UNL     1      38.674  22.988   3.001  0.00  0.00    +0.000 C 
ATOM      7  C   UNL     1      39.621  23.680   2.743  0.00  0.00    +0.000 C 
BRANCH   7   8
ATOM      8  C   UNL     1      40.766  24.495   2.418  0.00  0.00    +0.000 C 
ATOM      9  O   UNL     1      40.651  25.712   2.436  0.00  0.00    +0.000 OA
ATOM     10  N   UNL     1      41.913  23.799   2.110  0.00  0.00    +0.000 N 
ATOM     11  H   UNL     1      41.845  22.790   2.145  0.00  0.00    +0.000 HD
BRANCH  10  12
ATOM     12  C   UNL     1      43.130  24.273   1.768  0.00  0.00    +0.000 C 
ATOM     13  C   UNL     1      44.214  24.690   1.466  0.00  0.00    +0.000 C 
BRANCH  13  14
ATOM     14  C   UNL     1      45.602  25.213   1.082  0.00  0.00    +0.000 C 
BRANCH  14  15
ATOM     15  C   UNL     1      46.990  25.739   0.706  0.00  0.00    +0.000 C 
ATOM     16  C   UNL     1      48.079  26.148   0.410  0.00  0.00    +0.000 C 
BRANCH  16  17
ATOM     17  N   UNL     1      49.302  26.602   0.075  0.00  0.00    +0.000 N 
ATOM     18  C   UNL     1      50.467  26.691   0.801  0.00  0.00    +0.000 C 
ATOM     19  O   UNL     1      50.698  26.373   1.954  0.00  0.00    +0.000 OA
ATOM     20  C   UNL     1      51.701  27.258   0.146  0.00  0.00    +0.000 C 
BRANCH  17  21
ATOM     21  O   UNL     1      49.285  27.044  -1.273  0.00  0.00    +0.000 OA
ATOM     22  H   UNL     1      49.064  26.230  -1.771  0.00  0.00    +0.000 HD
ENDBRANCH  17  21
ENDBRANCH  16  17
ENDBRANCH  14  15
ENDBRANCH  13  14
ENDBRANCH  10  12
ENDBRANCH   7   8
ENDBRANCH   4   6
BRANCH   3  23
ATOM     23  O   UNL     1      38.428  20.626   1.685  0.00  0.00    +0.000 OA
ATOM     24  H   UNL     1      37.955  20.165   0.967  0.00  0.00    +0.000 HD
ENDBRANCH   3  23
ENDBRANCH   2   3
BRANCH   1  25
ATOM     25  C   UNL     1      34.763  17.890   2.936  0.00  0.00    +0.000 C 
ATOM     26  C   UNL     1      34.014  16.962   3.067  0.00  0.00    +0.000 C 
BRANCH  26  27
ATOM     27  C   UNL     1      33.068  15.768   3.237  0.00  0.00    +0.000 C 
BRANCH  27  28
ATOM     28  N   UNL     1      32.237  14.717   3.405  0.00  0.00    +0.000 N 
ATOM     29  C   UNL     1      31.633  13.930   2.453  0.00  0.00    +0.000 C 
ATOM     30  O   UNL     1      31.750  14.055   1.242  0.00  0.00    +0.000 OA
ATOM     31  H   UNL     1      32.049  14.485   4.372  0.00  0.00    +0.000 HD
BRANCH  29  32
ATOM     32  C   UNL     1      30.796  12.874   2.968  0.00  0.00    +0.000 C 
ATOM     33  C   UNL     1      30.088  12.010   3.411  0.00  0.00    +0.000 C 
BRANCH  33  34
ATOM     34  C   UNL     1      29.217  10.984   3.947  0.00  0.00    +0.000 C 
ATOM     35  O   UNL     1      29.059  10.950   5.163  0.00  0.00    +0.000 OA
ATOM     36  N   UNL     1      28.656  10.091   3.050  0.00  0.00    +0.000 N 
BRANCH  36  37
ATOM     37  C   UNL     1      27.715   9.141   3.227  0.00  0.00    +0.000 C 
ATOM     38  C   UNL     1      26.879   8.295   3.387  0.00  0.00    +0.000 C 
BRANCH  38  39
ATOM     39  C   UNL     1      25.818   7.209   3.593  0.00  0.00    +0.000 C 
ATOM     40  C   UNL     1      24.989   6.356   3.752  0.00  0.00    +0.000 C 
BRANCH  40  41
ATOM     41  C   UNL     1      23.935   5.264   3.952  0.00  0.00    +0.000 C 
BRANCH  41  42
ATOM     42  N   UNL     1      22.933   4.228   4.142  0.00  0.00    +0.000 NA
ATOM     43  H   UNL     1      22.023   4.644   4.334  0.00  0.00    +0.000 HD
ATOM     44  H   UNL     1      22.820   3.683   3.289  0.00  0.00    +0.000 HD
ENDBRANCH  41  42
ENDBRANCH  40  41
ENDBRANCH  38  39
ENDBRANCH  36  37
BRANCH  36  45
ATOM     45  O   UNL     1      28.768  10.392   1.674  0.00  0.00    +0.000 OA
ATOM     46  H   UNL     1      27.868  10.708   1.471  0.00  0.00    +0.000 HD
ENDBRANCH  36  45
ENDBRANCH  33  34
ENDBRANCH  29  32
ENDBRANCH  27  28
ENDBRANCH  26  27
ENDBRANCH   1  25
TORSDOF 19
ENDMDL
MODEL 2
REMARK VINA RESULT:      -4.3     16.729     26.862
REMARK  Name = Deferoxamine.pdbqt.pdb
REMARK  19 active torsions:
REMARK  status: ('A' for Active; 'I' for Inactive)
REMARK    1  A    between atoms: C_1  and  C_2
REMARK    2  A    between atoms: C_3  and  C_4
REMARK    3  A    between atoms: C_4  and  N_5
REMARK    4  A    between atoms: C_6  and  C_9
REMARK    5  A    between atoms: C_10  and  C_11
REMARK    6  A    between atoms: N_13  and  O_14
REMARK    7  A    between atoms: N_13  and  C_16
REMARK    8  A    between atoms: C_17  and  C_18
REMARK    9  A    between atoms: C_19  and  C_20
REMARK   10  A    between atoms: C_20  and  N_21
REMARK   11  A    between atoms: C_24  and  N_25
REMARK   12  A    between atoms: N_25  and  O_28
REMARK   13  A    between atoms: C_26  and  C_30
REMARK   14  A    between atoms: C_31  and  C_32
REMARK   15  A    between atoms: N_34  and  C_36
REMARK   16  A    between atoms: C_37  and  C_38
REMARK   17  A    between atoms: C_38  and  C_39
REMARK   18  A    between atoms: C_40  and  N_41
REMARK   19  A    between atoms: N_41  and  O_45
REMARK                            x       y       z     vdW  Elec       q    Type
REMARK                         _______ _______ _______ _____ _____    ______ ____
ROOT
ATOM      1  C   UNL     1      44.607   9.004  -7.697  0.00  0.00    +0.000 C 
ATOM      2  C   UNL     1      44.024   7.988  -7.964  0.00  0.00    +0.000 C 
ENDROOT
BRANCH   2   3
ATOM      3  N   UNL     1      43.369   6.848  -8.265  0.00  0.00    +0.000 N 
ATOM      4  C   UNL     1      42.013   6.575  -8.330  0.00  0.00    +0.000 C 
ATOM      5  O   UNL     1      41.128   7.328  -7.939  0.00  0.00    +0.000 OA
BRANCH   4   6
ATOM      6  C   UNL     1      41.616   5.291  -8.868  0.00  0.00    +0.000 C 
ATOM      7  C   UNL     1      41.299   4.224  -9.321  0.00  0.00    +0.000 C 
BRANCH   7   8
ATOM      8  C   UNL     1      40.928   2.950  -9.886  0.00  0.00    +0.000 C 
ATOM      9  O   UNL     1      40.809   2.851 -11.099  0.00  0.00    +0.000 OA
ATOM     10  N   UNL     1      40.740   1.937  -8.973  0.00  0.00    +0.000 N 
ATOM     11  H   UNL     1      40.884   2.179  -8.001  0.00  0.00    +0.000 HD
BRANCH  10  12
ATOM     12  C   UNL     1      40.394   0.650  -9.190  0.00  0.00    +0.000 C 
ATOM     13  C   UNL     1      40.091  -0.496  -9.381  0.00  0.00    +0.000 C 
BRANCH  13  14
ATOM     14  C   UNL     1      39.713  -1.961  -9.622  0.00  0.00    +0.000 C 
BRANCH  14  15
ATOM     15  C   UNL     1      39.344  -3.427  -9.864  0.00  0.00    +0.000 C 
ATOM     16  C   UNL     1      39.053  -4.576 -10.052  0.00  0.00    +0.000 C 
BRANCH  16  17
ATOM     17  N   UNL     1      38.719  -5.865 -10.261  0.00  0.00    +0.000 N 
ATOM     18  C   UNL     1      39.379  -7.032  -9.959  0.00  0.00    +0.000 C 
ATOM     19  O   UNL     1      40.454  -7.206  -9.411  0.00  0.00    +0.000 OA
ATOM     20  C   UNL     1      38.747  -8.352 -10.325  0.00  0.00    +0.000 C 
BRANCH  17  21
ATOM     21  O   UNL     1      37.459  -5.923 -10.910  0.00  0.00    +0.000 OA
ATOM     22  H   UNL     1      37.009  -6.665 -10.456  0.00  0.00    +0.000 HD
ENDBRANCH  17  21
ENDBRANCH  16  17
ENDBRANCH  14  15
ENDBRANCH  13  14
ENDBRANCH  10  12
ENDBRANCH   7   8
ENDBRANCH   4   6
BRANCH   3  23
ATOM     23  O   UNL     1      44.243   5.973  -8.949  0.00  0.00    +0.000 OA
ATOM     24  H   UNL     1      43.911   6.042  -9.863  0.00  0.00    +0.000 HD
ENDBRANCH   3  23
ENDBRANCH   2   3
BRANCH   1  25
ATOM     25  C   UNL     1      45.342  10.306  -7.367  0.00  0.00    +0.000 C 
ATOM     26  C   UNL     1      45.930  11.320  -7.110  0.00  0.00    +0.000 C 
BRANCH  26  27
ATOM     27  C   UNL     1      46.693  12.607  -6.783  0.00  0.00    +0.000 C 
BRANCH  27  28
ATOM     28  N   UNL     1      47.380  13.737  -6.505  0.00  0.00    +0.000 N 
ATOM     29  C   UNL     1      46.916  14.932  -6.007  0.00  0.00    +0.000 C 
ATOM     30  O   UNL     1      45.755  15.186  -5.721  0.00  0.00    +0.000 OA
ATOM     31  H   UNL     1      48.373  13.676  -6.687  0.00  0.00    +0.000 HD
BRANCH  29  32
ATOM     32  C   UNL     1      47.920  15.951  -5.819  0.00  0.00    +0.000 C 
ATOM     33  C   UNL     1      48.753  16.806  -5.684  0.00  0.00    +0.000 C 
BRANCH  33  34
ATOM     34  C   UNL     1      49.747  17.850  -5.538  0.00  0.00    +0.000 C 
ATOM     35  O   UNL     1      49.359  19.013  -5.572  0.00  0.00    +0.000 OA
ATOM     36  N   UNL     1      51.069  17.459  -5.407  0.00  0.00    +0.000 N 
BRANCH  36  37
ATOM     37  C   UNL     1      52.174  18.176  -5.117  0.00  0.00    +0.000 C 
ATOM     38  C   UNL     1      53.159  18.811  -4.859  0.00  0.00    +0.000 C 
BRANCH  38  39
ATOM     39  C   UNL     1      54.419  19.616  -4.525  0.00  0.00    +0.000 C 
ATOM     40  C   UNL     1      55.403  20.252  -4.266  0.00  0.00    +0.000 C 
BRANCH  40  41
ATOM     41  C   UNL     1      56.657  21.066  -3.936  0.00  0.00    +0.000 C 
BRANCH  41  42
ATOM     42  N   UNL     1      57.848  21.839  -3.624  0.00  0.00    +0.000 NA
ATOM     43  H   UNL     1      57.694  22.409  -2.794  0.00  0.00    +0.000 HD
ATOM     44  H   UNL     1      58.625  21.219  -3.399  0.00  0.00    +0.000 HD
ENDBRANCH  41  42
ENDBRANCH  40  41
ENDBRANCH  38  39
ENDBRANCH  36  37
BRANCH  36  45
ATOM     45  O   UNL     1      51.323  16.088  -5.176  0.00  0.00    +0.000 OA
ATOM     46  H   UNL     1      51.648  16.104  -4.256  0.00  0.00    +0.000 HD
ENDBRANCH  36  45
ENDBRANCH  33  34
ENDBRANCH  29  32
ENDBRANCH  27  28
ENDBRANCH  26  27
ENDBRANCH   1  25
TORSDOF 19
ENDMDL
MODEL 3
REMARK VINA RESULT:      -4.2     19.346     20.248
REMARK  Name = Deferoxamine.pdbqt.pdb
REMARK  19 active torsions:
REMARK  status: ('A' for Active; 'I' for Inactive)
REMARK    1  A    between atoms: C_1  and  C_2
REMARK    2  A    between atoms: C_3  and  C_4
REMARK    3  A    between atoms: C_4  and  N_5
REMARK    4  A    between atoms: C_6  and  C_9
REMARK    5  A    between atoms: C_10  and  C_11
REMARK    6  A    between atoms: N_13  and  O_14
REMARK    7  A    between atoms: N_13  and  C_16
REMARK    8  A    between atoms: C_17  and  C_18
REMARK    9  A    between atoms: C_19  and  C_20
REMARK   10  A    between atoms: C_20  and  N_21
REMARK   11  A    between atoms: C_24  and  N_25
REMARK   12  A    between atoms: N_25  and  O_28
REMARK   13  A    between atoms: C_26  and  C_30
REMARK   14  A    between atoms: C_31  and  C_32
REMARK   15  A    between atoms: N_34  and  C_36
REMARK   16  A    between atoms: C_37  and  C_38
REMARK   17  A    between atoms: C_38  and  C_39
REMARK   18  A    between atoms: C_40  and  N_41
REMARK   19  A    between atoms: N_41  and  O_45
REMARK                            x       y       z     vdW  Elec       q    Type
REMARK                         _______ _______ _______ _____ _____    ______ ____
ROOT
ATOM      1  C   UNL     1      42.208   3.703  -8.867  0.00  0.00    +0.000 C 
ATOM      2  C   UNL     1      42.582   4.845  -8.843  0.00  0.00    +0.000 C 
ENDROOT
BRANCH   2   3
ATOM      3  N   UNL     1      43.002   6.126  -8.814  0.00  0.00    +0.000 N 
ATOM      4  C   UNL     1      42.429   7.252  -8.247  0.00  0.00    +0.000 C 
ATOM      5  O   UNL     1      41.291   7.305  -7.792  0.00  0.00    +0.000 OA
BRANCH   4   6
ATOM      6  C   UNL     1      43.220   8.464  -8.224  0.00  0.00    +0.000 C 
ATOM      7  C   UNL     1      43.881   9.467  -8.192  0.00  0.00    +0.000 C 
BRANCH   7   8
ATOM      8  C   UNL     1      44.669  10.673  -8.130  0.00  0.00    +0.000 C 
ATOM      9  O   UNL     1      44.344  11.630  -8.818  0.00  0.00    +0.000 OA
ATOM     10  N   UNL     1      45.745  10.628  -7.272  0.00  0.00    +0.000 N 
ATOM     11  H   UNL     1      45.877   9.760  -6.767  0.00  0.00    +0.000 HD
BRANCH  10  12
ATOM     12  C   UNL     1      46.657  11.585  -7.000  0.00  0.00    +0.000 C 
ATOM     13  C   UNL     1      47.472  12.433  -6.759  0.00  0.00    +0.000 C 
BRANCH  13  14
ATOM     14  C   UNL     1      48.520  13.509  -6.456  0.00  0.00    +0.000 C 
BRANCH  14  15
ATOM     15  C   UNL     1      49.565  14.588  -6.161  0.00  0.00    +0.000 C 
ATOM     16  C   UNL     1      50.383  15.436  -5.930  0.00  0.00    +0.000 C 
BRANCH  16  17
ATOM     17  N   UNL     1      51.295  16.392  -5.669  0.00  0.00    +0.000 N 
ATOM     18  C   UNL     1      52.659  16.414  -5.839  0.00  0.00    +0.000 C 
ATOM     19  O   UNL     1      53.408  15.560  -6.281  0.00  0.00    +0.000 OA
ATOM     20  C   UNL     1      53.431  17.648  -5.444  0.00  0.00    +0.000 C 
BRANCH  17  21
ATOM     21  O   UNL     1      50.641  17.528  -5.125  0.00  0.00    +0.000 OA
ATOM     22  H   UNL     1      50.650  17.350  -4.162  0.00  0.00    +0.000 HD
ENDBRANCH  17  21
ENDBRANCH  16  17
ENDBRANCH  14  15
ENDBRANCH  13  14
ENDBRANCH  10  12
ENDBRANCH   7   8
ENDBRANCH   4   6
BRANCH   3  23
ATOM     23  O   UNL     1      44.386   6.172  -9.096  0.00  0.00    +0.000 OA
ATOM     24  H   UNL     1      44.574   5.236  -9.294  0.00  0.00    +0.000 HD
ENDBRANCH   3  23
ENDBRANCH   2   3
BRANCH   1  25
ATOM     25  C   UNL     1      41.723   2.251  -8.886  0.00  0.00    +0.000 C 
ATOM     26  C   UNL     1      41.338   1.115  -8.887  0.00  0.00    +0.000 C 
BRANCH  26  27
ATOM     27  C   UNL     1      40.841  -0.335  -8.876  0.00  0.00    +0.000 C 
BRANCH  27  28
ATOM     28  N   UNL     1      40.403  -1.612  -8.884  0.00  0.00    +0.000 N 
ATOM     29  C   UNL     1      39.568  -2.235  -9.781  0.00  0.00    +0.000 C 
ATOM     30  O   UNL     1      39.059  -1.716 -10.764  0.00  0.00    +0.000 OA
ATOM     31  H   UNL     1      40.751  -2.178  -8.120  0.00  0.00    +0.000 HD
BRANCH  29  32
ATOM     32  C   UNL     1      39.293  -3.624  -9.504  0.00  0.00    +0.000 C 
ATOM     33  C   UNL     1      39.052  -4.774  -9.254  0.00  0.00    +0.000 C 
BRANCH  33  34
ATOM     34  C   UNL     1      38.742  -6.155  -8.944  0.00  0.00    +0.000 C 
ATOM     35  O   UNL     1      37.858  -6.368  -8.119  0.00  0.00    +0.000 OA
ATOM     36  N   UNL     1      39.492  -7.134  -9.572  0.00  0.00    +0.000 N 
BRANCH  36  37
ATOM     37  C   UNL     1      39.345  -8.475  -9.595  0.00  0.00    +0.000 C 
ATOM     38  C   UNL     1      39.214  -9.668  -9.619  0.00  0.00    +0.000 C 
BRANCH  38  39
ATOM     39  C   UNL     1      39.039 -11.190  -9.653  0.00  0.00    +0.000 C 
ATOM     40  C   UNL     1      38.901 -12.381  -9.673  0.00  0.00    +0.000 C 
BRANCH  40  41
ATOM     41  C   UNL     1      38.723 -13.902  -9.696  0.00  0.00    +0.000 C 
BRANCH  41  42
ATOM     42  N   UNL     1      38.555 -15.346  -9.717  0.00  0.00    +0.000 NA
ATOM     43  H   UNL     1      37.947 -15.644  -8.955  0.00  0.00    +0.000 HD
ATOM     44  H   UNL     1      38.092 -15.637 -10.577  0.00  0.00    +0.000 HD
ENDBRANCH  41  42
ENDBRANCH  40  41
ENDBRANCH  38  39
ENDBRANCH  36  37
BRANCH  36  45
ATOM     45  O   UNL     1      40.322  -6.733 -10.644  0.00  0.00    +0.000 OA
ATOM     46  H   UNL     1      40.361  -5.769 -10.507  0.00  0.00    +0.000 HD
ENDBRANCH  36  45
ENDBRANCH  33  34
ENDBRANCH  29  32
ENDBRANCH  27  28
ENDBRANCH  26  27
ENDBRANCH   1  25
TORSDOF 19
ENDMDL
MODEL 4
REMARK VINA RESULT:      -4.0     16.137     26.576
REMARK  Name = Deferoxamine.pdbqt.pdb
REMARK  19 active torsions:
REMARK  status: ('A' for Active; 'I' for Inactive)
REMARK    1  A    between atoms: C_1  and  C_2
REMARK    2  A    between atoms: C_3  and  C_4
REMARK    3  A    between atoms: C_4  and  N_5
REMARK    4  A    between atoms: C_6  and  C_9
REMARK    5  A    between atoms: C_10  and  C_11
REMARK    6  A    between atoms: N_13  and  O_14
REMARK    7  A    between atoms: N_13  and  C_16
REMARK    8  A    between atoms: C_17  and  C_18
REMARK    9  A    between atoms: C_19  and  C_20
REMARK   10  A    between atoms: C_20  and  N_21
REMARK   11  A    between atoms: C_24  and  N_25
REMARK   12  A    between atoms: N_25  and  O_28
REMARK   13  A    between atoms: C_26  and  C_30
REMARK   14  A    between atoms: C_31  and  C_32
REMARK   15  A    between atoms: N_34  and  C_36
REMARK   16  A    between atoms: C_37  and  C_38
REMARK   17  A    between atoms: C_38  and  C_39
REMARK   18  A    between atoms: C_40  and  N_41
REMARK   19  A    between atoms: N_41  and  O_45
REMARK                            x       y       z     vdW  Elec       q    Type
REMARK                         _______ _______ _______ _____ _____    ______ ____
ROOT
ATOM      1  C   UNL     1      45.366   9.923  -7.480  0.00  0.00    +0.000 C 
ATOM      2  C   UNL     1      44.904   8.837  -7.703  0.00  0.00    +0.000 C 
ENDROOT
BRANCH   2   3
ATOM      3  N   UNL     1      44.386   7.617  -7.956  0.00  0.00    +0.000 N 
ATOM      4  C   UNL     1      43.166   7.250  -8.499  0.00  0.00    +0.000 C 
ATOM      5  O   UNL     1      42.229   8.015  -8.700  0.00  0.00    +0.000 OA
BRANCH   4   6
ATOM      6  C   UNL     1      42.973   5.851  -8.819  0.00  0.00    +0.000 C 
ATOM      7  C   UNL     1      42.827   4.688  -9.083  0.00  0.00    +0.000 C 
BRANCH   7   8
ATOM      8  C   UNL     1      42.673   3.291  -9.410  0.00  0.00    +0.000 C 
ATOM      9  O   UNL     1      43.565   2.724 -10.024  0.00  0.00    +0.000 OA
ATOM     10  N   UNL     1      41.498   2.716  -8.983  0.00  0.00    +0.000 N 
ATOM     11  H   UNL     1      40.861   3.321  -8.480  0.00  0.00    +0.000 HD
BRANCH  10  12
ATOM     12  C   UNL     1      41.068   1.444  -9.135  0.00  0.00    +0.000 C 
ATOM     13  C   UNL     1      40.691   0.313  -9.267  0.00  0.00    +0.000 C 
BRANCH  13  14
ATOM     14  C   UNL     1      40.215  -1.134  -9.427  0.00  0.00    +0.000 C 
BRANCH  14  15
ATOM     15  C   UNL     1      39.741  -2.581  -9.596  0.00  0.00    +0.000 C 
ATOM     16  C   UNL     1      39.372  -3.715  -9.729  0.00  0.00    +0.000 C 
BRANCH  16  17
ATOM     17  N   UNL     1      38.964  -4.991  -9.876  0.00  0.00    +0.000 N 
ATOM     18  C   UNL     1      38.756  -5.988  -8.953  0.00  0.00    +0.000 C 
ATOM     19  O   UNL     1      38.885  -5.974  -7.741  0.00  0.00    +0.000 OA
ATOM     20  C   UNL     1      38.294  -7.344  -9.425  0.00  0.00    +0.000 C 
BRANCH  17  21
ATOM     21  O   UNL     1      38.742  -5.256 -11.252  0.00  0.00    +0.000 OA
ATOM     22  H   UNL     1      39.587  -4.989 -11.669  0.00  0.00    +0.000 HD
ENDBRANCH  17  21
ENDBRANCH  16  17
ENDBRANCH  14  15
ENDBRANCH  13  14
ENDBRANCH  10  12
ENDBRANCH   7   8
ENDBRANCH   4   6
BRANCH   3  23
ATOM     23  O   UNL     1      45.427   6.663  -7.987  0.00  0.00    +0.000 OA
ATOM     24  H   UNL     1      45.258   6.219  -8.839  0.00  0.00    +0.000 HD
ENDBRANCH   3  23
ENDBRANCH   2   3
BRANCH   1  25
ATOM     25  C   UNL     1      45.948  11.313  -7.207  0.00  0.00    +0.000 C 
ATOM     26  C   UNL     1      46.411  12.396  -6.983  0.00  0.00    +0.000 C 
BRANCH  26  27
ATOM     27  C   UNL     1      47.009  13.776  -6.686  0.00  0.00    +0.000 C 
BRANCH  27  28
ATOM     28  N   UNL     1      47.521  14.999  -6.430  0.00  0.00    +0.000 N 
ATOM     29  C   UNL     1      48.311  15.405  -5.381  0.00  0.00    +0.000 C 
ATOM     30  O   UNL     1      48.700  14.698  -4.463  0.00  0.00    +0.000 OA
ATOM     31  H   UNL     1      47.286  15.702  -7.120  0.00  0.00    +0.000 HD
BRANCH  29  32
ATOM     32  C   UNL     1      48.696  16.796  -5.402  0.00  0.00    +0.000 C 
ATOM     33  C   UNL     1      49.039  17.947  -5.413  0.00  0.00    +0.000 C 
BRANCH  33  34
ATOM     34  C   UNL     1      49.473  19.329  -5.433  0.00  0.00    +0.000 C 
ATOM     35  O   UNL     1      48.682  20.168  -5.851  0.00  0.00    +0.000 OA
ATOM     36  N   UNL     1      50.765  19.597  -5.013  0.00  0.00    +0.000 N 
BRANCH  36  37
ATOM     37  C   UNL     1      51.391  20.771  -4.787  0.00  0.00    +0.000 C 
ATOM     38  C   UNL     1      51.950  21.814  -4.587  0.00  0.00    +0.000 C 
BRANCH  38  39
ATOM     39  C   UNL     1      52.670  23.141  -4.329  0.00  0.00    +0.000 C 
ATOM     40  C   UNL     1      53.238  24.178  -4.125  0.00  0.00    +0.000 C 
BRANCH  40  41
ATOM     41  C   UNL     1      53.966  25.500  -3.863  0.00  0.00    +0.000 C 
BRANCH  41  42
ATOM     42  N   UNL     1      54.657  26.754  -3.614  0.00  0.00    +0.000 NA
ATOM     43  H   UNL     1      54.473  27.417  -4.365  0.00  0.00    +0.000 HD
ATOM     44  H   UNL     1      54.308  27.189  -2.762  0.00  0.00    +0.000 HD
ENDBRANCH  41  42
ENDBRANCH  40  41
ENDBRANCH  38  39
ENDBRANCH  36  37
BRANCH  36  45
ATOM     45  O   UNL     1      51.471  18.556  -4.367  0.00  0.00    +0.000 OA
ATOM     46  H   UNL     1      51.121  18.619  -3.460  0.00  0.00    +0.000 HD
ENDBRANCH  36  45
ENDBRANCH  33  34
ENDBRANCH  29  32
ENDBRANCH  27  28
ENDBRANCH  26  27
ENDBRANCH   1  25
TORSDOF 19
ENDMDL
MODEL 5
REMARK VINA RESULT:      -4.0     16.646     23.688
REMARK  Name = Deferoxamine.pdbqt.pdb
REMARK  19 active torsions:
REMARK  status: ('A' for Active; 'I' for Inactive)
REMARK    1  A    between atoms: C_1  and  C_2
REMARK    2  A    between atoms: C_3  and  C_4
REMARK    3  A    between atoms: C_4  and  N_5
REMARK    4  A    between atoms: C_6  and  C_9
REMARK    5  A    between atoms: C_10  and  C_11
REMARK    6  A    between atoms: N_13  and  O_14
REMARK    7  A    between atoms: N_13  and  C_16
REMARK    8  A    between atoms: C_17  and  C_18
REMARK    9  A    between atoms: C_19  and  C_20
REMARK   10  A    between atoms: C_20  and  N_21
REMARK   11  A    between atoms: C_24  and  N_25
REMARK   12  A    between atoms: N_25  and  O_28
REMARK   13  A    between atoms: C_26  and  C_30
REMARK   14  A    between atoms: C_31  and  C_32
REMARK   15  A    between atoms: N_34  and  C_36
REMARK   16  A    between atoms: C_37  and  C_38
REMARK   17  A    between atoms: C_38  and  C_39
REMARK   18  A    between atoms: C_40  and  N_41
REMARK   19  A    between atoms: N_41  and  O_45
REMARK                            x       y       z     vdW  Elec       q    Type
REMARK                         _______ _______ _______ _____ _____    ______ ____
ROOT
ATOM      1  C   UNL     1      37.501   6.033  -7.462  0.00  0.00    +0.000 C 
ATOM      2  C   UNL     1      38.027   5.005  -7.795  0.00  0.00    +0.000 C 
ENDROOT
BRANCH   2   3
ATOM      3  N   UNL     1      38.617   3.851  -8.170  0.00  0.00    +0.000 N 
ATOM      4  C   UNL     1      39.951   3.479  -8.174  0.00  0.00    +0.000 C 
ATOM      5  O   UNL     1      40.892   4.242  -7.982  0.00  0.00    +0.000 OA
BRANCH   4   6
ATOM      6  C   UNL     1      40.255   2.093  -8.463  0.00  0.00    +0.000 C 
ATOM      7  C   UNL     1      40.504   0.939  -8.689  0.00  0.00    +0.000 C 
BRANCH   7   8
ATOM      8  C   UNL     1      40.810  -0.448  -8.938  0.00  0.00    +0.000 C 
ATOM      9  O   UNL     1      41.955  -0.842  -8.770  0.00  0.00    +0.000 OA
ATOM     10  N   UNL     1      39.746  -1.217  -9.353  0.00  0.00    +0.000 N 
ATOM     11  H   UNL     1      38.857  -0.740  -9.439  0.00  0.00    +0.000 HD
BRANCH  10  12
ATOM     12  C   UNL     1      39.716  -2.531  -9.662  0.00  0.00    +0.000 C 
ATOM     13  C   UNL     1      39.684  -3.700  -9.932  0.00  0.00    +0.000 C 
BRANCH  13  14
ATOM     14  C   UNL     1      39.635  -5.193 -10.274  0.00  0.00    +0.000 C 
BRANCH  14  15
ATOM     15  C   UNL     1      39.594  -6.684 -10.619  0.00  0.00    +0.000 C 
ATOM     16  C   UNL     1      39.559  -7.854 -10.888  0.00  0.00    +0.000 C 
BRANCH  16  17
ATOM     17  N   UNL     1      39.515  -9.166 -11.186  0.00  0.00    +0.000 N 
ATOM     18  C   UNL     1      40.115  -9.889 -12.190  0.00  0.00    +0.000 C 
ATOM     19  O   UNL     1      40.859  -9.522 -13.082  0.00  0.00    +0.000 OA
ATOM     20  C   UNL     1      39.872 -11.375 -12.275  0.00  0.00    +0.000 C 
BRANCH  17  21
ATOM     21  O   UNL     1      38.678  -9.831 -10.252  0.00  0.00    +0.000 OA
ATOM     22  H   UNL     1      37.777  -9.605 -10.562  0.00  0.00    +0.000 HD
ENDBRANCH  17  21
ENDBRANCH  16  17
ENDBRANCH  14  15
ENDBRANCH  13  14
ENDBRANCH  10  12
ENDBRANCH   7   8
ENDBRANCH   4   6
BRANCH   3  23
ATOM     23  O   UNL     1      37.652   2.819  -8.197  0.00  0.00    +0.000 OA
ATOM     24  H   UNL     1      38.207   2.040  -8.391  0.00  0.00    +0.000 HD
ENDBRANCH   3  23
ENDBRANCH   2   3
BRANCH   1  25
ATOM     25  C   UNL     1      36.816   7.334  -7.037  0.00  0.00    +0.000 C 
ATOM     26  C   UNL     1      36.279   8.349  -6.691  0.00  0.00    +0.000 C 
BRANCH  26  27
ATOM     27  C   UNL     1      35.592   9.641  -6.236  0.00  0.00    +0.000 C 
BRANCH  27  28
ATOM     28  N   UNL     1      34.992  10.777  -5.818  0.00  0.00    +0.000 N 
ATOM     29  C   UNL     1      34.522  11.833  -6.562  0.00  0.00    +0.000 C 
ATOM     30  O   UNL     1      34.568  11.926  -7.781  0.00  0.00    +0.000 OA
ATOM     31  H   UNL     1      34.875  10.842  -4.815  0.00  0.00    +0.000 HD
BRANCH  29  32
ATOM     32  C   UNL     1      33.925  12.904  -5.803  0.00  0.00    +0.000 C 
ATOM     33  C   UNL     1      33.420  13.780  -5.154  0.00  0.00    +0.000 C 
BRANCH  33  34
ATOM     34  C   UNL     1      32.815  14.825  -4.353  0.00  0.00    +0.000 C 
ATOM     35  O   UNL     1      32.242  15.735  -4.943  0.00  0.00    +0.000 OA
ATOM     36  N   UNL     1      32.961  14.740  -2.979  0.00  0.00    +0.000 N 
BRANCH  36  37
ATOM     37  C   UNL     1      32.402  15.465  -1.988  0.00  0.00    +0.000 C 
ATOM     38  C   UNL     1      31.906  16.108  -1.105  0.00  0.00    +0.000 C 
BRANCH  38  39
ATOM     39  C   UNL     1      31.273  16.924   0.027  0.00  0.00    +0.000 C 
ATOM     40  C   UNL     1      30.774  17.559   0.915  0.00  0.00    +0.000 C 
BRANCH  40  41
ATOM     41  C   UNL     1      30.134  18.366   2.047  0.00  0.00    +0.000 C 
BRANCH  41  42
ATOM     42  N   UNL     1      29.526  19.131   3.123  0.00  0.00    +0.000 NA
ATOM     43  H   UNL     1      29.210  18.511   3.867  0.00  0.00    +0.000 HD
ATOM     44  H   UNL     1      30.211  19.754   3.548  0.00  0.00    +0.000 HD
ENDBRANCH  41  42
ENDBRANCH  40  41
ENDBRANCH  38  39
ENDBRANCH  36  37
BRANCH  36  45
ATOM     45  O   UNL     1      33.463  13.529  -2.450  0.00  0.00    +0.000 OA
ATOM     46  H   UNL     1      33.847  13.115  -3.244  0.00  0.00    +0.000 HD
ENDBRANCH  36  45
ENDBRANCH  33  34
ENDBRANCH  29  32
ENDBRANCH  27  28
ENDBRANCH  26  27
ENDBRANCH   1  25
TORSDOF 19
ENDMDL
MODEL 6
REMARK VINA RESULT:      -3.9      2.697      2.925
REMARK  Name = Deferoxamine.pdbqt.pdb
REMARK  19 active torsions:
REMARK  status: ('A' for Active; 'I' for Inactive)
REMARK    1  A    between atoms: C_1  and  C_2
REMARK    2  A    between atoms: C_3  and  C_4
REMARK    3  A    between atoms: C_4  and  N_5
REMARK    4  A    between atoms: C_6  and  C_9
REMARK    5  A    between atoms: C_10  and  C_11
REMARK    6  A    between atoms: N_13  and  O_14
REMARK    7  A    between atoms: N_13  and  C_16
REMARK    8  A    between atoms: C_17  and  C_18
REMARK    9  A    between atoms: C_19  and  C_20
REMARK   10  A    between atoms: C_20  and  N_21
REMARK   11  A    between atoms: C_24  and  N_25
REMARK   12  A    between atoms: N_25  and  O_28
REMARK   13  A    between atoms: C_26  and  C_30
REMARK   14  A    between atoms: C_31  and  C_32
REMARK   15  A    between atoms: N_34  and  C_36
REMARK   16  A    between atoms: C_37  and  C_38
REMARK   17  A    between atoms: C_38  and  C_39
REMARK   18  A    between atoms: C_40  and  N_41
REMARK   19  A    between atoms: N_41  and  O_45
REMARK                            x       y       z     vdW  Elec       q    Type
REMARK                         _______ _______ _______ _____ _____    ______ ____
ROOT
ATOM      1  C   UNL     1      35.470  18.522   2.938  0.00  0.00    +0.000 C 
ATOM      2  C   UNL     1      36.249  19.431   2.838  0.00  0.00    +0.000 C 
ENDROOT
BRANCH   2   3
ATOM      3  N   UNL     1      37.125  20.452   2.727  0.00  0.00    +0.000 N 
ATOM      4  C   UNL     1      37.735  21.000   1.612  0.00  0.00    +0.000 C 
ATOM      5  O   UNL     1      37.707  20.512   0.487  0.00  0.00    +0.000 OA
BRANCH   4   6
ATOM      6  C   UNL     1      38.492  22.220   1.798  0.00  0.00    +0.000 C 
ATOM      7  C   UNL     1      39.120  23.235   1.939  0.00  0.00    +0.000 C 
BRANCH   7   8
ATOM      8  C   UNL     1      39.883  24.450   2.087  0.00  0.00    +0.000 C 
ATOM      9  O   UNL     1      39.371  25.515   1.775  0.00  0.00    +0.000 OA
ATOM     10  N   UNL     1      41.157  24.284   2.582  0.00  0.00    +0.000 N 
ATOM     11  H   UNL     1      41.433  23.334   2.798  0.00  0.00    +0.000 HD
BRANCH  10  12
ATOM     12  C   UNL     1      42.102  25.217   2.830  0.00  0.00    +0.000 C 
ATOM     13  C   UNL     1      42.942  26.047   3.044  0.00  0.00    +0.000 C 
BRANCH  13  14
ATOM     14  C   UNL     1      44.012  27.111   3.308  0.00  0.00    +0.000 C 
BRANCH  14  15
ATOM     15  C   UNL     1      45.076  28.179   3.576  0.00  0.00    +0.000 C 
ATOM     16  C   UNL     1      45.912  29.015   3.785  0.00  0.00    +0.000 C 
BRANCH  16  17
ATOM     17  N   UNL     1      46.853  29.951   4.012  0.00  0.00    +0.000 N 
ATOM     18  C   UNL     1      46.913  30.972   4.931  0.00  0.00    +0.000 C 
ATOM     19  O   UNL     1      46.117  31.296   5.795  0.00  0.00    +0.000 OA
ATOM     20  C   UNL     1      48.116  31.881   4.945  0.00  0.00    +0.000 C 
BRANCH  17  21
ATOM     21  O   UNL     1      47.923  29.773   3.096  0.00  0.00    +0.000 OA
ATOM     22  H   UNL     1      47.472  29.444   2.291  0.00  0.00    +0.000 HD
ENDBRANCH  17  21
ENDBRANCH  16  17
ENDBRANCH  14  15
ENDBRANCH  13  14
ENDBRANCH  10  12
ENDBRANCH   7   8
ENDBRANCH   4   6
BRANCH   3  23
ATOM     23  O   UNL     1      37.074  21.242   3.897  0.00  0.00    +0.000 OA
ATOM     24  H   UNL     1      37.265  22.130   3.540  0.00  0.00    +0.000 HD
ENDBRANCH   3  23
ENDBRANCH   2   3
BRANCH   1  25
ATOM     25  C   UNL     1      34.475  17.368   3.081  0.00  0.00    +0.000 C 
ATOM     26  C   UNL     1      33.689  16.470   3.204  0.00  0.00    +0.000 C 
BRANCH  26  27
ATOM     27  C   UNL     1      32.679  15.330   3.371  0.00  0.00    +0.000 C 
BRANCH  27  28
ATOM     28  N   UNL     1      31.797  14.315   3.506  0.00  0.00    +0.000 N 
ATOM     29  C   UNL     1      31.246  13.513   2.536  0.00  0.00    +0.000 C 
ATOM     30  O   UNL     1      31.468  13.585   1.336  0.00  0.00    +0.000 OA
ATOM     31  H   UNL     1      31.520  14.128   4.461  0.00  0.00    +0.000 HD
BRANCH  29  32
ATOM     32  C   UNL     1      30.330  12.507   3.017  0.00  0.00    +0.000 C 
ATOM     33  C   UNL     1      29.572  11.676   3.439  0.00  0.00    +0.000 C 
BRANCH  33  34
ATOM     34  C   UNL     1      28.654  10.687   3.967  0.00  0.00    +0.000 C 
ATOM     35  O   UNL     1      28.310  10.798   5.140  0.00  0.00    +0.000 OA
ATOM     36  N   UNL     1      28.261   9.665   3.119  0.00  0.00    +0.000 N 
BRANCH  36  37
ATOM     37  C   UNL     1      27.327   8.704   3.275  0.00  0.00    +0.000 C 
ATOM     38  C   UNL     1      26.494   7.851   3.414  0.00  0.00    +0.000 C 
BRANCH  38  39
ATOM     39  C   UNL     1      25.429   6.765   3.598  0.00  0.00    +0.000 C 
ATOM     40  C   UNL     1      24.599   5.911   3.742  0.00  0.00    +0.000 C 
BRANCH  40  41
ATOM     41  C   UNL     1      23.543   4.818   3.927  0.00  0.00    +0.000 C 
BRANCH  41  42
ATOM     42  N   UNL     1      22.541   3.780   4.103  0.00  0.00    +0.000 NA
ATOM     43  H   UNL     1      21.616   4.134   3.861  0.00  0.00    +0.000 HD
ATOM     44  H   UNL     1      22.719   3.003   3.469  0.00  0.00    +0.000 HD
ENDBRANCH  41  42
ENDBRANCH  40  41
ENDBRANCH  38  39
ENDBRANCH  36  37
BRANCH  36  45
ATOM     45  O   UNL     1      28.577   9.797   1.748  0.00  0.00    +0.000 OA
ATOM     46  H   UNL     1      28.214  10.680   1.550  0.00  0.00    +0.000 HD
ENDBRANCH  36  45
ENDBRANCH  33  34
ENDBRANCH  29  32
ENDBRANCH  27  28
ENDBRANCH  26  27
ENDBRANCH   1  25
TORSDOF 19
ENDMDL
MODEL 7
REMARK VINA RESULT:      -3.8      8.316     27.398
REMARK  Name = Deferoxamine.pdbqt.pdb
REMARK  19 active torsions:
REMARK  status: ('A' for Active; 'I' for Inactive)
REMARK    1  A    between atoms: C_1  and  C_2
REMARK    2  A    between atoms: C_3  and  C_4
REMARK    3  A    between atoms: C_4  and  N_5
REMARK    4  A    between atoms: C_6  and  C_9
REMARK    5  A    between atoms: C_10  and  C_11
REMARK    6  A    between atoms: N_13  and  O_14
REMARK    7  A    between atoms: N_13  and  C_16
REMARK    8  A    between atoms: C_17  and  C_18
REMARK    9  A    between atoms: C_19  and  C_20
REMARK   10  A    between atoms: C_20  and  N_21
REMARK   11  A    between atoms: C_24  and  N_25
REMARK   12  A    between atoms: N_25  and  O_28
REMARK   13  A    between atoms: C_26  and  C_30
REMARK   14  A    between atoms: C_31  and  C_32
REMARK   15  A    between atoms: N_34  and  C_36
REMARK   16  A    between atoms: C_37  and  C_38
REMARK   17  A    between atoms: C_38  and  C_39
REMARK   18  A    between atoms: C_40  and  N_41
REMARK   19  A    between atoms: N_41  and  O_45
REMARK                            x       y       z     vdW  Elec       q    Type
REMARK                         _______ _______ _______ _____ _____    ______ ____
ROOT
ATOM      1  C   UNL     1      24.861   6.554   3.580  0.00  0.00    +0.000 C 
ATOM      2  C   UNL     1      24.081   5.653   3.727  0.00  0.00    +0.000 C 
ENDROOT
BRANCH   2   3
ATOM      3  N   UNL     1      23.204   4.641   3.894  0.00  0.00    +0.000 N 
ATOM      4  C   UNL     1      22.072   4.549   4.684  0.00  0.00    +0.000 C 
ATOM      5  O   UNL     1      21.748   5.363   5.543  0.00  0.00    +0.000 OA
BRANCH   4   6
ATOM      6  C   UNL     1      21.227   3.386   4.506  0.00  0.00    +0.000 C 
ATOM      7  C   UNL     1      20.535   2.416   4.349  0.00  0.00    +0.000 C 
BRANCH   7   8
ATOM      8  C   UNL     1      19.713   1.250   4.139  0.00  0.00    +0.000 C 
ATOM      9  O   UNL     1      18.639   1.377   3.568  0.00  0.00    +0.000 OA
ATOM     10  N   UNL     1      20.235   0.070   4.617  0.00  0.00    +0.000 N 
ATOM     11  H   UNL     1      21.142   0.131   5.063  0.00  0.00    +0.000 HD
BRANCH  10  12
ATOM     12  C   UNL     1      19.709  -1.173   4.573  0.00  0.00    +0.000 C 
ATOM     13  C   UNL     1      19.240  -2.277   4.538  0.00  0.00    +0.000 C 
BRANCH  13  14
ATOM     14  C   UNL     1      18.635  -3.684   4.501  0.00  0.00    +0.000 C 
BRANCH  14  15
ATOM     15  C   UNL     1      18.038  -5.093   4.467  0.00  0.00    +0.000 C 
ATOM     16  C   UNL     1      17.571  -6.199   4.443  0.00  0.00    +0.000 C 
BRANCH  16  17
ATOM     17  N   UNL     1      17.049  -7.441   4.422  0.00  0.00    +0.000 N 
ATOM     18  C   UNL     1      17.253  -8.524   5.244  0.00  0.00    +0.000 C 
ATOM     19  O   UNL     1      17.969  -8.641   6.223  0.00  0.00    +0.000 OA
ATOM     20  C   UNL     1      16.515  -9.809   4.966  0.00  0.00    +0.000 C 
BRANCH  17  21
ATOM     21  O   UNL     1      16.150  -7.553   3.329  0.00  0.00    +0.000 OA
ATOM     22  H   UNL     1      15.431  -6.933   3.569  0.00  0.00    +0.000 HD
ENDBRANCH  17  21
ENDBRANCH  16  17
ENDBRANCH  14  15
ENDBRANCH  13  14
ENDBRANCH  10  12
ENDBRANCH   7   8
ENDBRANCH   4   6
BRANCH   3  23
ATOM     23  O   UNL     1      23.320   3.738   2.813  0.00  0.00    +0.000 OA
ATOM     24  H   UNL     1      23.541   2.908   3.276  0.00  0.00    +0.000 HD
ENDBRANCH   3  23
ENDBRANCH   2   3
BRANCH   1  25
ATOM     25  C   UNL     1      25.866   7.696   3.402  0.00  0.00    +0.000 C 
ATOM     26  C   UNL     1      26.659   8.587   3.276  0.00  0.00    +0.000 C 
BRANCH  26  27
ATOM     27  C   UNL     1      27.677   9.722   3.126  0.00  0.00    +0.000 C 
BRANCH  27  28
ATOM     28  N   UNL     1      28.583  10.714   2.980  0.00  0.00    +0.000 N 
ATOM     29  C   UNL     1      29.090  11.570   3.929  0.00  0.00    +0.000 C 
ATOM     30  O   UNL     1      28.794  11.579   5.115  0.00  0.00    +0.000 OA
ATOM     31  H   UNL     1      28.931  10.824   2.036  0.00  0.00    +0.000 HD
BRANCH  29  32
ATOM     32  C   UNL     1      30.055  12.525   3.442  0.00  0.00    +0.000 C 
ATOM     33  C   UNL     1      30.869  13.304   3.024  0.00  0.00    +0.000 C 
BRANCH  33  34
ATOM     34  C   UNL     1      31.851  14.231   2.500  0.00  0.00    +0.000 C 
ATOM     35  O   UNL     1      32.195  14.094   1.330  0.00  0.00    +0.000 OA
ATOM     36  N   UNL     1      32.357  15.183   3.369  0.00  0.00    +0.000 N 
BRANCH  36  37
ATOM     37  C   UNL     1      33.156  16.246   3.141  0.00  0.00    +0.000 C 
ATOM     38  C   UNL     1      33.866  17.191   2.935  0.00  0.00    +0.000 C 
BRANCH  38  39
ATOM     39  C   UNL     1      34.778  18.393   2.668  0.00  0.00    +0.000 C 
ATOM     40  C   UNL     1      35.491  19.334   2.453  0.00  0.00    +0.000 C 
BRANCH  40  41
ATOM     41  C   UNL     1      36.401  20.533   2.176  0.00  0.00    +0.000 C 
BRANCH  41  42
ATOM     42  N   UNL     1      37.265  21.672   1.912  0.00  0.00    +0.000 NA
ATOM     43  H   UNL     1      37.372  22.239   2.752  0.00  0.00    +0.000 HD
ATOM     44  H   UNL     1      38.201  21.358   1.663  0.00  0.00    +0.000 HD
ENDBRANCH  41  42
ENDBRANCH  40  41
ENDBRANCH  38  39
ENDBRANCH  36  37
BRANCH  36  45
ATOM     45  O   UNL     1      31.707  15.341   4.614  0.00  0.00    +0.000 OA
ATOM     46  H   UNL     1      30.844  15.700   4.337  0.00  0.00    +0.000 HD
ENDBRANCH  36  45
ENDBRANCH  33  34
ENDBRANCH  29  32
ENDBRANCH  27  28
ENDBRANCH  26  27
ENDBRANCH   1  25
TORSDOF 19
ENDMDL
MODEL 8
REMARK VINA RESULT:      -3.8     14.006     25.927
REMARK  Name = Deferoxamine.pdbqt.pdb
REMARK  19 active torsions:
REMARK  status: ('A' for Active; 'I' for Inactive)
REMARK    1  A    between atoms: C_1  and  C_2
REMARK    2  A    between atoms: C_3  and  C_4
REMARK    3  A    between atoms: C_4  and  N_5
REMARK    4  A    between atoms: C_6  and  C_9
REMARK    5  A    between atoms: C_10  and  C_11
REMARK    6  A    between atoms: N_13  and  O_14
REMARK    7  A    between atoms: N_13  and  C_16
REMARK    8  A    between atoms: C_17  and  C_18
REMARK    9  A    between atoms: C_19  and  C_20
REMARK   10  A    between atoms: C_20  and  N_21
REMARK   11  A    between atoms: C_24  and  N_25
REMARK   12  A    between atoms: N_25  and  O_28
REMARK   13  A    between atoms: C_26  and  C_30
REMARK   14  A    between atoms: C_31  and  C_32
REMARK   15  A    between atoms: N_34  and  C_36
REMARK   16  A    between atoms: C_37  and  C_38
REMARK   17  A    between atoms: C_38  and  C_39
REMARK   18  A    between atoms: C_40  and  N_41
REMARK   19  A    between atoms: N_41  and  O_45
REMARK                            x       y       z     vdW  Elec       q    Type
REMARK                         _______ _______ _______ _____ _____    ______ ____
ROOT
ATOM      1  C   UNL     1      45.359   9.954  -7.619  0.00  0.00    +0.000 C 
ATOM      2  C   UNL     1      44.556   9.099  -7.876  0.00  0.00    +0.000 C 
ENDROOT
BRANCH   2   3
ATOM      3  N   UNL     1      43.654   8.139  -8.167  0.00  0.00    +0.000 N 
ATOM      4  C   UNL     1      43.812   6.908  -8.780  0.00  0.00    +0.000 C 
ATOM      5  O   UNL     1      44.834   6.532  -9.345  0.00  0.00    +0.000 OA
BRANCH   4   6
ATOM      6  C   UNL     1      42.673   6.013  -8.784  0.00  0.00    +0.000 C 
ATOM      7  C   UNL     1      41.734   5.264  -8.798  0.00  0.00    +0.000 C 
BRANCH   7   8
ATOM      8  C   UNL     1      40.608   4.364  -8.838  0.00  0.00    +0.000 C 
ATOM      9  O   UNL     1      40.468   3.632  -9.808  0.00  0.00    +0.000 OA
ATOM     10  N   UNL     1      39.774   4.418  -7.744  0.00  0.00    +0.000 N 
ATOM     11  H   UNL     1      40.031   5.076  -7.019  0.00  0.00    +0.000 HD
BRANCH  10  12
ATOM     12  C   UNL     1      38.653   3.708  -7.493  0.00  0.00    +0.000 C 
ATOM     13  C   UNL     1      37.654   3.081  -7.273  0.00  0.00    +0.000 C 
BRANCH  13  14
ATOM     14  C   UNL     1      36.374   2.284  -7.000  0.00  0.00    +0.000 C 
BRANCH  14  15
ATOM     15  C   UNL     1      35.092   1.495  -6.723  0.00  0.00    +0.000 C 
ATOM     16  C   UNL     1      34.085   0.878  -6.508  0.00  0.00    +0.000 C 
BRANCH  16  17
ATOM     17  N   UNL     1      32.952   0.188  -6.272  0.00  0.00    +0.000 N 
ATOM     18  C   UNL     1      31.801   0.535  -5.606  0.00  0.00    +0.000 C 
ATOM     19  O   UNL     1      31.501   1.577  -5.050  0.00  0.00    +0.000 OA
ATOM     20  C   UNL     1      30.680  -0.469  -5.498  0.00  0.00    +0.000 C 
BRANCH  17  21
ATOM     21  O   UNL     1      33.065  -1.106  -6.844  0.00  0.00    +0.000 OA
ATOM     22  H   UNL     1      33.901  -1.445  -6.463  0.00  0.00    +0.000 HD
ENDBRANCH  17  21
ENDBRANCH  16  17
ENDBRANCH  14  15
ENDBRANCH  13  14
ENDBRANCH  10  12
ENDBRANCH   7   8
ENDBRANCH   4   6
BRANCH   3  23
ATOM     23  O   UNL     1      42.495   8.332  -7.382  0.00  0.00    +0.000 OA
ATOM     24  H   UNL     1      42.701   9.174  -6.935  0.00  0.00    +0.000 HD
ENDBRANCH   3  23
ENDBRANCH   2   3
BRANCH   1  25
ATOM     25  C   UNL     1      46.374  11.055  -7.299  0.00  0.00    +0.000 C 
ATOM     26  C   UNL     1      47.176  11.914  -7.060  0.00  0.00    +0.000 C 
BRANCH  26  27
ATOM     27  C   UNL     1      48.208  13.008  -6.766  0.00  0.00    +0.000 C 
BRANCH  27  28
ATOM     28  N   UNL     1      49.130  13.960  -6.502  0.00  0.00    +0.000 N 
ATOM     29  C   UNL     1      49.334  15.165  -7.131  0.00  0.00    +0.000 C 
ATOM     30  O   UNL     1      48.689  15.598  -8.075  0.00  0.00    +0.000 OA
ATOM     31  H   UNL     1      49.744  13.742  -5.728  0.00  0.00    +0.000 HD
BRANCH  29  32
ATOM     32  C   UNL     1      50.413  15.962  -6.599  0.00  0.00    +0.000 C 
ATOM     33  C   UNL     1      51.301  16.645  -6.164  0.00  0.00    +0.000 C 
BRANCH  33  34
ATOM     34  C   UNL     1      52.357  17.485  -5.639  0.00  0.00    +0.000 C 
ATOM     35  O   UNL     1      53.499  17.283  -6.039  0.00  0.00    +0.000 OA
ATOM     36  N   UNL     1      52.006  18.434  -4.692  0.00  0.00    +0.000 N 
BRANCH  36  37
ATOM     37  C   UNL     1      52.724  19.433  -4.140  0.00  0.00    +0.000 C 
ATOM     38  C   UNL     1      53.366  20.319  -3.647  0.00  0.00    +0.000 C 
BRANCH  38  39
ATOM     39  C   UNL     1      54.186  21.447  -3.013  0.00  0.00    +0.000 C 
ATOM     40  C   UNL     1      54.825  22.334  -2.518  0.00  0.00    +0.000 C 
BRANCH  40  41
ATOM     41  C   UNL     1      55.637  23.469  -1.887  0.00  0.00    +0.000 C 
BRANCH  41  42
ATOM     42  N   UNL     1      56.409  24.546  -1.289  0.00  0.00    +0.000 NA
ATOM     43  H   UNL     1      55.793  25.199  -0.808  0.00  0.00    +0.000 HD
ATOM     44  H   UNL     1      57.040  24.179  -0.578  0.00  0.00    +0.000 HD
ENDBRANCH  41  42
ENDBRANCH  40  41
ENDBRANCH  38  39
ENDBRANCH  36  37
BRANCH  36  45
ATOM     45  O   UNL     1      50.628  18.680  -4.496  0.00  0.00    +0.000 OA
ATOM     46  H   UNL     1      50.255  18.380  -5.345  0.00  0.00    +0.000 HD
ENDBRANCH  36  45
ENDBRANCH  33  34
ENDBRANCH  29  32
ENDBRANCH  27  28
ENDBRANCH  26  27
ENDBRANCH   1  25
TORSDOF 19
ENDMDL
MODEL 9
REMARK VINA RESULT:      -3.8      4.438      4.976
REMARK  Name = Deferoxamine.pdbqt.pdb
REMARK  19 active torsions:
REMARK  status: ('A' for Active; 'I' for Inactive)
REMARK    1  A    between atoms: C_1  and  C_2
REMARK    2  A    between atoms: C_3  and  C_4
REMARK    3  A    between atoms: C_4  and  N_5
REMARK    4  A    between atoms: C_6  and  C_9
REMARK    5  A    between atoms: C_10  and  C_11
REMARK    6  A    between atoms: N_13  and  O_14
REMARK    7  A    between atoms: N_13  and  C_16
REMARK    8  A    between atoms: C_17  and  C_18
REMARK    9  A    between atoms: C_19  and  C_20
REMARK   10  A    between atoms: C_20  and  N_21
REMARK   11  A    between atoms: C_24  and  N_25
REMARK   12  A    between atoms: N_25  and  O_28
REMARK   13  A    between atoms: C_26  and  C_30
REMARK   14  A    between atoms: C_31  and  C_32
REMARK   15  A    between atoms: N_34  and  C_36
REMARK   16  A    between atoms: C_37  and  C_38
REMARK   17  A    between atoms: C_38  and  C_39
REMARK   18  A    between atoms: C_40  and  N_41
REMARK   19  A    between atoms: N_41  and  O_45
REMARK                            x       y       z     vdW  Elec       q    Type
REMARK                         _______ _______ _______ _____ _____    ______ ____
ROOT
ATOM      1  C   UNL     1      35.455  18.509   2.973  0.00  0.00    +0.000 C 
ATOM      2  C   UNL     1      36.239  19.414   2.874  0.00  0.00    +0.000 C 
ENDROOT
BRANCH   2   3
ATOM      3  N   UNL     1      37.119  20.431   2.764  0.00  0.00    +0.000 N 
ATOM      4  C   UNL     1      37.715  20.991   1.648  0.00  0.00    +0.000 C 
ATOM      5  O   UNL     1      37.666  20.521   0.516  0.00  0.00    +0.000 OA
BRANCH   4   6
ATOM      6  C   UNL     1      38.483  22.204   1.840  0.00  0.00    +0.000 C 
ATOM      7  C   UNL     1      39.124  23.206   2.012  0.00  0.00    +0.000 C 
BRANCH   7   8
ATOM      8  C   UNL     1      39.889  24.406   2.242  0.00  0.00    +0.000 C 
ATOM      9  O   UNL     1      41.107  24.329   2.313  0.00  0.00    +0.000 OA
ATOM     10  N   UNL     1      39.148  25.560   2.361  0.00  0.00    +0.000 N 
ATOM     11  H   UNL     1      38.145  25.458   2.272  0.00  0.00    +0.000 HD
BRANCH  10  12
ATOM     12  C   UNL     1      39.571  26.825   2.576  0.00  0.00    +0.000 C 
ATOM     13  C   UNL     1      39.949  27.947   2.773  0.00  0.00    +0.000 C 
BRANCH  13  14
ATOM     14  C   UNL     1      40.436  29.376   3.032  0.00  0.00    +0.000 C 
BRANCH  14  15
ATOM     15  C   UNL     1      40.929  30.803   3.285  0.00  0.00    +0.000 C 
ATOM     16  C   UNL     1      41.314  31.922   3.485  0.00  0.00    +0.000 C 
BRANCH  16  17
ATOM     17  N   UNL     1      41.745  33.177   3.717  0.00  0.00    +0.000 N 
ATOM     18  C   UNL     1      42.478  34.042   2.939  0.00  0.00    +0.000 C 
ATOM     19  O   UNL     1      42.932  33.896   1.818  0.00  0.00    +0.000 OA
ATOM     20  C   UNL     1      42.819  35.409   3.478  0.00  0.00    +0.000 C 
BRANCH  17  21
ATOM     21  O   UNL     1      41.325  33.586   5.009  0.00  0.00    +0.000 OA
ATOM     22  H   UNL     1      41.350  32.753   5.524  0.00  0.00    +0.000 HD
ENDBRANCH  17  21
ENDBRANCH  16  17
ENDBRANCH  14  15
ENDBRANCH  13  14
ENDBRANCH  10  12
ENDBRANCH   7   8
ENDBRANCH   4   6
BRANCH   3  23
ATOM     23  O   UNL     1      37.091  21.204   3.946  0.00  0.00    +0.000 OA
ATOM     24  H   UNL     1      37.282  22.096   3.599  0.00  0.00    +0.000 HD
ENDBRANCH   3  23
ENDBRANCH   2   3
BRANCH   1  25
ATOM     25  C   UNL     1      34.455  17.359   3.115  0.00  0.00    +0.000 C 
ATOM     26  C   UNL     1      33.665  16.464   3.236  0.00  0.00    +0.000 C 
BRANCH  26  27
ATOM     27  C   UNL     1      32.650  15.328   3.402  0.00  0.00    +0.000 C 
BRANCH  27  28
ATOM     28  N   UNL     1      31.764  14.317   3.536  0.00  0.00    +0.000 N 
ATOM     29  C   UNL     1      31.187  13.536   2.563  0.00  0.00    +0.000 C 
ATOM     30  O   UNL     1      31.387  13.629   1.360  0.00  0.00    +0.000 OA
ATOM     31  H   UNL     1      31.504  14.115   4.493  0.00  0.00    +0.000 HD
BRANCH  29  32
ATOM     32  C   UNL     1      30.274  12.529   3.043  0.00  0.00    +0.000 C 
ATOM     33  C   UNL     1      29.518  11.696   3.465  0.00  0.00    +0.000 C 
BRANCH  33  34
ATOM     34  C   UNL     1      28.603  10.704   3.992  0.00  0.00    +0.000 C 
ATOM     35  O   UNL     1      28.251  10.820   5.162  0.00  0.00    +0.000 OA
ATOM     36  N   UNL     1      28.221   9.676   3.148  0.00  0.00    +0.000 N 
BRANCH  36  37
ATOM     37  C   UNL     1      27.292   8.710   3.302  0.00  0.00    +0.000 C 
ATOM     38  C   UNL     1      26.463   7.853   3.441  0.00  0.00    +0.000 C 
BRANCH  38  39
ATOM     39  C   UNL     1      25.403   6.761   3.624  0.00  0.00    +0.000 C 
ATOM     40  C   UNL     1      24.578   5.903   3.768  0.00  0.00    +0.000 C 
BRANCH  40  41
ATOM     41  C   UNL     1      23.527   4.805   3.952  0.00  0.00    +0.000 C 
BRANCH  41  42
ATOM     42  N   UNL     1      22.529   3.762   4.127  0.00  0.00    +0.000 NA
ATOM     43  H   UNL     1      21.605   4.109   3.878  0.00  0.00    +0.000 HD
ATOM     44  H   UNL     1      22.716   2.982   3.499  0.00  0.00    +0.000 HD
ENDBRANCH  41  42
ENDBRANCH  40  41
ENDBRANCH  38  39
ENDBRANCH  36  37
BRANCH  36  45
ATOM     45  O   UNL     1      28.545   9.802   1.778  0.00  0.00    +0.000 OA
ATOM     46  H   UNL     1      28.178  10.682   1.573  0.00  0.00    +0.000 HD
ENDBRANCH  36  45
ENDBRANCH  33  34
ENDBRANCH  29  32
ENDBRANCH  27  28
ENDBRANCH  26  27
ENDBRANCH   1  25
TORSDOF 19
ENDMDL
