MODEL 1
REMARK VINA RESULT:      -6.7      0.000      0.000
REMARK  Name = 
REMARK  25 active torsions:
REMARK  status: ('A' for Active; 'I' for Inactive)
REMARK    1  A    between atoms: O_2  and  C_17
REMARK    2  A    between atoms: O_2  and  C_36
REMARK    3  A    between atoms: O_3  and  C_20
REMARK    4  A    between atoms: O_3  and  C_37
REMARK    5  A    between atoms: O_4  and  C_21
REMARK    6  A    between atoms: O_5  and  C_22
REMARK    7  A    between atoms: O_7  and  C_30
REMARK    8  A    between atoms: O_8  and  C_31
REMARK    9  A    between atoms: O_8  and  C_39
REMARK   10  A    between atoms: O_12  and  C_41
REMARK   11  A    between atoms: O_13  and  C_51
REMARK   12  A    between atoms: O_13  and  C_55
REMARK   13  A    between atoms: N_15  and  C_44
REMARK   14  A    between atoms: C_18  and  C_29
REMARK   15  A    between atoms: C_24  and  C_33
REMARK   16  A    between atoms: C_24  and  C_34
REMARK   17  A    between atoms: C_32  and  C_35
REMARK   18  A    between atoms: C_36  and  C_38
REMARK   19  A    between atoms: C_37  and  C_40
REMARK   20  A    between atoms: C_39  and  C_41
REMARK   21  A    between atoms: C_41  and  C_44
REMARK   22  A    between atoms: C_44  and  C_48
REMARK   23  A    between atoms: C_55  and  C_56
REMARK   24  A    between atoms: C_55  and  C_57
REMARK   25  A    between atoms: C_55  and  C_58
REMARK                            x       y       z     vdW  Elec       q    Type
REMARK                         _______ _______ _______ _____ _____    ______ ____
ROOT
ATOM      1  O   UNL     1      49.194   1.320  10.212  0.00  0.00    +0.000 OA
ATOM      2  O   UNL     1      53.955   1.987  14.908  0.00  0.00    +0.000 OA
ATOM      3  C   UNL     1      51.163   3.581  11.905  0.00  0.00    +0.000 C 
ATOM      4  C   UNL     1      50.664   2.819  10.642  0.00  0.00    +0.000 C 
ATOM      5  C   UNL     1      52.519   2.515  12.696  0.00  0.00    +0.000 C 
ATOM      6  C   UNL     1      49.988   1.602  11.397  0.00  0.00    +0.000 C 
ATOM      7  C   UNL     1      51.398   5.402  11.579  0.00  0.00    +0.000 C 
ATOM      8  C   UNL     1      51.974   6.996  12.424  0.00  0.00    +0.000 C 
ATOM      9  C   UNL     1      51.769   1.168  13.068  0.00  0.00    +0.000 C 
ATOM     10  C   UNL     1      50.924   0.534  11.921  0.00  0.00    +0.000 C 
ATOM     11  C   UNL     1      52.837   7.183  13.965  0.00  0.00    +0.000 C 
ATOM     12  C   UNL     1      49.236   2.782   9.965  0.00  0.00    +0.000 C 
ATOM     13  C   UNL     1      53.613   2.936  14.169  0.00  0.00    +0.000 C 
ATOM     14  C   UNL     1      53.041   7.641  11.425  0.00  0.00    +0.000 C 
ATOM     15  C   UNL     1      54.163   6.288  14.010  0.00  0.00    +0.000 C 
ATOM     16  C   UNL     1      53.608   2.045  11.644  0.00  0.00    +0.000 C 
ATOM     17  C   UNL     1      54.296   4.647  14.703  0.00  0.00    +0.000 C 
ATOM     18  C   UNL     1      54.589   7.361  11.701  0.00  0.00    +0.000 C 
ATOM     19  C   UNL     1      55.048   6.644  13.021  0.00  0.00    +0.000 C 
ATOM     20  C   UNL     1      53.309   8.720  14.057  0.00  0.00    +0.000 C 
ATOM     21  C   UNL     1      52.023   7.211  15.297  0.00  0.00    +0.000 C 
ATOM     22  C   UNL     1      56.470   6.142  12.988  0.00  0.00    +0.000 C 
ENDROOT
BRANCH  17  23
ATOM     23  O   UNL     1      54.244   4.844  16.117  0.00  0.00    +0.000 OA
ATOM     24  H   UNL     1      54.899   5.544  16.298  0.00  0.00    +0.000 HD
ENDBRANCH  17  23
BRANCH   9  25
ATOM     25  O   UNL     1      50.870   1.429  14.147  0.00  0.00    +0.000 OA
ATOM     26  H   UNL     1      50.291   2.160  13.864  0.00  0.00    +0.000 HD
ENDBRANCH   9  25
BRANCH   8  27
ATOM     27  O   UNL     1      50.818   7.855  12.406  0.00  0.00    +0.000 OA
ATOM     28  H   UNL     1      51.111   8.784  12.397  0.00  0.00    +0.000 HD
ENDBRANCH   8  27
BRANCH  18  29
ATOM     29  O   UNL     1      55.096   6.563  10.592  0.00  0.00    +0.000 OA
BRANCH  29  31
ATOM     30  O   UNL     1      56.829   7.950  10.175  0.00  0.00    +0.000 OA
ATOM     31  C   UNL     1      56.008   7.135   9.767  0.00  0.00    +0.000 C 
BRANCH  31  32
ATOM     32  C   UNL     1      55.831   6.817   8.278  0.00  0.00    +0.000 C 
BRANCH  32  33
ATOM     33  O   UNL     1      56.949   6.180   7.648  0.00  0.00    +0.000 OA
ATOM     34  H   UNL     1      57.326   5.575   8.314  0.00  0.00    +0.000 HD
ENDBRANCH  32  33
BRANCH  32  35
ATOM     35  C   UNL     1      55.430   8.122   7.542  0.00  0.00    +0.000 C 
BRANCH  35  36
ATOM     36  C   UNL     1      54.047   8.035   6.903  0.00  0.00    +0.000 A 
ATOM     37  C   UNL     1      52.904   8.088   7.717  0.00  0.00    +0.000 A 
ATOM     38  C   UNL     1      53.876   7.941   5.512  0.00  0.00    +0.000 A 
ATOM     39  C   UNL     1      51.626   8.021   7.157  0.00  0.00    +0.000 A 
ATOM     40  C   UNL     1      52.597   7.874   4.956  0.00  0.00    +0.000 A 
ATOM     41  C   UNL     1      51.473   7.911   5.778  0.00  0.00    +0.000 A 
ENDBRANCH  35  36
BRANCH  35  43
ATOM     42  O   UNL     1      57.245  10.350   7.509  0.00  0.00    +0.000 OA
ATOM     43  N   UNL     1      56.399   8.474   6.513  0.00  0.00    +0.000 N 
ATOM     44  C   UNL     1      57.139   9.611   6.545  0.00  0.00    +0.000 C 
ATOM     45  H   UNL     1      56.308   8.025   5.611  0.00  0.00    +0.000 HD
BRANCH  44  46
ATOM     46  O   UNL     1      57.748   9.763   5.350  0.00  0.00    +0.000 OA
BRANCH  46  47
ATOM     47  C   UNL     1      57.357  10.831   4.449  0.00  0.00    +0.000 C 
ATOM     48  C   UNL     1      58.161  12.108   4.714  0.00  0.00    +0.000 C 
ATOM     49  C   UNL     1      57.713  10.309   3.048  0.00  0.00    +0.000 C 
ATOM     50  C   UNL     1      55.846  11.083   4.509  0.00  0.00    +0.000 C 
ENDBRANCH  46  47
ENDBRANCH  44  46
ENDBRANCH  35  43
ENDBRANCH  32  35
ENDBRANCH  31  32
ENDBRANCH  29  31
ENDBRANCH  18  29
BRANCH   7  51
ATOM     51  O   UNL     1      52.656   5.105  11.329  0.00  0.00    +0.000 OA
BRANCH  51  53
ATOM     52  O   UNL     1      51.342   5.795   9.977  0.00  0.00    +0.000 OA
ATOM     53  C   UNL     1      52.451   5.271   9.981  0.00  0.00    +0.000 C 
BRANCH  53  54
ATOM     54  C   UNL     1      53.569   4.511   8.623  0.00  0.00    +0.000 A 
ATOM     55  C   UNL     1      54.711   3.628   8.862  0.00  0.00    +0.000 A 
ATOM     56  C   UNL     1      53.384   4.576   7.208  0.00  0.00    +0.000 A 
ATOM     57  C   UNL     1      55.498   2.959   7.891  0.00  0.00    +0.000 A 
ATOM     58  C   UNL     1      54.163   3.911   6.217  0.00  0.00    +0.000 A 
ATOM     59  C   UNL     1      55.220   3.102   6.556  0.00  0.00    +0.000 A 
ENDBRANCH  53  54
ENDBRANCH  51  53
ENDBRANCH   7  51
BRANCH   4  60
ATOM     60  O   UNL     1      51.747   2.444   9.759  0.00  0.00    +0.000 OA
BRANCH  60  62
ATOM     61  O   UNL     1      50.947   2.335   7.673  0.00  0.00    +0.000 OA
ATOM     62  C   UNL     1      51.579   1.800   8.581  0.00  0.00    +0.000 C 
ATOM     63  C   UNL     1      52.070   0.393   8.447  0.00  0.00    +0.000 C 
ENDBRANCH  60  62
ENDBRANCH   4  60
TORSDOF 17
ENDMDL
MODEL 2
REMARK VINA RESULT:      -6.7      1.183      2.032
REMARK  Name = 
REMARK  25 active torsions:
REMARK  status: ('A' for Active; 'I' for Inactive)
REMARK    1  A    between atoms: O_2  and  C_17
REMARK    2  A    between atoms: O_2  and  C_36
REMARK    3  A    between atoms: O_3  and  C_20
REMARK    4  A    between atoms: O_3  and  C_37
REMARK    5  A    between atoms: O_4  and  C_21
REMARK    6  A    between atoms: O_5  and  C_22
REMARK    7  A    between atoms: O_7  and  C_30
REMARK    8  A    between atoms: O_8  and  C_31
REMARK    9  A    between atoms: O_8  and  C_39
REMARK   10  A    between atoms: O_12  and  C_41
REMARK   11  A    between atoms: O_13  and  C_51
REMARK   12  A    between atoms: O_13  and  C_55
REMARK   13  A    between atoms: N_15  and  C_44
REMARK   14  A    between atoms: C_18  and  C_29
REMARK   15  A    between atoms: C_24  and  C_33
REMARK   16  A    between atoms: C_24  and  C_34
REMARK   17  A    between atoms: C_32  and  C_35
REMARK   18  A    between atoms: C_36  and  C_38
REMARK   19  A    between atoms: C_37  and  C_40
REMARK   20  A    between atoms: C_39  and  C_41
REMARK   21  A    between atoms: C_41  and  C_44
REMARK   22  A    between atoms: C_44  and  C_48
REMARK   23  A    between atoms: C_55  and  C_56
REMARK   24  A    between atoms: C_55  and  C_57
REMARK   25  A    between atoms: C_55  and  C_58
REMARK                            x       y       z     vdW  Elec       q    Type
REMARK                         _______ _______ _______ _____ _____    ______ ____
ROOT
ATOM      1  O   UNL     1      49.875   1.298  10.040  0.00  0.00    +0.000 OA
ATOM      2  O   UNL     1      53.746   2.201  15.459  0.00  0.00    +0.000 OA
ATOM      3  C   UNL     1      51.519   3.645  11.950  0.00  0.00    +0.000 C 
ATOM      4  C   UNL     1      51.247   2.825  10.654  0.00  0.00    +0.000 C 
ATOM      5  C   UNL     1      52.716   2.623  13.011  0.00  0.00    +0.000 C 
ATOM      6  C   UNL     1      50.450   1.636  11.332  0.00  0.00    +0.000 C 
ATOM      7  C   UNL     1      51.806   5.451  11.591  0.00  0.00    +0.000 C 
ATOM      8  C   UNL     1      52.226   7.084  12.454  0.00  0.00    +0.000 C 
ATOM      9  C   UNL     1      51.914   1.288  13.304  0.00  0.00    +0.000 C 
ATOM     10  C   UNL     1      51.282   0.599  12.056  0.00  0.00    +0.000 C 
ATOM     11  C   UNL     1      52.807   7.343  14.111  0.00  0.00    +0.000 C 
ATOM     12  C   UNL     1      49.959   2.748   9.741  0.00  0.00    +0.000 C 
ATOM     13  C   UNL     1      53.538   3.115  14.631  0.00  0.00    +0.000 C 
ATOM     14  C   UNL     1      53.451   7.695  11.629  0.00  0.00    +0.000 C 
ATOM     15  C   UNL     1      54.105   6.461  14.426  0.00  0.00    +0.000 C 
ATOM     16  C   UNL     1      53.973   2.118  12.185  0.00  0.00    +0.000 C 
ATOM     17  C   UNL     1      54.117   4.853  15.202  0.00  0.00    +0.000 C 
ATOM     18  C   UNL     1      54.927   7.439  12.181  0.00  0.00    +0.000 C 
ATOM     19  C   UNL     1      55.150   6.783  13.591  0.00  0.00    +0.000 C 
ATOM     20  C   UNL     1      53.256   8.887  14.218  0.00  0.00    +0.000 C 
ATOM     21  C   UNL     1      51.774   7.422  15.280  0.00  0.00    +0.000 C 
ATOM     22  C   UNL     1      56.556   6.290  13.827  0.00  0.00    +0.000 C 
ENDROOT
BRANCH  17  23
ATOM     23  O   UNL     1      53.819   5.110  16.575  0.00  0.00    +0.000 OA
ATOM     24  H   UNL     1      53.486   4.261  16.922  0.00  0.00    +0.000 HD
ENDBRANCH  17  23
BRANCH   9  25
ATOM     25  O   UNL     1      50.841   1.588  14.198  0.00  0.00    +0.000 OA
ATOM     26  H   UNL     1      50.628   0.765  14.674  0.00  0.00    +0.000 HD
ENDBRANCH   9  25
BRANCH   8  27
ATOM     27  O   UNL     1      51.090   7.933  12.197  0.00  0.00    +0.000 OA
ATOM     28  H   UNL     1      50.281   7.484  12.500  0.00  0.00    +0.000 HD
ENDBRANCH   8  27
BRANCH  18  29
ATOM     29  O   UNL     1      55.619   6.598  11.213  0.00  0.00    +0.000 OA
BRANCH  29  31
ATOM     30  O   UNL     1      56.975   8.262  10.509  0.00  0.00    +0.000 OA
ATOM     31  C   UNL     1      56.385   7.212  10.276  0.00  0.00    +0.000 C 
BRANCH  31  32
ATOM     32  C   UNL     1      56.323   6.593   8.876  0.00  0.00    +0.000 C 
BRANCH  32  33
ATOM     33  O   UNL     1      57.469   5.826   8.490  0.00  0.00    +0.000 OA
ATOM     34  H   UNL     1      57.541   5.916   7.521  0.00  0.00    +0.000 HD
ENDBRANCH  32  33
BRANCH  32  35
ATOM     35  C   UNL     1      56.023   7.722   7.853  0.00  0.00    +0.000 C 
BRANCH  35  36
ATOM     36  C   UNL     1      54.966   7.322   6.830  0.00  0.00    +0.000 A 
ATOM     37  C   UNL     1      54.351   8.311   6.045  0.00  0.00    +0.000 A 
ATOM     38  C   UNL     1      54.609   5.980   6.616  0.00  0.00    +0.000 A 
ATOM     39  C   UNL     1      53.388   7.971   5.093  0.00  0.00    +0.000 A 
ATOM     40  C   UNL     1      53.645   5.643   5.664  0.00  0.00    +0.000 A 
ATOM     41  C   UNL     1      53.033   6.638   4.905  0.00  0.00    +0.000 A 
ENDBRANCH  35  36
BRANCH  35  43
ATOM     42  O   UNL     1      57.109  10.371   7.603  0.00  0.00    +0.000 OA
ATOM     43  N   UNL     1      57.228   8.134   7.146  0.00  0.00    +0.000 N 
ATOM     44  C   UNL     1      57.598   9.431   6.999  0.00  0.00    +0.000 C 
ATOM     45  H   UNL     1      57.636   7.476   6.495  0.00  0.00    +0.000 HD
BRANCH  44  46
ATOM     46  O   UNL     1      58.605   9.493   6.101  0.00  0.00    +0.000 OA
BRANCH  46  47
ATOM     47  C   UNL     1      58.441  10.214   4.853  0.00  0.00    +0.000 C 
ATOM     48  C   UNL     1      58.756  11.704   5.021  0.00  0.00    +0.000 C 
ATOM     49  C   UNL     1      59.483   9.596   3.908  0.00  0.00    +0.000 C 
ATOM     50  C   UNL     1      57.046   9.987   4.260  0.00  0.00    +0.000 C 
ENDBRANCH  46  47
ENDBRANCH  44  46
ENDBRANCH  35  43
ENDBRANCH  32  35
ENDBRANCH  31  32
ENDBRANCH  29  31
ENDBRANCH  18  29
BRANCH   7  51
ATOM     51  O   UNL     1      53.089   5.154  11.577  0.00  0.00    +0.000 OA
BRANCH  51  53
ATOM     52  O   UNL     1      54.103   4.510   9.968  0.00  0.00    +0.000 OA
ATOM     53  C   UNL     1      53.102   5.180  10.203  0.00  0.00    +0.000 C 
BRANCH  53  54
ATOM     54  C   UNL     1      51.970   6.301   9.139  0.00  0.00    +0.000 A 
ATOM     55  C   UNL     1      52.107   7.750   8.995  0.00  0.00    +0.000 A 
ATOM     56  C   UNL     1      50.935   5.891   8.243  0.00  0.00    +0.000 A 
ATOM     57  C   UNL     1      51.364   8.603   8.140  0.00  0.00    +0.000 A 
ATOM     58  C   UNL     1      50.178   6.731   7.377  0.00  0.00    +0.000 A 
ATOM     59  C   UNL     1      50.390   8.088   7.323  0.00  0.00    +0.000 A 
ENDBRANCH  53  54
ENDBRANCH  51  53
ENDBRANCH   7  51
BRANCH   4  60
ATOM     60  O   UNL     1      52.468   2.421   9.990  0.00  0.00    +0.000 OA
BRANCH  60  62
ATOM     61  O   UNL     1      52.645   0.580   8.733  0.00  0.00    +0.000 OA
ATOM     62  C   UNL     1      52.510   1.800   8.789  0.00  0.00    +0.000 C 
ATOM     63  C   UNL     1      52.507   2.628   7.543  0.00  0.00    +0.000 C 
ENDBRANCH  60  62
ENDBRANCH   4  60
TORSDOF 17
ENDMDL
MODEL 3
REMARK VINA RESULT:      -6.6      3.157      7.283
REMARK  Name = 
REMARK  25 active torsions:
REMARK  status: ('A' for Active; 'I' for Inactive)
REMARK    1  A    between atoms: O_2  and  C_17
REMARK    2  A    between atoms: O_2  and  C_36
REMARK    3  A    between atoms: O_3  and  C_20
REMARK    4  A    between atoms: O_3  and  C_37
REMARK    5  A    between atoms: O_4  and  C_21
REMARK    6  A    between atoms: O_5  and  C_22
REMARK    7  A    between atoms: O_7  and  C_30
REMARK    8  A    between atoms: O_8  and  C_31
REMARK    9  A    between atoms: O_8  and  C_39
REMARK   10  A    between atoms: O_12  and  C_41
REMARK   11  A    between atoms: O_13  and  C_51
REMARK   12  A    between atoms: O_13  and  C_55
REMARK   13  A    between atoms: N_15  and  C_44
REMARK   14  A    between atoms: C_18  and  C_29
REMARK   15  A    between atoms: C_24  and  C_33
REMARK   16  A    between atoms: C_24  and  C_34
REMARK   17  A    between atoms: C_32  and  C_35
REMARK   18  A    between atoms: C_36  and  C_38
REMARK   19  A    between atoms: C_37  and  C_40
REMARK   20  A    between atoms: C_39  and  C_41
REMARK   21  A    between atoms: C_41  and  C_44
REMARK   22  A    between atoms: C_44  and  C_48
REMARK   23  A    between atoms: C_55  and  C_56
REMARK   24  A    between atoms: C_55  and  C_57
REMARK   25  A    between atoms: C_55  and  C_58
REMARK                            x       y       z     vdW  Elec       q    Type
REMARK                         _______ _______ _______ _____ _____    ______ ____
ROOT
ATOM      1  O   UNL     1      58.049   4.618  18.499  0.00  0.00    +0.000 OA
ATOM      2  O   UNL     1      52.753   0.642  17.359  0.00  0.00    +0.000 OA
ATOM      3  C   UNL     1      56.242   2.986  16.064  0.00  0.00    +0.000 C 
ATOM      4  C   UNL     1      56.808   4.240  16.794  0.00  0.00    +0.000 C 
ATOM      5  C   UNL     1      54.610   2.536  16.921  0.00  0.00    +0.000 C 
ATOM      6  C   UNL     1      57.127   3.540  18.178  0.00  0.00    +0.000 C 
ATOM      7  C   UNL     1      56.384   3.129  14.211  0.00  0.00    +0.000 C 
ATOM      8  C   UNL     1      55.956   2.198  12.617  0.00  0.00    +0.000 C 
ATOM      9  C   UNL     1      55.042   2.217  18.412  0.00  0.00    +0.000 C 
ATOM     10  C   UNL     1      55.946   3.291  19.091  0.00  0.00    +0.000 C 
ATOM     11  C   UNL     1      54.892   0.793  12.406  0.00  0.00    +0.000 C 
ATOM     12  C   UNL     1      58.302   4.696  17.040  0.00  0.00    +0.000 C 
ATOM     13  C   UNL     1      53.372   1.205  16.431  0.00  0.00    +0.000 C 
ATOM     14  C   UNL     1      55.200   3.264  11.696  0.00  0.00    +0.000 C 
ATOM     15  C   UNL     1      53.443   1.051  13.035  0.00  0.00    +0.000 C 
ATOM     16  C   UNL     1      53.648   3.788  17.082  0.00  0.00    +0.000 C 
ATOM     17  C   UNL     1      52.914   0.582  14.675  0.00  0.00    +0.000 C 
ATOM     18  C   UNL     1      53.603   3.257  11.702  0.00  0.00    +0.000 C 
ATOM     19  C   UNL     1      52.812   2.114  12.432  0.00  0.00    +0.000 C 
ATOM     20  C   UNL     1      54.683   0.593  10.822  0.00  0.00    +0.000 C 
ATOM     21  C   UNL     1      55.462  -0.640  12.649  0.00  0.00    +0.000 C 
ATOM     22  C   UNL     1      51.351   2.418  12.652  0.00  0.00    +0.000 C 
ENDROOT
BRANCH  17  23
ATOM     23  O   UNL     1      52.761  -0.836  14.616  0.00  0.00    +0.000 OA
ATOM     24  H   UNL     1      52.411  -1.015  13.723  0.00  0.00    +0.000 HD
ENDBRANCH  17  23
BRANCH   9  25
ATOM     25  O   UNL     1      55.778   0.992  18.421  0.00  0.00    +0.000 OA
ATOM     26  H   UNL     1      56.707   1.219  18.609  0.00  0.00    +0.000 HD
ENDBRANCH   9  25
BRANCH   8  27
ATOM     27  O   UNL     1      57.230   1.943  11.993  0.00  0.00    +0.000 OA
ATOM     28  H   UNL     1      57.942   2.162  12.620  0.00  0.00    +0.000 HD
ENDBRANCH   8  27
BRANCH  18  29
ATOM     29  O   UNL     1      53.161   4.515  12.290  0.00  0.00    +0.000 OA
BRANCH  29  31
ATOM     30  O   UNL     1      53.855   5.983  10.721  0.00  0.00    +0.000 OA
ATOM     31  C   UNL     1      52.967   5.568  11.457  0.00  0.00    +0.000 C 
BRANCH  31  32
ATOM     32  C   UNL     1      51.627   6.293  11.623  0.00  0.00    +0.000 C 
BRANCH  32  33
ATOM     33  O   UNL     1      50.799   5.819  12.691  0.00  0.00    +0.000 OA
ATOM     34  H   UNL     1      50.215   5.141  12.300  0.00  0.00    +0.000 HD
ENDBRANCH  32  33
BRANCH  32  35
ATOM     35  C   UNL     1      50.878   6.258  10.264  0.00  0.00    +0.000 C 
BRANCH  35  36
ATOM     36  C   UNL     1      50.467   4.848   9.855  0.00  0.00    +0.000 A 
ATOM     37  C   UNL     1      51.309   4.095   9.021  0.00  0.00    +0.000 A 
ATOM     38  C   UNL     1      49.280   4.256  10.319  0.00  0.00    +0.000 A 
ATOM     39  C   UNL     1      50.963   2.797   8.641  0.00  0.00    +0.000 A 
ATOM     40  C   UNL     1      48.936   2.958   9.936  0.00  0.00    +0.000 A 
ATOM     41  C   UNL     1      49.775   2.230   9.095  0.00  0.00    +0.000 A 
ENDBRANCH  35  36
BRANCH  35  43
ATOM     42  O   UNL     1      50.617   8.859   9.070  0.00  0.00    +0.000 OA
ATOM     43  N   UNL     1      51.682   6.840   9.198  0.00  0.00    +0.000 N 
ATOM     44  C   UNL     1      51.408   8.042   8.630  0.00  0.00    +0.000 C 
ATOM     45  H   UNL     1      52.270   6.216   8.662  0.00  0.00    +0.000 HD
BRANCH  44  46
ATOM     46  O   UNL     1      52.174   8.182   7.527  0.00  0.00    +0.000 OA
BRANCH  46  47
ATOM     47  C   UNL     1      51.837   7.489   6.298  0.00  0.00    +0.000 C 
ATOM     48  C   UNL     1      50.372   7.039   6.293  0.00  0.00    +0.000 C 
ATOM     49  C   UNL     1      52.031   8.539   5.193  0.00  0.00    +0.000 C 
ATOM     50  C   UNL     1      52.795   6.322   6.039  0.00  0.00    +0.000 C 
ENDBRANCH  46  47
ENDBRANCH  44  46
ENDBRANCH  35  43
ENDBRANCH  32  35
ENDBRANCH  31  32
ENDBRANCH  29  31
ENDBRANCH  18  29
BRANCH   7  51
ATOM     51  O   UNL     1      55.153   3.597  14.241  0.00  0.00    +0.000 OA
BRANCH  51  53
ATOM     52  O   UNL     1      56.798   4.652  13.780  0.00  0.00    +0.000 OA
ATOM     53  C   UNL     1      55.606   4.866  13.971  0.00  0.00    +0.000 C 
BRANCH  53  54
ATOM     54  C   UNL     1      54.560   6.452  14.213  0.00  0.00    +0.000 A 
ATOM     55  C   UNL     1      54.810   7.739  13.563  0.00  0.00    +0.000 A 
ATOM     56  C   UNL     1      53.334   6.584  14.935  0.00  0.00    +0.000 A 
ATOM     57  C   UNL     1      54.006   8.906  13.628  0.00  0.00    +0.000 A 
ATOM     58  C   UNL     1      52.512   7.746  15.012  0.00  0.00    +0.000 A 
ATOM     59  C   UNL     1      52.846   8.908  14.359  0.00  0.00    +0.000 A 
ENDBRANCH  53  54
ENDBRANCH  51  53
ENDBRANCH   7  51
BRANCH   4  60
ATOM     60  O   UNL     1      55.841   5.313  16.878  0.00  0.00    +0.000 OA
BRANCH  60  62
ATOM     61  O   UNL     1      55.636   6.701  18.620  0.00  0.00    +0.000 OA
ATOM     62  C   UNL     1      56.071   6.498  17.489  0.00  0.00    +0.000 C 
ATOM     63  C   UNL     1      56.757   7.587  16.726  0.00  0.00    +0.000 C 
ENDBRANCH  60  62
ENDBRANCH   4  60
TORSDOF 17
ENDMDL
MODEL 4
REMARK VINA RESULT:      -6.1      2.998      9.057
REMARK  Name = 
REMARK  25 active torsions:
REMARK  status: ('A' for Active; 'I' for Inactive)
REMARK    1  A    between atoms: O_2  and  C_17
REMARK    2  A    between atoms: O_2  and  C_36
REMARK    3  A    between atoms: O_3  and  C_20
REMARK    4  A    between atoms: O_3  and  C_37
REMARK    5  A    between atoms: O_4  and  C_21
REMARK    6  A    between atoms: O_5  and  C_22
REMARK    7  A    between atoms: O_7  and  C_30
REMARK    8  A    between atoms: O_8  and  C_31
REMARK    9  A    between atoms: O_8  and  C_39
REMARK   10  A    between atoms: O_12  and  C_41
REMARK   11  A    between atoms: O_13  and  C_51
REMARK   12  A    between atoms: O_13  and  C_55
REMARK   13  A    between atoms: N_15  and  C_44
REMARK   14  A    between atoms: C_18  and  C_29
REMARK   15  A    between atoms: C_24  and  C_33
REMARK   16  A    between atoms: C_24  and  C_34
REMARK   17  A    between atoms: C_32  and  C_35
REMARK   18  A    between atoms: C_36  and  C_38
REMARK   19  A    between atoms: C_37  and  C_40
REMARK   20  A    between atoms: C_39  and  C_41
REMARK   21  A    between atoms: C_41  and  C_44
REMARK   22  A    between atoms: C_44  and  C_48
REMARK   23  A    between atoms: C_55  and  C_56
REMARK   24  A    between atoms: C_55  and  C_57
REMARK   25  A    between atoms: C_55  and  C_58
REMARK                            x       y       z     vdW  Elec       q    Type
REMARK                         _______ _______ _______ _____ _____    ______ ____
ROOT
ATOM      1  O   UNL     1      53.551   7.320   4.942  0.00  0.00    +0.000 OA
ATOM      2  O   UNL     1      52.770   0.789   3.565  0.00  0.00    +0.000 OA
ATOM      3  C   UNL     1      52.291   4.339   6.118  0.00  0.00    +0.000 C 
ATOM      4  C   UNL     1      53.245   5.570   6.140  0.00  0.00    +0.000 C 
ATOM      5  C   UNL     1      53.109   3.024   5.020  0.00  0.00    +0.000 C 
ATOM      6  C   UNL     1      53.071   5.985   4.622  0.00  0.00    +0.000 C 
ATOM      7  C   UNL     1      51.621   3.940   7.812  0.00  0.00    +0.000 C 
ATOM      8  C   UNL     1      50.516   2.692   8.711  0.00  0.00    +0.000 C 
ATOM      9  C   UNL     1      53.210   3.727   3.603  0.00  0.00    +0.000 C 
ATOM     10  C   UNL     1      53.833   5.157   3.609  0.00  0.00    +0.000 C 
ATOM     11  C   UNL     1      49.900   1.134   8.124  0.00  0.00    +0.000 C 
ATOM     12  C   UNL     1      52.925   7.113   6.270  0.00  0.00    +0.000 C 
ATOM     13  C   UNL     1      52.532   1.262   4.698  0.00  0.00    +0.000 C 
ATOM     14  C   UNL     1      51.372   2.199   9.967  0.00  0.00    +0.000 C 
ATOM     15  C   UNL     1      51.081   0.198   7.583  0.00  0.00    +0.000 C 
ATOM     16  C   UNL     1      54.626   2.771   5.410  0.00  0.00    +0.000 C 
ATOM     17  C   UNL     1      51.617   0.064   5.885  0.00  0.00    +0.000 C 
ATOM     18  C   UNL     1      52.187   0.833   9.828  0.00  0.00    +0.000 C 
ATOM     19  C   UNL     1      51.991  -0.089   8.572  0.00  0.00    +0.000 C 
ATOM     20  C   UNL     1      49.248   0.378   9.388  0.00  0.00    +0.000 C 
ATOM     21  C   UNL     1      48.597   1.103   7.262  0.00  0.00    +0.000 C 
ATOM     22  C   UNL     1      53.058  -1.144   8.409  0.00  0.00    +0.000 C 
ENDROOT
BRANCH  17  23
ATOM     23  O   UNL     1      50.582  -0.673   5.233  0.00  0.00    +0.000 OA
ATOM     24  H   UNL     1      50.949  -1.569   5.113  0.00  0.00    +0.000 HD
ENDBRANCH  17  23
BRANCH   9  25
ATOM     25  O   UNL     1      51.895   3.852   3.061  0.00  0.00    +0.000 OA
ATOM     26  H   UNL     1      51.760   4.794   2.853  0.00  0.00    +0.000 HD
ENDBRANCH   9  25
BRANCH   8  27
ATOM     27  O   UNL     1      49.429   3.480   9.234  0.00  0.00    +0.000 OA
ATOM     28  H   UNL     1      48.592   3.165   8.849  0.00  0.00    +0.000 HD
ENDBRANCH   8  27
BRANCH  18  29
ATOM     29  O   UNL     1      53.606   1.159   9.892  0.00  0.00    +0.000 OA
BRANCH  29  31
ATOM     30  O   UNL     1      54.179  -0.245  11.565  0.00  0.00    +0.000 OA
ATOM     31  C   UNL     1      54.273   0.856  11.034  0.00  0.00    +0.000 C 
BRANCH  31  32
ATOM     32  C   UNL     1      55.009   2.030  11.690  0.00  0.00    +0.000 C 
BRANCH  32  33
ATOM     33  O   UNL     1      56.398   1.811  11.961  0.00  0.00    +0.000 OA
ATOM     34  H   UNL     1      56.432   1.280  12.780  0.00  0.00    +0.000 HD
ENDBRANCH  32  33
BRANCH  32  35
ATOM     35  C   UNL     1      54.236   2.439  12.972  0.00  0.00    +0.000 C 
BRANCH  35  36
ATOM     36  C   UNL     1      54.296   3.939  13.241  0.00  0.00    +0.000 A 
ATOM     37  C   UNL     1      55.000   4.773  12.358  0.00  0.00    +0.000 A 
ATOM     38  C   UNL     1      53.633   4.525  14.332  0.00  0.00    +0.000 A 
ATOM     39  C   UNL     1      55.062   6.152  12.574  0.00  0.00    +0.000 A 
ATOM     40  C   UNL     1      53.697   5.903  14.546  0.00  0.00    +0.000 A 
ATOM     41  C   UNL     1      54.413   6.715  13.670  0.00  0.00    +0.000 A 
ENDBRANCH  35  36
BRANCH  35  43
ATOM     42  O   UNL     1      52.925   0.379  14.488  0.00  0.00    +0.000 OA
ATOM     43  N   UNL     1      54.735   1.732  14.144  0.00  0.00    +0.000 N 
ATOM     44  C   UNL     1      53.991   0.846  14.853  0.00  0.00    +0.000 C 
ATOM     45  H   UNL     1      55.537   2.124  14.620  0.00  0.00    +0.000 HD
BRANCH  44  46
ATOM     46  O   UNL     1      54.641   0.558  16.000  0.00  0.00    +0.000 OA
BRANCH  46  47
ATOM     47  C   UNL     1      54.307   1.244  17.234  0.00  0.00    +0.000 C 
ATOM     48  C   UNL     1      52.799   1.491  17.346  0.00  0.00    +0.000 C 
ATOM     49  C   UNL     1      54.729   0.272  18.347  0.00  0.00    +0.000 C 
ATOM     50  C   UNL     1      55.111   2.540  17.384  0.00  0.00    +0.000 C 
ENDBRANCH  46  47
ENDBRANCH  44  46
ENDBRANCH  35  43
ENDBRANCH  32  35
ENDBRANCH  31  32
ENDBRANCH  29  31
ENDBRANCH  18  29
BRANCH   7  51
ATOM     51  O   UNL     1      52.624   3.092   7.912  0.00  0.00    +0.000 OA
BRANCH  51  53
ATOM     52  O   UNL     1      54.429   3.468   8.706  0.00  0.00    +0.000 OA
ATOM     53  C   UNL     1      53.305   3.959   8.731  0.00  0.00    +0.000 C 
BRANCH  53  54
ATOM     54  C   UNL     1      52.466   5.310   9.800  0.00  0.00    +0.000 A 
ATOM     55  C   UNL     1      51.698   5.067  11.022  0.00  0.00    +0.000 A 
ATOM     56  C   UNL     1      52.571   6.726   9.650  0.00  0.00    +0.000 A 
ATOM     57  C   UNL     1      51.152   6.038  11.900  0.00  0.00    +0.000 A 
ATOM     58  C   UNL     1      52.030   7.717  10.521  0.00  0.00    +0.000 A 
ATOM     59  C   UNL     1      51.321   7.375  11.647  0.00  0.00    +0.000 A 
ENDBRANCH  53  54
ENDBRANCH  51  53
ENDBRANCH   7  51
BRANCH   4  60
ATOM     60  O   UNL     1      54.598   5.214   6.508  0.00  0.00    +0.000 OA
BRANCH  60  62
ATOM     61  O   UNL     1      56.376   6.391   5.830  0.00  0.00    +0.000 OA
ATOM     62  C   UNL     1      55.587   6.111   6.730  0.00  0.00    +0.000 C 
ATOM     63  C   UNL     1      55.772   6.661   8.109  0.00  0.00    +0.000 C 
ENDBRANCH  60  62
ENDBRANCH   4  60
TORSDOF 17
ENDMDL
MODEL 5
REMARK VINA RESULT:      -6.1      2.961      9.043
REMARK  Name = 
REMARK  25 active torsions:
REMARK  status: ('A' for Active; 'I' for Inactive)
REMARK    1  A    between atoms: O_2  and  C_17
REMARK    2  A    between atoms: O_2  and  C_36
REMARK    3  A    between atoms: O_3  and  C_20
REMARK    4  A    between atoms: O_3  and  C_37
REMARK    5  A    between atoms: O_4  and  C_21
REMARK    6  A    between atoms: O_5  and  C_22
REMARK    7  A    between atoms: O_7  and  C_30
REMARK    8  A    between atoms: O_8  and  C_31
REMARK    9  A    between atoms: O_8  and  C_39
REMARK   10  A    between atoms: O_12  and  C_41
REMARK   11  A    between atoms: O_13  and  C_51
REMARK   12  A    between atoms: O_13  and  C_55
REMARK   13  A    between atoms: N_15  and  C_44
REMARK   14  A    between atoms: C_18  and  C_29
REMARK   15  A    between atoms: C_24  and  C_33
REMARK   16  A    between atoms: C_24  and  C_34
REMARK   17  A    between atoms: C_32  and  C_35
REMARK   18  A    between atoms: C_36  and  C_38
REMARK   19  A    between atoms: C_37  and  C_40
REMARK   20  A    between atoms: C_39  and  C_41
REMARK   21  A    between atoms: C_41  and  C_44
REMARK   22  A    between atoms: C_44  and  C_48
REMARK   23  A    between atoms: C_55  and  C_56
REMARK   24  A    between atoms: C_55  and  C_57
REMARK   25  A    between atoms: C_55  and  C_58
REMARK                            x       y       z     vdW  Elec       q    Type
REMARK                         _______ _______ _______ _____ _____    ______ ____
ROOT
ATOM      1  O   UNL     1      52.293   7.169   5.365  0.00  0.00    +0.000 OA
ATOM      2  O   UNL     1      54.351   0.823   6.172  0.00  0.00    +0.000 OA
ATOM      3  C   UNL     1      51.758   4.250   7.112  0.00  0.00    +0.000 C 
ATOM      4  C   UNL     1      52.154   5.749   6.964  0.00  0.00    +0.000 C 
ATOM      5  C   UNL     1      53.326   3.229   6.800  0.00  0.00    +0.000 C 
ATOM      6  C   UNL     1      52.453   5.725   5.409  0.00  0.00    +0.000 C 
ATOM      7  C   UNL     1      50.661   3.957   8.591  0.00  0.00    +0.000 C 
ATOM      8  C   UNL     1      49.784   2.566   9.531  0.00  0.00    +0.000 C 
ATOM      9  C   UNL     1      53.726   3.598   5.311  0.00  0.00    +0.000 C 
ATOM     10  C   UNL     1      53.777   5.123   4.990  0.00  0.00    +0.000 C 
ATOM     11  C   UNL     1      50.006   0.812   9.375  0.00  0.00    +0.000 C 
ATOM     12  C   UNL     1      51.310   6.988   6.461  0.00  0.00    +0.000 C 
ATOM     13  C   UNL     1      53.548   1.367   6.963  0.00  0.00    +0.000 C 
ATOM     14  C   UNL     1      50.197   2.766  11.062  0.00  0.00    +0.000 C 
ATOM     15  C   UNL     1      51.543   0.396   9.531  0.00  0.00    +0.000 C 
ATOM     16  C   UNL     1      54.563   3.748   7.647  0.00  0.00    +0.000 C 
ATOM     17  C   UNL     1      52.706   0.163   8.196  0.00  0.00    +0.000 C 
ATOM     18  C   UNL     1      51.410   1.896  11.629  0.00  0.00    +0.000 C 
ATOM     19  C   UNL     1      52.039   0.744  10.766  0.00  0.00    +0.000 C 
ATOM     20  C   UNL     1      49.211   0.125  10.596  0.00  0.00    +0.000 C 
ATOM     21  C   UNL     1      49.231   0.040   8.260  0.00  0.00    +0.000 C 
ATOM     22  C   UNL     1      53.372   0.251  11.271  0.00  0.00    +0.000 C 
ENDROOT
BRANCH  17  23
ATOM     23  O   UNL     1      52.317  -1.068   7.585  0.00  0.00    +0.000 OA
ATOM     24  H   UNL     1      53.155  -1.535   7.405  0.00  0.00    +0.000 HD
ENDBRANCH  17  23
BRANCH   9  25
ATOM     25  O   UNL     1      52.765   3.022   4.425  0.00  0.00    +0.000 OA
ATOM     26  H   UNL     1      52.554   2.136   4.770  0.00  0.00    +0.000 HD
ENDBRANCH   9  25
BRANCH   8  27
ATOM     27  O   UNL     1      48.383   2.891   9.436  0.00  0.00    +0.000 OA
ATOM     28  H   UNL     1      47.874   2.071   9.307  0.00  0.00    +0.000 HD
ENDBRANCH   8  27
BRANCH  18  29
ATOM     29  O   UNL     1      52.494   2.813  11.957  0.00  0.00    +0.000 OA
BRANCH  29  31
ATOM     30  O   UNL     1      53.096   4.115  13.702  0.00  0.00    +0.000 OA
ATOM     31  C   UNL     1      52.777   3.013  13.268  0.00  0.00    +0.000 C 
BRANCH  31  32
ATOM     32  C   UNL     1      52.831   1.742  14.124  0.00  0.00    +0.000 C 
BRANCH  32  33
ATOM     33  O   UNL     1      51.632   1.432  14.842  0.00  0.00    +0.000 OA
ATOM     34  H   UNL     1      51.060   0.948  14.216  0.00  0.00    +0.000 HD
ENDBRANCH  32  33
BRANCH  32  35
ATOM     35  C   UNL     1      54.054   1.842  15.075  0.00  0.00    +0.000 C 
BRANCH  35  36
ATOM     36  C   UNL     1      54.493   0.484  15.612  0.00  0.00    +0.000 A 
ATOM     37  C   UNL     1      54.122   0.100  16.911  0.00  0.00    +0.000 A 
ATOM     38  C   UNL     1      55.232  -0.421  14.831  0.00  0.00    +0.000 A 
ATOM     39  C   UNL     1      54.501  -1.143  17.424  0.00  0.00    +0.000 A 
ATOM     40  C   UNL     1      55.610  -1.662  15.347  0.00  0.00    +0.000 A 
ATOM     41  C   UNL     1      55.247  -2.021  16.643  0.00  0.00    +0.000 A 
ENDBRANCH  35  36
BRANCH  35  43
ATOM     42  O   UNL     1      55.777   3.845  16.205  0.00  0.00    +0.000 OA
ATOM     43  N   UNL     1      53.783   2.726  16.200  0.00  0.00    +0.000 N 
ATOM     44  C   UNL     1      54.709   3.569  16.724  0.00  0.00    +0.000 C 
ATOM     45  H   UNL     1      52.998   2.499  16.795  0.00  0.00    +0.000 HD
BRANCH  44  46
ATOM     46  O   UNL     1      54.234   4.060  17.889  0.00  0.00    +0.000 OA
BRANCH  46  47
ATOM     47  C   UNL     1      53.944   5.474  18.034  0.00  0.00    +0.000 C 
ATOM     48  C   UNL     1      53.566   6.108  16.691  0.00  0.00    +0.000 C 
ATOM     49  C   UNL     1      52.722   5.528  18.963  0.00  0.00    +0.000 C 
ATOM     50  C   UNL     1      55.106   6.213  18.708  0.00  0.00    +0.000 C 
ENDBRANCH  46  47
ENDBRANCH  44  46
ENDBRANCH  35  43
ENDBRANCH  32  35
ENDBRANCH  31  32
ENDBRANCH  29  31
ENDBRANCH  18  29
BRANCH   7  51
ATOM     51  O   UNL     1      51.768   3.671   9.244  0.00  0.00    +0.000 OA
BRANCH  51  53
ATOM     52  O   UNL     1      50.579   5.250   9.597  0.00  0.00    +0.000 OA
ATOM     53  C   UNL     1      51.685   4.850   9.945  0.00  0.00    +0.000 C 
BRANCH  53  54
ATOM     54  C   UNL     1      53.150   5.642  10.891  0.00  0.00    +0.000 A 
ATOM     55  C   UNL     1      54.548   5.220  10.794  0.00  0.00    +0.000 A 
ATOM     56  C   UNL     1      53.127   6.815  11.706  0.00  0.00    +0.000 A 
ATOM     57  C   UNL     1      55.676   5.841  11.388  0.00  0.00    +0.000 A 
ATOM     58  C   UNL     1      54.248   7.453  12.312  0.00  0.00    +0.000 A 
ATOM     59  C   UNL     1      55.524   6.968  12.154  0.00  0.00    +0.000 A 
ENDBRANCH  53  54
ENDBRANCH  51  53
ENDBRANCH   7  51
BRANCH   4  60
ATOM     60  O   UNL     1      53.293   6.102   7.784  0.00  0.00    +0.000 OA
BRANCH  60  62
ATOM     61  O   UNL     1      52.848   8.149   8.571  0.00  0.00    +0.000 OA
ATOM     62  C   UNL     1      53.659   7.374   8.069  0.00  0.00    +0.000 C 
ATOM     63  C   UNL     1      55.017   7.848   7.657  0.00  0.00    +0.000 C 
ENDBRANCH  60  62
ENDBRANCH   4  60
TORSDOF 17
ENDMDL
MODEL 6
REMARK VINA RESULT:      -5.9      2.682      8.673
REMARK  Name = 
REMARK  25 active torsions:
REMARK  status: ('A' for Active; 'I' for Inactive)
REMARK    1  A    between atoms: O_2  and  C_17
REMARK    2  A    between atoms: O_2  and  C_36
REMARK    3  A    between atoms: O_3  and  C_20
REMARK    4  A    between atoms: O_3  and  C_37
REMARK    5  A    between atoms: O_4  and  C_21
REMARK    6  A    between atoms: O_5  and  C_22
REMARK    7  A    between atoms: O_7  and  C_30
REMARK    8  A    between atoms: O_8  and  C_31
REMARK    9  A    between atoms: O_8  and  C_39
REMARK   10  A    between atoms: O_12  and  C_41
REMARK   11  A    between atoms: O_13  and  C_51
REMARK   12  A    between atoms: O_13  and  C_55
REMARK   13  A    between atoms: N_15  and  C_44
REMARK   14  A    between atoms: C_18  and  C_29
REMARK   15  A    between atoms: C_24  and  C_33
REMARK   16  A    between atoms: C_24  and  C_34
REMARK   17  A    between atoms: C_32  and  C_35
REMARK   18  A    between atoms: C_36  and  C_38
REMARK   19  A    between atoms: C_37  and  C_40
REMARK   20  A    between atoms: C_39  and  C_41
REMARK   21  A    between atoms: C_41  and  C_44
REMARK   22  A    between atoms: C_44  and  C_48
REMARK   23  A    between atoms: C_55  and  C_56
REMARK   24  A    between atoms: C_55  and  C_57
REMARK   25  A    between atoms: C_55  and  C_58
REMARK                            x       y       z     vdW  Elec       q    Type
REMARK                         _______ _______ _______ _____ _____    ______ ____
ROOT
ATOM      1  O   UNL     1      52.993   7.704   5.334  0.00  0.00    +0.000 OA
ATOM      2  O   UNL     1      53.190   1.023   4.637  0.00  0.00    +0.000 OA
ATOM      3  C   UNL     1      51.994   4.712   6.714  0.00  0.00    +0.000 C 
ATOM      4  C   UNL     1      52.778   6.057   6.688  0.00  0.00    +0.000 C 
ATOM      5  C   UNL     1      53.085   3.418   5.856  0.00  0.00    +0.000 C 
ATOM      6  C   UNL     1      52.722   6.291   5.123  0.00  0.00    +0.000 C 
ATOM      7  C   UNL     1      51.196   4.396   8.369  0.00  0.00    +0.000 C 
ATOM      8  C   UNL     1      50.163   3.105   9.294  0.00  0.00    +0.000 C 
ATOM      9  C   UNL     1      53.253   3.983   4.385  0.00  0.00    +0.000 C 
ATOM     10  C   UNL     1      53.688   5.478   4.288  0.00  0.00    +0.000 C 
ATOM     11  C   UNL     1      49.815   1.427   8.830  0.00  0.00    +0.000 C 
ATOM     12  C   UNL     1      52.255   7.547   6.610  0.00  0.00    +0.000 C 
ATOM     13  C   UNL     1      52.772   1.570   5.681  0.00  0.00    +0.000 C 
ATOM     14  C   UNL     1      50.930   2.862  10.674  0.00  0.00    +0.000 C 
ATOM     15  C   UNL     1      51.156   0.612   8.515  0.00  0.00    +0.000 C 
ATOM     16  C   UNL     1      54.569   3.414   6.416  0.00  0.00    +0.000 C 
ATOM     17  C   UNL     1      51.889   0.383   6.903  0.00  0.00    +0.000 C 
ATOM     18  C   UNL     1      51.920   1.612  10.770  0.00  0.00    +0.000 C 
ATOM     19  C   UNL     1      51.981   0.551   9.614  0.00  0.00    +0.000 C 
ATOM     20  C   UNL     1      49.128   0.719  10.103  0.00  0.00    +0.000 C 
ATOM     21  C   UNL     1      48.630   1.134   7.857  0.00  0.00    +0.000 C 
ATOM     22  C   UNL     1      53.182  -0.360   9.674  0.00  0.00    +0.000 C 
ENDROOT
BRANCH  17  23
ATOM     23  O   UNL     1      51.032  -0.549   6.243  0.00  0.00    +0.000 OA
ATOM     24  H   UNL     1      51.224  -1.409   6.663  0.00  0.00    +0.000 HD
ENDBRANCH  17  23
BRANCH   9  25
ATOM     25  O   UNL     1      52.001   3.873   3.708  0.00  0.00    +0.000 OA
ATOM     26  H   UNL     1      51.304   4.044   4.367  0.00  0.00    +0.000 HD
ENDBRANCH   9  25
BRANCH   8  27
ATOM     27  O   UNL     1      48.936   3.787   9.617  0.00  0.00    +0.000 OA
ATOM     28  H   UNL     1      48.341   3.170  10.081  0.00  0.00    +0.000 HD
ENDBRANCH   8  27
BRANCH  18  29
ATOM     29  O   UNL     1      53.271   2.133  10.933  0.00  0.00    +0.000 OA
BRANCH  29  31
ATOM     30  O   UNL     1      53.913   0.747  12.596  0.00  0.00    +0.000 OA
ATOM     31  C   UNL     1      53.915   1.867  12.097  0.00  0.00    +0.000 C 
BRANCH  31  32
ATOM     32  C   UNL     1      54.495   3.090  12.816  0.00  0.00    +0.000 C 
BRANCH  32  33
ATOM     33  O   UNL     1      55.829   2.937  13.313  0.00  0.00    +0.000 OA
ATOM     34  H   UNL     1      56.421   3.121  12.558  0.00  0.00    +0.000 HD
ENDBRANCH  32  33
BRANCH  32  35
ATOM     35  C   UNL     1      53.513   3.509  13.942  0.00  0.00    +0.000 C 
BRANCH  35  36
ATOM     36  C   UNL     1      53.170   4.994  13.900  0.00  0.00    +0.000 A 
ATOM     37  C   UNL     1      53.967   5.910  14.606  0.00  0.00    +0.000 A 
ATOM     38  C   UNL     1      52.096   5.488  13.141  0.00  0.00    +0.000 A 
ATOM     39  C   UNL     1      53.683   7.277  14.576  0.00  0.00    +0.000 A 
ATOM     40  C   UNL     1      51.813   6.855  13.113  0.00  0.00    +0.000 A 
ATOM     41  C   UNL     1      52.604   7.748  13.833  0.00  0.00    +0.000 A 
ENDBRANCH  35  36
BRANCH  35  43
ATOM     42  O   UNL     1      52.821   1.293  15.635  0.00  0.00    +0.000 OA
ATOM     43  N   UNL     1      54.044   3.187  15.259  0.00  0.00    +0.000 N 
ATOM     44  C   UNL     1      53.572   2.171  16.025  0.00  0.00    +0.000 C 
ATOM     45  H   UNL     1      54.561   3.909  15.744  0.00  0.00    +0.000 HD
BRANCH  44  46
ATOM     46  O   UNL     1      54.092   2.287  17.265  0.00  0.00    +0.000 OA
BRANCH  46  47
ATOM     47  C   UNL     1      55.178   1.427  17.697  0.00  0.00    +0.000 C 
ATOM     48  C   UNL     1      56.198   1.208  16.575  0.00  0.00    +0.000 C 
ATOM     49  C   UNL     1      55.859   2.201  18.836  0.00  0.00    +0.000 C 
ATOM     50  C   UNL     1      54.647   0.101  18.254  0.00  0.00    +0.000 C 
ENDBRANCH  46  47
ENDBRANCH  44  46
ENDBRANCH  35  43
ENDBRANCH  32  35
ENDBRANCH  31  32
ENDBRANCH  29  31
ENDBRANCH  18  29
BRANCH   7  51
ATOM     51  O   UNL     1      52.279   3.707   8.661  0.00  0.00    +0.000 OA
BRANCH  51  53
ATOM     52  O   UNL     1      51.703   5.392   9.588  0.00  0.00    +0.000 OA
ATOM     53  C   UNL     1      52.714   4.702   9.501  0.00  0.00    +0.000 C 
BRANCH  53  54
ATOM     54  C   UNL     1      54.543   4.950  10.017  0.00  0.00    +0.000 A 
ATOM     55  C   UNL     1      55.029   5.965  10.951  0.00  0.00    +0.000 A 
ATOM     56  C   UNL     1      55.659   4.122   9.685  0.00  0.00    +0.000 A 
ATOM     57  C   UNL     1      56.351   6.118  11.443  0.00  0.00    +0.000 A 
ATOM     58  C   UNL     1      56.993   4.259  10.169  0.00  0.00    +0.000 A 
ATOM     59  C   UNL     1      57.341   5.256  11.048  0.00  0.00    +0.000 A 
ENDBRANCH  53  54
ENDBRANCH  51  53
ENDBRANCH   7  51
BRANCH   4  60
ATOM     60  O   UNL     1      54.116   5.927   7.222  0.00  0.00    +0.000 OA
BRANCH  60  62
ATOM     61  O   UNL     1      54.712   7.878   8.142  0.00  0.00    +0.000 OA
ATOM     62  C   UNL     1      54.979   6.959   7.370  0.00  0.00    +0.000 C 
ATOM     63  C   UNL     1      56.194   7.019   6.500  0.00  0.00    +0.000 C 
ENDBRANCH  60  62
ENDBRANCH   4  60
TORSDOF 17
ENDMDL
MODEL 7
REMARK VINA RESULT:      -5.9      4.139      9.313
REMARK  Name = 
REMARK  25 active torsions:
REMARK  status: ('A' for Active; 'I' for Inactive)
REMARK    1  A    between atoms: O_2  and  C_17
REMARK    2  A    between atoms: O_2  and  C_36
REMARK    3  A    between atoms: O_3  and  C_20
REMARK    4  A    between atoms: O_3  and  C_37
REMARK    5  A    between atoms: O_4  and  C_21
REMARK    6  A    between atoms: O_5  and  C_22
REMARK    7  A    between atoms: O_7  and  C_30
REMARK    8  A    between atoms: O_8  and  C_31
REMARK    9  A    between atoms: O_8  and  C_39
REMARK   10  A    between atoms: O_12  and  C_41
REMARK   11  A    between atoms: O_13  and  C_51
REMARK   12  A    between atoms: O_13  and  C_55
REMARK   13  A    between atoms: N_15  and  C_44
REMARK   14  A    between atoms: C_18  and  C_29
REMARK   15  A    between atoms: C_24  and  C_33
REMARK   16  A    between atoms: C_24  and  C_34
REMARK   17  A    between atoms: C_32  and  C_35
REMARK   18  A    between atoms: C_36  and  C_38
REMARK   19  A    between atoms: C_37  and  C_40
REMARK   20  A    between atoms: C_39  and  C_41
REMARK   21  A    between atoms: C_41  and  C_44
REMARK   22  A    between atoms: C_44  and  C_48
REMARK   23  A    between atoms: C_55  and  C_56
REMARK   24  A    between atoms: C_55  and  C_57
REMARK   25  A    between atoms: C_55  and  C_58
REMARK                            x       y       z     vdW  Elec       q    Type
REMARK                         _______ _______ _______ _____ _____    ______ ____
ROOT
ATOM      1  O   UNL     1      56.072   7.113   7.204  0.00  0.00    +0.000 OA
ATOM      2  O   UNL     1      49.678   6.647   9.216  0.00  0.00    +0.000 OA
ATOM      3  C   UNL     1      53.743   5.053   8.683  0.00  0.00    +0.000 C 
ATOM      4  C   UNL     1      54.738   5.475   7.562  0.00  0.00    +0.000 C 
ATOM      5  C   UNL     1      52.079   5.873   8.285  0.00  0.00    +0.000 C 
ATOM      6  C   UNL     1      54.819   7.012   7.933  0.00  0.00    +0.000 C 
ATOM      7  C   UNL     1      53.881   3.241   9.099  0.00  0.00    +0.000 C 
ATOM      8  C   UNL     1      53.111   1.913  10.208  0.00  0.00    +0.000 C 
ATOM      9  C   UNL     1      52.404   7.424   8.326  0.00  0.00    +0.000 C 
ATOM     10  C   UNL     1      53.649   7.869   7.498  0.00  0.00    +0.000 C 
ATOM     11  C   UNL     1      51.609   1.993  11.152  0.00  0.00    +0.000 C 
ATOM     12  C   UNL     1      56.301   5.705   7.611  0.00  0.00    +0.000 C 
ATOM     13  C   UNL     1      50.435   5.653   9.175  0.00  0.00    +0.000 C 
ATOM     14  C   UNL     1      52.764   0.696   9.232  0.00  0.00    +0.000 C 
ATOM     15  C   UNL     1      50.364   2.426  10.244  0.00  0.00    +0.000 C 
ATOM     16  C   UNL     1      51.634   5.636   6.781  0.00  0.00    +0.000 C 
ATOM     17  C   UNL     1      49.743   4.087  10.041  0.00  0.00    +0.000 C 
ATOM     18  C   UNL     1      51.272   0.586   8.675  0.00  0.00    +0.000 C 
ATOM     19  C   UNL     1      50.141   1.525   9.229  0.00  0.00    +0.000 C 
ATOM     20  C   UNL     1      51.305   0.502  11.680  0.00  0.00    +0.000 C 
ATOM     21  C   UNL     1      51.634   2.638  12.574  0.00  0.00    +0.000 C 
ATOM     22  C   UNL     1      48.891   1.551   8.384  0.00  0.00    +0.000 C 
ENDROOT
BRANCH  17  23
ATOM     23  O   UNL     1      49.090   4.385  11.276  0.00  0.00    +0.000 OA
ATOM     24  H   UNL     1      49.689   4.041  11.966  0.00  0.00    +0.000 HD
ENDBRANCH  17  23
BRANCH   9  25
ATOM     25  O   UNL     1      52.653   7.802   9.681  0.00  0.00    +0.000 OA
ATOM     26  H   UNL     1      52.674   8.776   9.706  0.00  0.00    +0.000 HD
ENDBRANCH   9  25
BRANCH   8  27
ATOM     27  O   UNL     1      54.193   1.471  11.051  0.00  0.00    +0.000 OA
ATOM     28  H   UNL     1      54.336   0.518  10.914  0.00  0.00    +0.000 HD
ENDBRANCH   8  27
BRANCH  18  29
ATOM     29  O   UNL     1      51.323   0.796   7.234  0.00  0.00    +0.000 OA
BRANCH  29  31
ATOM     30  O   UNL     1      50.157  -0.229   5.594  0.00  0.00    +0.000 OA
ATOM     31  C   UNL     1      51.052  -0.264   6.432  0.00  0.00    +0.000 C 
BRANCH  31  32
ATOM     32  C   UNL     1      51.827  -1.545   6.760  0.00  0.00    +0.000 C 
BRANCH  32  33
ATOM     33  O   UNL     1      53.228  -1.510   6.465  0.00  0.00    +0.000 OA
ATOM     34  H   UNL     1      53.364  -0.729   5.895  0.00  0.00    +0.000 HD
ENDBRANCH  32  33
BRANCH  32  35
ATOM     35  C   UNL     1      51.127  -2.737   6.053  0.00  0.00    +0.000 C 
BRANCH  35  36
ATOM     36  C   UNL     1      51.195  -4.024   6.867  0.00  0.00    +0.000 A 
ATOM     37  C   UNL     1      52.259  -4.224   7.761  0.00  0.00    +0.000 A 
ATOM     38  C   UNL     1      50.200  -5.012   6.779  0.00  0.00    +0.000 A 
ATOM     39  C   UNL     1      52.340  -5.389   8.527  0.00  0.00    +0.000 A 
ATOM     40  C   UNL     1      50.284  -6.177   7.545  0.00  0.00    +0.000 A 
ATOM     41  C   UNL     1      51.355  -6.366   8.416  0.00  0.00    +0.000 A 
ENDBRANCH  35  36
BRANCH  35  43
ATOM     42  O   UNL     1      49.759  -2.846   3.528  0.00  0.00    +0.000 OA
ATOM     43  N   UNL     1      51.695  -2.984   4.735  0.00  0.00    +0.000 N 
ATOM     44  C   UNL     1      50.944  -3.120   3.613  0.00  0.00    +0.000 C 
ATOM     45  H   UNL     1      52.633  -3.361   4.694  0.00  0.00    +0.000 HD
BRANCH  44  46
ATOM     46  O   UNL     1      51.733  -3.579   2.619  0.00  0.00    +0.000 OA
BRANCH  46  47
ATOM     47  C   UNL     1      52.414  -2.658   1.727  0.00  0.00    +0.000 C 
ATOM     48  C   UNL     1      51.616  -1.362   1.547  0.00  0.00    +0.000 C 
ATOM     49  C   UNL     1      53.733  -2.328   2.442  0.00  0.00    +0.000 C 
ATOM     50  C   UNL     1      52.736  -3.323   0.384  0.00  0.00    +0.000 C 
ENDBRANCH  46  47
ENDBRANCH  44  46
ENDBRANCH  35  43
ENDBRANCH  32  35
ENDBRANCH  31  32
ENDBRANCH  29  31
ENDBRANCH  18  29
BRANCH   7  51
ATOM     51  O   UNL     1      52.902   3.059   8.238  0.00  0.00    +0.000 OA
BRANCH  51  53
ATOM     52  O   UNL     1      54.791   2.418   8.016  0.00  0.00    +0.000 OA
ATOM     53  C   UNL     1      53.763   2.464   7.348  0.00  0.00    +0.000 C 
BRANCH  53  54
ATOM     54  C   UNL     1      53.363   2.174   5.498  0.00  0.00    +0.000 A 
ATOM     55  C   UNL     1      52.304   2.847   4.744  0.00  0.00    +0.000 A 
ATOM     56  C   UNL     1      54.100   1.384   4.562  0.00  0.00    +0.000 A 
ATOM     57  C   UNL     1      52.041   2.744   3.354  0.00  0.00    +0.000 A 
ATOM     58  C   UNL     1      53.851   1.269   3.164  0.00  0.00    +0.000 A 
ATOM     59  C   UNL     1      52.822   1.948   2.557  0.00  0.00    +0.000 A 
ENDBRANCH  53  54
ENDBRANCH  51  53
ENDBRANCH   7  51
BRANCH   4  60
ATOM     60  O   UNL     1      54.221   5.209   6.236  0.00  0.00    +0.000 OA
BRANCH  60  62
ATOM     61  O   UNL     1      54.589   6.447   4.410  0.00  0.00    +0.000 OA
ATOM     62  C   UNL     1      54.894   5.471   5.092  0.00  0.00    +0.000 C 
ATOM     63  C   UNL     1      55.923   4.496   4.615  0.00  0.00    +0.000 C 
ENDBRANCH  60  62
ENDBRANCH   4  60
TORSDOF 17
ENDMDL
MODEL 8
REMARK VINA RESULT:      -5.8      5.483     10.670
REMARK  Name = 
REMARK  25 active torsions:
REMARK  status: ('A' for Active; 'I' for Inactive)
REMARK    1  A    between atoms: O_2  and  C_17
REMARK    2  A    between atoms: O_2  and  C_36
REMARK    3  A    between atoms: O_3  and  C_20
REMARK    4  A    between atoms: O_3  and  C_37
REMARK    5  A    between atoms: O_4  and  C_21
REMARK    6  A    between atoms: O_5  and  C_22
REMARK    7  A    between atoms: O_7  and  C_30
REMARK    8  A    between atoms: O_8  and  C_31
REMARK    9  A    between atoms: O_8  and  C_39
REMARK   10  A    between atoms: O_12  and  C_41
REMARK   11  A    between atoms: O_13  and  C_51
REMARK   12  A    between atoms: O_13  and  C_55
REMARK   13  A    between atoms: N_15  and  C_44
REMARK   14  A    between atoms: C_18  and  C_29
REMARK   15  A    between atoms: C_24  and  C_33
REMARK   16  A    between atoms: C_24  and  C_34
REMARK   17  A    between atoms: C_32  and  C_35
REMARK   18  A    between atoms: C_36  and  C_38
REMARK   19  A    between atoms: C_37  and  C_40
REMARK   20  A    between atoms: C_39  and  C_41
REMARK   21  A    between atoms: C_41  and  C_44
REMARK   22  A    between atoms: C_44  and  C_48
REMARK   23  A    between atoms: C_55  and  C_56
REMARK   24  A    between atoms: C_55  and  C_57
REMARK   25  A    between atoms: C_55  and  C_58
REMARK                            x       y       z     vdW  Elec       q    Type
REMARK                         _______ _______ _______ _____ _____    ______ ____
ROOT
ATOM      1  O   UNL     1      50.854   1.038   1.373  0.00  0.00    +0.000 OA
ATOM      2  O   UNL     1      54.485  -4.612   1.599  0.00  0.00    +0.000 OA
ATOM      3  C   UNL     1      51.599  -1.740   3.266  0.00  0.00    +0.000 C 
ATOM      4  C   UNL     1      51.566  -0.214   2.960  0.00  0.00    +0.000 C 
ATOM      5  C   UNL     1      53.180  -2.430   2.475  0.00  0.00    +0.000 C 
ATOM      6  C   UNL     1      51.353  -0.327   1.395  0.00  0.00    +0.000 C 
ATOM      7  C   UNL     1      51.128  -2.113   5.030  0.00  0.00    +0.000 C 
ATOM      8  C   UNL     1      50.945  -3.559   6.241  0.00  0.00    +0.000 C 
ATOM      9  C   UNL     1      52.989  -2.133   0.930  0.00  0.00    +0.000 C 
ATOM     10  C   UNL     1      52.578  -0.671   0.575  0.00  0.00    +0.000 C 
ATOM     11  C   UNL     1      51.510  -5.232   6.061  0.00  0.00    +0.000 C 
ATOM     12  C   UNL     1      50.341   0.761   2.736  0.00  0.00    +0.000 C 
ATOM     13  C   UNL     1      53.871  -4.176   2.598  0.00  0.00    +0.000 C 
ATOM     14  C   UNL     1      51.764  -3.125   7.543  0.00  0.00    +0.000 C 
ATOM     15  C   UNL     1      53.070  -5.293   5.708  0.00  0.00    +0.000 C 
ATOM     16  C   UNL     1      54.464  -1.577   2.852  0.00  0.00    +0.000 C 
ATOM     17  C   UNL     1      53.770  -5.404   4.069  0.00  0.00    +0.000 C 
ATOM     18  C   UNL     1      53.262  -3.656   7.695  0.00  0.00    +0.000 C 
ATOM     19  C   UNL     1      53.835  -4.728   6.700  0.00  0.00    +0.000 C 
ATOM     20  C   UNL     1      51.327  -5.948   7.492  0.00  0.00    +0.000 C 
ATOM     21  C   UNL     1      50.625  -6.258   5.283  0.00  0.00    +0.000 C 
ATOM     22  C   UNL     1      55.336  -4.872   6.746  0.00  0.00    +0.000 C 
ENDROOT
BRANCH  17  23
ATOM     23  O   UNL     1      53.507  -6.744   3.650  0.00  0.00    +0.000 OA
ATOM     24  H   UNL     1      54.266  -7.263   3.975  0.00  0.00    +0.000 HD
ENDBRANCH  17  23
BRANCH   9  25
ATOM     25  O   UNL     1      51.959  -2.985   0.426  0.00  0.00    +0.000 OA
ATOM     26  H   UNL     1      51.229  -2.961   1.070  0.00  0.00    +0.000 HD
ENDBRANCH   9  25
BRANCH   8  27
ATOM     27  O   UNL     1      49.552  -3.551   6.607  0.00  0.00    +0.000 OA
ATOM     28  H   UNL     1      49.320  -4.412   6.997  0.00  0.00    +0.000 HD
ENDBRANCH   8  27
BRANCH  18  29
ATOM     29  O   UNL     1      54.148  -2.501   7.625  0.00  0.00    +0.000 OA
BRANCH  29  31
ATOM     30  O   UNL     1      54.827  -2.501   9.778  0.00  0.00    +0.000 OA
ATOM     31  C   UNL     1      54.466  -1.877   8.786  0.00  0.00    +0.000 C 
BRANCH  31  32
ATOM     32  C   UNL     1      54.185  -0.371   8.815  0.00  0.00    +0.000 C 
BRANCH  32  33
ATOM     33  O   UNL     1      55.250   0.463   8.344  0.00  0.00    +0.000 OA
ATOM     34  H   UNL     1      54.843   1.090   7.717  0.00  0.00    +0.000 HD
ENDBRANCH  32  33
BRANCH  32  35
ATOM     35  C   UNL     1      53.751   0.019  10.253  0.00  0.00    +0.000 C 
BRANCH  35  36
ATOM     36  C   UNL     1      52.650   1.075  10.268  0.00  0.00    +0.000 A 
ATOM     37  C   UNL     1      51.764   1.137  11.355  0.00  0.00    +0.000 A 
ATOM     38  C   UNL     1      52.515   2.021   9.238  0.00  0.00    +0.000 A 
ATOM     39  C   UNL     1      50.754   2.101  11.400  0.00  0.00    +0.000 A 
ATOM     40  C   UNL     1      51.504   2.983   9.285  0.00  0.00    +0.000 A 
ATOM     41  C   UNL     1      50.622   3.021  10.363  0.00  0.00    +0.000 A 
ENDBRANCH  35  36
BRANCH  35  43
ATOM     42  O   UNL     1      54.692  -0.951  12.789  0.00  0.00    +0.000 OA
ATOM     43  N   UNL     1      54.878   0.506  11.037  0.00  0.00    +0.000 N 
ATOM     44  C   UNL     1      55.176   0.045  12.278  0.00  0.00    +0.000 C 
ATOM     45  H   UNL     1      55.265   1.407  10.790  0.00  0.00    +0.000 HD
BRANCH  44  46
ATOM     46  O   UNL     1      56.107   0.854  12.827  0.00  0.00    +0.000 OA
BRANCH  46  47
ATOM     47  C   UNL     1      55.716   2.038  13.569  0.00  0.00    +0.000 C 
ATOM     48  C   UNL     1      54.268   1.937  14.060  0.00  0.00    +0.000 C 
ATOM     49  C   UNL     1      56.648   2.056  14.791  0.00  0.00    +0.000 C 
ATOM     50  C   UNL     1      55.956   3.311  12.750  0.00  0.00    +0.000 C 
ENDBRANCH  46  47
ENDBRANCH  44  46
ENDBRANCH  35  43
ENDBRANCH  32  35
ENDBRANCH  31  32
ENDBRANCH  29  31
ENDBRANCH  18  29
BRANCH   7  51
ATOM     51  O   UNL     1      52.419  -2.090   5.287  0.00  0.00    +0.000 OA
BRANCH  51  53
ATOM     52  O   UNL     1      53.471  -0.443   5.747  0.00  0.00    +0.000 OA
ATOM     53  C   UNL     1      52.312  -0.835   5.833  0.00  0.00    +0.000 C 
BRANCH  53  54
ATOM     54  C   UNL     1      50.753  -0.188   6.739  0.00  0.00    +0.000 A 
ATOM     55  C   UNL     1      50.304  -0.617   8.064  0.00  0.00    +0.000 A 
ATOM     56  C   UNL     1      49.891   0.877   6.334  0.00  0.00    +0.000 A 
ATOM     57  C   UNL     1      49.222  -0.092   8.817  0.00  0.00    +0.000 A 
ATOM     58  C   UNL     1      48.800   1.418   7.075  0.00  0.00    +0.000 A 
ATOM     59  C   UNL     1      48.464   0.935   8.317  0.00  0.00    +0.000 A 
ENDBRANCH  53  54
ENDBRANCH  51  53
ENDBRANCH   7  51
BRANCH   4  60
ATOM     60  O   UNL     1      52.790   0.454   3.347  0.00  0.00    +0.000 OA
BRANCH  60  62
ATOM     61  O   UNL     1      53.564   2.306   2.360  0.00  0.00    +0.000 OA
ATOM     62  C   UNL     1      52.970   1.794   3.307  0.00  0.00    +0.000 C 
ATOM     63  C   UNL     1      52.543   2.620   4.479  0.00  0.00    +0.000 C 
ENDBRANCH  60  62
ENDBRANCH   4  60
TORSDOF 17
ENDMDL
MODEL 9
REMARK VINA RESULT:      -5.7      3.551      8.502
REMARK  Name = 
REMARK  25 active torsions:
REMARK  status: ('A' for Active; 'I' for Inactive)
REMARK    1  A    between atoms: O_2  and  C_17
REMARK    2  A    between atoms: O_2  and  C_36
REMARK    3  A    between atoms: O_3  and  C_20
REMARK    4  A    between atoms: O_3  and  C_37
REMARK    5  A    between atoms: O_4  and  C_21
REMARK    6  A    between atoms: O_5  and  C_22
REMARK    7  A    between atoms: O_7  and  C_30
REMARK    8  A    between atoms: O_8  and  C_31
REMARK    9  A    between atoms: O_8  and  C_39
REMARK   10  A    between atoms: O_12  and  C_41
REMARK   11  A    between atoms: O_13  and  C_51
REMARK   12  A    between atoms: O_13  and  C_55
REMARK   13  A    between atoms: N_15  and  C_44
REMARK   14  A    between atoms: C_18  and  C_29
REMARK   15  A    between atoms: C_24  and  C_33
REMARK   16  A    between atoms: C_24  and  C_34
REMARK   17  A    between atoms: C_32  and  C_35
REMARK   18  A    between atoms: C_36  and  C_38
REMARK   19  A    between atoms: C_37  and  C_40
REMARK   20  A    between atoms: C_39  and  C_41
REMARK   21  A    between atoms: C_41  and  C_44
REMARK   22  A    between atoms: C_44  and  C_48
REMARK   23  A    between atoms: C_55  and  C_56
REMARK   24  A    between atoms: C_55  and  C_57
REMARK   25  A    between atoms: C_55  and  C_58
REMARK                            x       y       z     vdW  Elec       q    Type
REMARK                         _______ _______ _______ _____ _____    ______ ____
ROOT
ATOM      1  O   UNL     1      57.451   5.542   8.247  0.00  0.00    +0.000 OA
ATOM      2  O   UNL     1      51.441   7.044  10.850  0.00  0.00    +0.000 OA
ATOM      3  C   UNL     1      54.629   4.231   9.721  0.00  0.00    +0.000 C 
ATOM      4  C   UNL     1      55.643   4.436   8.556  0.00  0.00    +0.000 C 
ATOM      5  C   UNL     1      53.349   5.626   9.593  0.00  0.00    +0.000 C 
ATOM      6  C   UNL     1      56.289   5.781   9.087  0.00  0.00    +0.000 C 
ATOM      7  C   UNL     1      54.134   2.445   9.915  0.00  0.00    +0.000 C 
ATOM      8  C   UNL     1      53.006   1.324  10.944  0.00  0.00    +0.000 C 
ATOM      9  C   UNL     1      54.209   6.945   9.773  0.00  0.00    +0.000 C 
ATOM     10  C   UNL     1      55.480   7.043   8.875  0.00  0.00    +0.000 C 
ATOM     11  C   UNL     1      51.689   1.785  12.042  0.00  0.00    +0.000 C 
ATOM     12  C   UNL     1      57.185   4.101   8.468  0.00  0.00    +0.000 C 
ATOM     13  C   UNL     1      51.790   5.866  10.620  0.00  0.00    +0.000 C 
ATOM     14  C   UNL     1      52.191   0.454   9.879  0.00  0.00    +0.000 C 
ATOM     15  C   UNL     1      50.631   2.747  11.322  0.00  0.00    +0.000 C 
ATOM     16  C   UNL     1      52.762   5.773   8.126  0.00  0.00    +0.000 C 
ATOM     17  C   UNL     1      50.634   4.532  11.373  0.00  0.00    +0.000 C 
ATOM     18  C   UNL     1      50.728   0.948   9.472  0.00  0.00    +0.000 C 
ATOM     19  C   UNL     1      50.042   2.133  10.242  0.00  0.00    +0.000 C 
ATOM     20  C   UNL     1      50.903   0.434  12.429  0.00  0.00    +0.000 C 
ATOM     21  C   UNL     1      52.025   2.174  13.517  0.00  0.00    +0.000 C 
ATOM     22  C   UNL     1      48.838   2.710   9.541  0.00  0.00    +0.000 C 
ENDROOT
BRANCH  17  23
ATOM     23  O   UNL     1      50.204   4.859  12.695  0.00  0.00    +0.000 OA
ATOM     24  H   UNL     1      50.953   4.617  13.271  0.00  0.00    +0.000 HD
ENDBRANCH  17  23
BRANCH   9  25
ATOM     25  O   UNL     1      54.654   7.018  11.128  0.00  0.00    +0.000 OA
ATOM     26  H   UNL     1      55.625   7.091  11.106  0.00  0.00    +0.000 HD
ENDBRANCH   9  25
BRANCH   8  27
ATOM     27  O   UNL     1      53.905   0.420  11.614  0.00  0.00    +0.000 OA
ATOM     28  H   UNL     1      53.675   0.383  12.559  0.00  0.00    +0.000 HD
ENDBRANCH   8  27
BRANCH  18  29
ATOM     29  O   UNL     1      50.768   1.329   8.066  0.00  0.00    +0.000 OA
BRANCH  29  31
ATOM     30  O   UNL     1      48.861   1.438   6.861  0.00  0.00    +0.000 OA
ATOM     31  C   UNL     1      49.833   0.795   7.241  0.00  0.00    +0.000 C 
BRANCH  31  32
ATOM     32  C   UNL     1      49.993  -0.703   6.957  0.00  0.00    +0.000 C 
BRANCH  32  33
ATOM     33  O   UNL     1      49.874  -1.562   8.096  0.00  0.00    +0.000 OA
ATOM     34  H   UNL     1      48.938  -1.837   8.129  0.00  0.00    +0.000 HD
ENDBRANCH  32  33
BRANCH  32  35
ATOM     35  C   UNL     1      51.341  -0.921   6.219  0.00  0.00    +0.000 C 
BRANCH  35  36
ATOM     36  C   UNL     1      51.206  -0.814   4.704  0.00  0.00    +0.000 A 
ATOM     37  C   UNL     1      52.090  -1.524   3.876  0.00  0.00    +0.000 A 
ATOM     38  C   UNL     1      50.192  -0.050   4.101  0.00  0.00    +0.000 A 
ATOM     39  C   UNL     1      51.981  -1.453   2.486  0.00  0.00    +0.000 A 
ATOM     40  C   UNL     1      50.086   0.020   2.710  0.00  0.00    +0.000 A 
ATOM     41  C   UNL     1      50.982  -0.678   1.904  0.00  0.00    +0.000 A 
ENDBRANCH  35  36
BRANCH  35  43
ATOM     42  O   UNL     1      53.877  -1.452   7.462  0.00  0.00    +0.000 OA
ATOM     43  N   UNL     1      51.926  -2.214   6.547  0.00  0.00    +0.000 N 
ATOM     44  C   UNL     1      53.182  -2.360   7.039  0.00  0.00    +0.000 C 
ATOM     45  H   UNL     1      51.514  -3.035   6.123  0.00  0.00    +0.000 HD
BRANCH  44  46
ATOM     46  O   UNL     1      53.509  -3.670   7.005  0.00  0.00    +0.000 OA
BRANCH  46  47
ATOM     47  C   UNL     1      54.716  -4.115   6.333  0.00  0.00    +0.000 C 
ATOM     48  C   UNL     1      55.912  -4.140   7.291  0.00  0.00    +0.000 C 
ATOM     49  C   UNL     1      54.408  -5.554   5.893  0.00  0.00    +0.000 C 
ATOM     50  C   UNL     1      55.000  -3.271   5.086  0.00  0.00    +0.000 C 
ENDBRANCH  46  47
ENDBRANCH  44  46
ENDBRANCH  35  43
ENDBRANCH  32  35
ENDBRANCH  31  32
ENDBRANCH  29  31
ENDBRANCH  18  29
BRANCH   7  51
ATOM     51  O   UNL     1      53.106   2.738   9.146  0.00  0.00    +0.000 OA
BRANCH  51  53
ATOM     52  O   UNL     1      54.597   1.482   8.665  0.00  0.00    +0.000 OA
ATOM     53  C   UNL     1      53.658   2.037   8.102  0.00  0.00    +0.000 C 
BRANCH  53  54
ATOM     54  C   UNL     1      53.153   2.267   6.269  0.00  0.00    +0.000 A 
ATOM     55  C   UNL     1      52.164   3.226   5.776  0.00  0.00    +0.000 A 
ATOM     56  C   UNL     1      53.743   1.653   5.121  0.00  0.00    +0.000 A 
ATOM     57  C   UNL     1      51.837   3.506   4.425  0.00  0.00    +0.000 A 
ATOM     58  C   UNL     1      53.428   1.921   3.757  0.00  0.00    +0.000 A 
ATOM     59  C   UNL     1      52.476   2.847   3.406  0.00  0.00    +0.000 A 
ENDBRANCH  53  54
ENDBRANCH  51  53
ENDBRANCH   7  51
BRANCH   4  60
ATOM     60  O   UNL     1      54.989   4.556   7.271  0.00  0.00    +0.000 OA
BRANCH  60  62
ATOM     61  O   UNL     1      56.348   3.680   5.725  0.00  0.00    +0.000 OA
ATOM     62  C   UNL     1      55.644   4.620   6.088  0.00  0.00    +0.000 C 
ATOM     63  C   UNL     1      55.591   5.888   5.297  0.00  0.00    +0.000 C 
ENDBRANCH  60  62
ENDBRANCH   4  60
TORSDOF 17
ENDMDL
