MODEL 1
REMARK VINA RESULT:      -7.2      0.000      0.000
REMARK  Name = Dronabinol.pdbqt.pdb
REMARK  3 active torsions:
REMARK  status: ('A' for Active; 'I' for Inactive)
REMARK    1  A    between atoms: C_13  and  O_18
REMARK    2  A    between atoms: C_16  and  C_20
REMARK    3  A    between atoms: C_21  and  C_22
REMARK                            x       y       z     vdW  Elec       q    Type
REMARK                         _______ _______ _______ _____ _____    ______ ____
ROOT
ATOM      1  O   UNL     1      33.692  16.999  20.699  0.00  0.00    +0.000 OA
ATOM      2  C   UNL     1      34.790  18.986  19.741  0.00  0.00    +0.000 A 
ATOM      3  C   UNL     1      36.080  18.264  19.861  0.00  0.00    +0.000 A 
ATOM      4  C   UNL     1      33.527  18.180  19.879  0.00  0.00    +0.000 C 
ATOM      5  C   UNL     1      34.954  20.339  19.278  0.00  0.00    +0.000 A 
ATOM      6  C   UNL     1      36.097  16.851  20.231  0.00  0.00    +0.000 A 
ATOM      7  C   UNL     1      36.311  21.002  18.976  0.00  0.00    +0.000 A 
ATOM      8  C   UNL     1      37.220  19.093  19.535  0.00  0.00    +0.000 A 
ATOM      9  C   UNL     1      37.551  20.298  19.136  0.00  0.00    +0.000 A 
ATOM     10  C   UNL     1      34.872  16.298  20.632  0.00  0.00    +0.000 A 
ATOM     11  C   UNL     1      32.443  19.041  20.583  0.00  0.00    +0.000 C 
ATOM     12  C   UNL     1      33.035  17.739  18.469  0.00  0.00    +0.000 C 
ATOM     13  C   UNL     1      37.231  16.029  20.233  0.00  0.00    +0.000 A 
ATOM     14  C   UNL     1      34.796  14.971  21.056  0.00  0.00    +0.000 A 
ATOM     15  C   UNL     1      38.743  20.992  19.717  0.00  0.00    +0.000 C 
ATOM     16  C   UNL     1      35.932  14.169  21.052  0.00  0.00    +0.000 A 
ATOM     17  C   UNL     1      37.151  14.694  20.638  0.00  0.00    +0.000 A 
ENDROOT
BRANCH  13  18
ATOM     18  O   UNL     1      38.442  16.515  19.829  0.00  0.00    +0.000 OA
ATOM     19  H   UNL     1      38.327  17.018  19.002  0.00  0.00    +0.000 HD
ENDBRANCH  13  18
BRANCH  16  20
ATOM     20  C   UNL     1      35.845  12.808  21.460  0.00  0.00    +0.000 C 
ATOM     21  C   UNL     1      35.761  11.344  21.907  0.00  0.00    +0.000 C 
BRANCH  21  22
ATOM     22  C   UNL     1      35.685   9.884  22.363  0.00  0.00    +0.000 C 
ATOM     23  C   UNL     1      35.608   8.422  22.813  0.00  0.00    +0.000 C 
ATOM     24  C   UNL     1      35.533   6.959  23.263  0.00  0.00    +0.000 C 
ENDBRANCH  21  22
ENDBRANCH  16  20
TORSDOF 3
ENDMDL
MODEL 2
REMARK VINA RESULT:      -5.8     25.450     28.377
REMARK  Name = Dronabinol.pdbqt.pdb
REMARK  3 active torsions:
REMARK  status: ('A' for Active; 'I' for Inactive)
REMARK    1  A    between atoms: C_13  and  O_18
REMARK    2  A    between atoms: C_16  and  C_20
REMARK    3  A    between atoms: C_21  and  C_22
REMARK                            x       y       z     vdW  Elec       q    Type
REMARK                         _______ _______ _______ _____ _____    ______ ____
ROOT
ATOM      1  O   UNL     1      51.353  -1.727   7.537  0.00  0.00    +0.000 OA
ATOM      2  C   UNL     1      51.055  -0.210   5.617  0.00  0.00    +0.000 A 
ATOM      3  C   UNL     1      50.706  -1.400   4.802  0.00  0.00    +0.000 A 
ATOM      4  C   UNL     1      51.067  -0.373   7.113  0.00  0.00    +0.000 C 
ATOM      5  C   UNL     1      51.111   0.998   4.837  0.00  0.00    +0.000 A 
ATOM      6  C   UNL     1      50.516  -2.698   5.444  0.00  0.00    +0.000 A 
ATOM      7  C   UNL     1      50.882   1.068   3.316  0.00  0.00    +0.000 A 
ATOM      8  C   UNL     1      50.549  -1.091   3.397  0.00  0.00    +0.000 A 
ATOM      9  C   UNL     1      50.584  -0.101   2.538  0.00  0.00    +0.000 A 
ATOM     10  C   UNL     1      50.857  -2.776   6.803  0.00  0.00    +0.000 A 
ATOM     11  C   UNL     1      52.192   0.511   7.716  0.00  0.00    +0.000 C 
ATOM     12  C   UNL     1      49.683   0.045   7.692  0.00  0.00    +0.000 C 
ATOM     13  C   UNL     1      50.044  -3.854   4.809  0.00  0.00    +0.000 A 
ATOM     14  C   UNL     1      50.762  -3.986   7.491  0.00  0.00    +0.000 A 
ATOM     15  C   UNL     1      51.200  -0.285   1.187  0.00  0.00    +0.000 C 
ATOM     16  C   UNL     1      50.292  -5.124   6.844  0.00  0.00    +0.000 A 
ATOM     17  C   UNL     1      49.929  -5.060   5.503  0.00  0.00    +0.000 A 
ENDROOT
BRANCH  13  18
ATOM     18  O   UNL     1      49.677  -3.822   3.493  0.00  0.00    +0.000 OA
ATOM     19  H   UNL     1      49.351  -4.702   3.229  0.00  0.00    +0.000 HD
ENDBRANCH  13  18
BRANCH  16  20
ATOM     20  C   UNL     1      50.171  -6.350   7.557  0.00  0.00    +0.000 C 
ATOM     21  C   UNL     1      50.033  -7.664   8.335  0.00  0.00    +0.000 C 
BRANCH  21  22
ATOM     22  C   UNL     1      49.886  -8.972   9.117  0.00  0.00    +0.000 C 
ATOM     23  C   UNL     1      49.738 -10.279   9.903  0.00  0.00    +0.000 C 
ATOM     24  C   UNL     1      49.588 -11.584  10.691  0.00  0.00    +0.000 C 
ENDBRANCH  21  22
ENDBRANCH  16  20
TORSDOF 3
ENDMDL
MODEL 3
REMARK VINA RESULT:      -5.3     23.279     25.030
REMARK  Name = Dronabinol.pdbqt.pdb
REMARK  3 active torsions:
REMARK  status: ('A' for Active; 'I' for Inactive)
REMARK    1  A    between atoms: C_13  and  O_18
REMARK    2  A    between atoms: C_16  and  C_20
REMARK    3  A    between atoms: C_21  and  C_22
REMARK                            x       y       z     vdW  Elec       q    Type
REMARK                         _______ _______ _______ _____ _____    ______ ____
ROOT
ATOM      1  O   UNL     1      54.062   8.691   5.531  0.00  0.00    +0.000 OA
ATOM      2  C   UNL     1      54.098   7.434   3.411  0.00  0.00    +0.000 A 
ATOM      3  C   UNL     1      53.744   6.221   4.188  0.00  0.00    +0.000 A 
ATOM      4  C   UNL     1      53.934   8.767   4.092  0.00  0.00    +0.000 C 
ATOM      5  C   UNL     1      54.337   7.151   2.020  0.00  0.00    +0.000 A 
ATOM      6  C   UNL     1      53.380   6.334   5.598  0.00  0.00    +0.000 A 
ATOM      7  C   UNL     1      54.281   5.746   1.392  0.00  0.00    +0.000 A 
ATOM      8  C   UNL     1      53.765   5.015   3.388  0.00  0.00    +0.000 A 
ATOM      9  C   UNL     1      53.974   4.579   2.169  0.00  0.00    +0.000 A 
ATOM     10  C   UNL     1      53.565   7.593   6.189  0.00  0.00    +0.000 A 
ATOM     11  C   UNL     1      55.056   9.728   3.613  0.00  0.00    +0.000 C 
ATOM     12  C   UNL     1      52.535   9.356   3.749  0.00  0.00    +0.000 C 
ATOM     13  C   UNL     1      52.887   5.291   6.393  0.00  0.00    +0.000 A 
ATOM     14  C   UNL     1      53.297   7.787   7.545  0.00  0.00    +0.000 A 
ATOM     15  C   UNL     1      54.716   3.301   1.934  0.00  0.00    +0.000 C 
ATOM     16  C   UNL     1      52.808   6.740   8.319  0.00  0.00    +0.000 A 
ATOM     17  C   UNL     1      52.600   5.492   7.745  0.00  0.00    +0.000 A 
ENDROOT
BRANCH  13  18
ATOM     18  O   UNL     1      52.668   4.053   5.857  0.00  0.00    +0.000 OA
ATOM     19  H   UNL     1      51.716   3.852   5.892  0.00  0.00    +0.000 HD
ENDBRANCH  13  18
BRANCH  16  20
ATOM     20  C   UNL     1      52.511   6.950   9.695  0.00  0.00    +0.000 C 
ATOM     21  C   UNL     1      52.183   7.166  11.177  0.00  0.00    +0.000 C 
BRANCH  21  22
ATOM     22  C   UNL     1      51.852   7.370  12.658  0.00  0.00    +0.000 C 
ATOM     23  C   UNL     1      51.523   7.580  14.140  0.00  0.00    +0.000 C 
ATOM     24  C   UNL     1      51.193   7.791  15.621  0.00  0.00    +0.000 C 
ENDBRANCH  21  22
ENDBRANCH  16  20
TORSDOF 3
ENDMDL
MODEL 4
REMARK VINA RESULT:      -5.2     31.084     32.570
REMARK  Name = Dronabinol.pdbqt.pdb
REMARK  3 active torsions:
REMARK  status: ('A' for Active; 'I' for Inactive)
REMARK    1  A    between atoms: C_13  and  O_18
REMARK    2  A    between atoms: C_16  and  C_20
REMARK    3  A    between atoms: C_21  and  C_22
REMARK                            x       y       z     vdW  Elec       q    Type
REMARK                         _______ _______ _______ _____ _____    ______ ____
ROOT
ATOM      1  O   UNL     1      38.784   3.615  -8.851  0.00  0.00    +0.000 OA
ATOM      2  C   UNL     1      40.394   1.758  -8.654  0.00  0.00    +0.000 A 
ATOM      3  C   UNL     1      41.481   2.766  -8.726  0.00  0.00    +0.000 A 
ATOM      4  C   UNL     1      38.999   2.259  -8.392  0.00  0.00    +0.000 C 
ATOM      5  C   UNL     1      40.891   0.408  -8.626  0.00  0.00    +0.000 A 
ATOM      6  C   UNL     1      41.164   4.191  -8.672  0.00  0.00    +0.000 A 
ATOM      7  C   UNL     1      42.381   0.023  -8.704  0.00  0.00    +0.000 A 
ATOM      8  C   UNL     1      42.797   2.168  -8.800  0.00  0.00    +0.000 A 
ATOM      9  C   UNL     1      43.415   1.012  -8.811  0.00  0.00    +0.000 A 
ATOM     10  C   UNL     1      39.803   4.528  -8.737  0.00  0.00    +0.000 A 
ATOM     11  C   UNL     1      37.984   1.378  -9.170  0.00  0.00    +0.000 C 
ATOM     12  C   UNL     1      38.706   2.201  -6.864  0.00  0.00    +0.000 C 
ATOM     13  C   UNL     1      42.103   5.226  -8.581  0.00  0.00    +0.000 A 
ATOM     14  C   UNL     1      39.403   5.865  -8.747  0.00  0.00    +0.000 A 
ATOM     15  C   UNL     1      44.586   0.783  -9.714  0.00  0.00    +0.000 C 
ATOM     16  C   UNL     1      40.350   6.880  -8.657  0.00  0.00    +0.000 A 
ATOM     17  C   UNL     1      41.700   6.563  -8.571  0.00  0.00    +0.000 A 
ENDROOT
BRANCH  13  18
ATOM     18  O   UNL     1      43.438   4.947  -8.492  0.00  0.00    +0.000 OA
ATOM     19  H   UNL     1      43.557   3.988  -8.368  0.00  0.00    +0.000 HD
ENDBRANCH  13  18
BRANCH  16  20
ATOM     20  C   UNL     1      39.934   8.241  -8.641  0.00  0.00    +0.000 C 
ATOM     21  C   UNL     1      39.477   9.704  -8.614  0.00  0.00    +0.000 C 
BRANCH  21  22
ATOM     22  C   UNL     1      39.016  11.164  -8.578  0.00  0.00    +0.000 C 
ATOM     23  C   UNL     1      38.554  12.624  -8.537  0.00  0.00    +0.000 C 
ATOM     24  C   UNL     1      38.095  14.086  -8.495  0.00  0.00    +0.000 C 
ENDBRANCH  21  22
ENDBRANCH  16  20
TORSDOF 3
ENDMDL
MODEL 5
REMARK VINA RESULT:      -5.2     32.708     34.034
REMARK  Name = Dronabinol.pdbqt.pdb
REMARK  3 active torsions:
REMARK  status: ('A' for Active; 'I' for Inactive)
REMARK    1  A    between atoms: C_13  and  O_18
REMARK    2  A    between atoms: C_16  and  C_20
REMARK    3  A    between atoms: C_21  and  C_22
REMARK                            x       y       z     vdW  Elec       q    Type
REMARK                         _______ _______ _______ _____ _____    ______ ____
ROOT
ATOM      1  O   UNL     1      39.912   0.628 -10.467  0.00  0.00    +0.000 OA
ATOM      2  C   UNL     1      42.144  -0.413 -10.371  0.00  0.00    +0.000 A 
ATOM      3  C   UNL     1      42.642   0.841  -9.754  0.00  0.00    +0.000 A 
ATOM      4  C   UNL     1      40.654  -0.614 -10.429  0.00  0.00    +0.000 C 
ATOM      5  C   UNL     1      43.196  -1.363 -10.621  0.00  0.00    +0.000 A 
ATOM      6  C   UNL     1      41.702   1.882  -9.347  0.00  0.00    +0.000 A 
ATOM      7  C   UNL     1      44.688  -1.112 -10.331  0.00  0.00    +0.000 A 
ATOM      8  C   UNL     1      44.080   0.852  -9.587  0.00  0.00    +0.000 A 
ATOM      9  C   UNL     1      45.154   0.123  -9.770  0.00  0.00    +0.000 A 
ATOM     10  C   UNL     1      40.366   1.700  -9.738  0.00  0.00    +0.000 A 
ATOM     11  C   UNL     1      40.289  -1.370 -11.735  0.00  0.00    +0.000 C 
ATOM     12  C   UNL     1      40.191  -1.429  -9.185  0.00  0.00    +0.000 C 
ATOM     13  C   UNL     1      42.033   3.036  -8.626  0.00  0.00    +0.000 A 
ATOM     14  C   UNL     1      39.402   2.666  -9.444  0.00  0.00    +0.000 A 
ATOM     15  C   UNL     1      46.421   0.746 -10.266  0.00  0.00    +0.000 C 
ATOM     16  C   UNL     1      39.750   3.806  -8.727  0.00  0.00    +0.000 A 
ATOM     17  C   UNL     1      41.064   3.992  -8.315  0.00  0.00    +0.000 A 
ENDROOT
BRANCH  13  18
ATOM     18  O   UNL     1      43.316   3.246  -8.204  0.00  0.00    +0.000 OA
ATOM     19  H   UNL     1      43.317   3.930  -7.510  0.00  0.00    +0.000 HD
ENDBRANCH  13  18
BRANCH  16  20
ATOM     20  C   UNL     1      38.758   4.775  -8.406  0.00  0.00    +0.000 C 
ATOM     21  C   UNL     1      37.699   5.826  -8.054  0.00  0.00    +0.000 C 
BRANCH  21  22
ATOM     22  C   UNL     1      36.650   6.883  -7.698  0.00  0.00    +0.000 C 
ATOM     23  C   UNL     1      35.596   7.938  -7.346  0.00  0.00    +0.000 C 
ATOM     24  C   UNL     1      34.540   8.991  -6.993  0.00  0.00    +0.000 C 
ENDBRANCH  21  22
ENDBRANCH  16  20
TORSDOF 3
ENDMDL
MODEL 6
REMARK VINA RESULT:      -5.1     18.779     21.593
REMARK  Name = Dronabinol.pdbqt.pdb
REMARK  3 active torsions:
REMARK  status: ('A' for Active; 'I' for Inactive)
REMARK    1  A    between atoms: C_13  and  O_18
REMARK    2  A    between atoms: C_16  and  C_20
REMARK    3  A    between atoms: C_21  and  C_22
REMARK                            x       y       z     vdW  Elec       q    Type
REMARK                         _______ _______ _______ _____ _____    ______ ____
ROOT
ATOM      1  O   UNL     1      24.683  10.049   5.186  0.00  0.00    +0.000 OA
ATOM      2  C   UNL     1      23.681   7.809   4.955  0.00  0.00    +0.000 A 
ATOM      3  C   UNL     1      24.777   7.476   4.013  0.00  0.00    +0.000 A 
ATOM      4  C   UNL     1      23.843   9.044   5.800  0.00  0.00    +0.000 C 
ATOM      5  C   UNL     1      22.712   6.751   5.074  0.00  0.00    +0.000 A 
ATOM      6  C   UNL     1      25.898   8.396   3.837  0.00  0.00    +0.000 A 
ATOM      7  C   UNL     1      22.762   5.427   4.288  0.00  0.00    +0.000 A 
ATOM      8  C   UNL     1      24.605   6.183   3.386  0.00  0.00    +0.000 A 
ATOM      9  C   UNL     1      23.811   5.140   3.352  0.00  0.00    +0.000 A 
ATOM     10  C   UNL     1      25.774   9.651   4.452  0.00  0.00    +0.000 A 
ATOM     11  C   UNL     1      22.456   9.711   6.004  0.00  0.00    +0.000 C 
ATOM     12  C   UNL     1      24.463   8.654   7.175  0.00  0.00    +0.000 C 
ATOM     13  C   UNL     1      27.056   8.130   3.095  0.00  0.00    +0.000 A 
ATOM     14  C   UNL     1      26.767  10.620   4.297  0.00  0.00    +0.000 A 
ATOM     15  C   UNL     1      23.499   4.461   2.056  0.00  0.00    +0.000 C 
ATOM     16  C   UNL     1      27.910  10.337   3.557  0.00  0.00    +0.000 A 
ATOM     17  C   UNL     1      28.058   9.092   2.957  0.00  0.00    +0.000 A 
ENDROOT
BRANCH  13  18
ATOM     18  O   UNL     1      27.232   6.914   2.497  0.00  0.00    +0.000 OA
ATOM     19  H   UNL     1      27.550   6.273   3.159  0.00  0.00    +0.000 HD
ENDBRANCH  13  18
BRANCH  16  20
ATOM     20  C   UNL     1      28.932  11.319   3.424  0.00  0.00    +0.000 C 
ATOM     21  C   UNL     1      30.023  12.386   3.281  0.00  0.00    +0.000 C 
BRANCH  21  22
ATOM     22  C   UNL     1      31.107  13.459   3.143  0.00  0.00    +0.000 C 
ATOM     23  C   UNL     1      32.188  14.536   3.008  0.00  0.00    +0.000 C 
ATOM     24  C   UNL     1      33.270  15.613   2.875  0.00  0.00    +0.000 C 
ENDBRANCH  21  22
ENDBRANCH  16  20
TORSDOF 3
ENDMDL
MODEL 7
REMARK VINA RESULT:      -5.0     34.035     35.040
REMARK  Name = Dronabinol.pdbqt.pdb
REMARK  3 active torsions:
REMARK  status: ('A' for Active; 'I' for Inactive)
REMARK    1  A    between atoms: C_13  and  O_18
REMARK    2  A    between atoms: C_16  and  C_20
REMARK    3  A    between atoms: C_21  and  C_22
REMARK                            x       y       z     vdW  Elec       q    Type
REMARK                         _______ _______ _______ _____ _____    ______ ____
ROOT
ATOM      1  O   UNL     1      40.783  -1.339 -10.856  0.00  0.00    +0.000 OA
ATOM      2  C   UNL     1      38.649  -0.153 -10.518  0.00  0.00    +0.000 A 
ATOM      3  C   UNL     1      39.368   0.766  -9.601  0.00  0.00    +0.000 A 
ATOM      4  C   UNL     1      39.481  -1.035 -11.409  0.00  0.00    +0.000 C 
ATOM      5  C   UNL     1      37.235   0.111 -10.570  0.00  0.00    +0.000 A 
ATOM      6  C   UNL     1      40.823   0.702  -9.491  0.00  0.00    +0.000 A 
ATOM      7  C   UNL     1      36.517   1.193  -9.742  0.00  0.00    +0.000 A 
ATOM      8  C   UNL     1      38.483   1.690  -8.925  0.00  0.00    +0.000 A 
ATOM      9  C   UNL     1      37.224   2.046  -8.831  0.00  0.00    +0.000 A 
ATOM     10  C   UNL     1      41.449  -0.371 -10.145  0.00  0.00    +0.000 A 
ATOM     11  C   UNL     1      38.765  -2.401 -11.590  0.00  0.00    +0.000 C 
ATOM     12  C   UNL     1      39.679  -0.341 -12.789  0.00  0.00    +0.000 C 
ATOM     13  C   UNL     1      41.622   1.606  -8.779  0.00  0.00    +0.000 A 
ATOM     14  C   UNL     1      42.831  -0.548 -10.054  0.00  0.00    +0.000 A 
ATOM     15  C   UNL     1      36.627   2.392  -7.503  0.00  0.00    +0.000 C 
ATOM     16  C   UNL     1      43.608   0.359  -9.342  0.00  0.00    +0.000 A 
ATOM     17  C   UNL     1      43.007   1.438  -8.706  0.00  0.00    +0.000 A 
ENDROOT
BRANCH  13  18
ATOM     18  O   UNL     1      41.061   2.679  -8.146  0.00  0.00    +0.000 OA
ATOM     19  H   UNL     1      41.767   3.276  -7.839  0.00  0.00    +0.000 HD
ENDBRANCH  13  18
BRANCH  16  20
ATOM     20  C   UNL     1      45.019   0.188  -9.274  0.00  0.00    +0.000 C 
ATOM     21  C   UNL     1      46.538  -0.001  -9.189  0.00  0.00    +0.000 C 
BRANCH  21  22
ATOM     22  C   UNL     1      48.054  -0.195  -9.095  0.00  0.00    +0.000 C 
ATOM     23  C   UNL     1      49.572  -0.385  -9.002  0.00  0.00    +0.000 C 
ATOM     24  C   UNL     1      51.089  -0.573  -8.907  0.00  0.00    +0.000 C 
ENDBRANCH  21  22
ENDBRANCH  16  20
TORSDOF 3
ENDMDL
MODEL 8
REMARK VINA RESULT:      -4.9     17.892     19.617
REMARK  Name = Dronabinol.pdbqt.pdb
REMARK  3 active torsions:
REMARK  status: ('A' for Active; 'I' for Inactive)
REMARK    1  A    between atoms: C_13  and  O_18
REMARK    2  A    between atoms: C_16  and  C_20
REMARK    3  A    between atoms: C_21  and  C_22
REMARK                            x       y       z     vdW  Elec       q    Type
REMARK                         _______ _______ _______ _____ _____    ______ ____
ROOT
ATOM      1  O   UNL     1      34.738  17.863  -0.945  0.00  0.00    +0.000 OA
ATOM      2  C   UNL     1      36.467  19.574  -0.545  0.00  0.00    +0.000 A 
ATOM      3  C   UNL     1      36.205  19.420   0.908  0.00  0.00    +0.000 A 
ATOM      4  C   UNL     1      35.920  18.515  -1.465  0.00  0.00    +0.000 C 
ATOM      5  C   UNL     1      37.415  20.619  -0.829  0.00  0.00    +0.000 A 
ATOM      6  C   UNL     1      35.337  18.347   1.386  0.00  0.00    +0.000 A 
ATOM      7  C   UNL     1      38.067  21.521   0.236  0.00  0.00    +0.000 A 
ATOM      8  C   UNL     1      36.922  20.385   1.713  0.00  0.00    +0.000 A 
ATOM      9  C   UNL     1      37.771  21.382   1.633  0.00  0.00    +0.000 A 
ATOM     10  C   UNL     1      34.647  17.620   0.404  0.00  0.00    +0.000 A 
ATOM     11  C   UNL     1      35.492  19.172  -2.805  0.00  0.00    +0.000 C 
ATOM     12  C   UNL     1      37.011  17.433  -1.717  0.00  0.00    +0.000 C 
ATOM     13  C   UNL     1      35.133  18.009   2.730  0.00  0.00    +0.000 A 
ATOM     14  C   UNL     1      33.752  16.611   0.764  0.00  0.00    +0.000 A 
ATOM     15  C   UNL     1      37.605  22.594   2.493  0.00  0.00    +0.000 C 
ATOM     16  C   UNL     1      33.562  16.291   2.103  0.00  0.00    +0.000 A 
ATOM     17  C   UNL     1      34.253  16.986   3.089  0.00  0.00    +0.000 A 
ENDROOT
BRANCH  13  18
ATOM     18  O   UNL     1      35.800  18.672   3.721  0.00  0.00    +0.000 OA
ATOM     19  H   UNL     1      36.577  19.120   3.341  0.00  0.00    +0.000 HD
ENDBRANCH  13  18
BRANCH  16  20
ATOM     20  C   UNL     1      32.668  15.243   2.464  0.00  0.00    +0.000 C 
ATOM     21  C   UNL     1      31.710  14.107   2.842  0.00  0.00    +0.000 C 
BRANCH  21  22
ATOM     22  C   UNL     1      30.758  12.967   3.211  0.00  0.00    +0.000 C 
ATOM     23  C   UNL     1      29.808  11.823   3.583  0.00  0.00    +0.000 C 
ATOM     24  C   UNL     1      28.860  10.679   3.957  0.00  0.00    +0.000 C 
ENDBRANCH  21  22
ENDBRANCH  16  20
TORSDOF 3
ENDMDL
MODEL 9
REMARK VINA RESULT:      -4.8     30.806     31.659
REMARK  Name = Dronabinol.pdbqt.pdb
REMARK  3 active torsions:
REMARK  status: ('A' for Active; 'I' for Inactive)
REMARK    1  A    between atoms: C_13  and  O_18
REMARK    2  A    between atoms: C_16  and  C_20
REMARK    3  A    between atoms: C_21  and  C_22
REMARK                            x       y       z     vdW  Elec       q    Type
REMARK                         _______ _______ _______ _____ _____    ______ ____
ROOT
ATOM      1  O   UNL     1      39.177   1.572  -8.988  0.00  0.00    +0.000 OA
ATOM      2  C   UNL     1      40.973   3.243  -9.230  0.00  0.00    +0.000 A 
ATOM      3  C   UNL     1      40.049   4.241  -8.638  0.00  0.00    +0.000 A 
ATOM      4  C   UNL     1      40.604   1.790  -9.097  0.00  0.00    +0.000 C 
ATOM      5  C   UNL     1      42.219   3.825  -9.654  0.00  0.00    +0.000 A 
ATOM      6  C   UNL     1      38.773   3.812  -8.070  0.00  0.00    +0.000 A 
ATOM      7  C   UNL     1      42.562   5.324  -9.556  0.00  0.00    +0.000 A 
ATOM      8  C   UNL     1      40.583   5.586  -8.663  0.00  0.00    +0.000 A 
ATOM      9  C   UNL     1      41.639   6.280  -9.016  0.00  0.00    +0.000 A 
ATOM     10  C   UNL     1      38.415   2.473  -8.286  0.00  0.00    +0.000 A 
ATOM     11  C   UNL     1      41.058   1.027 -10.371  0.00  0.00    +0.000 C 
ATOM     12  C   UNL     1      41.293   1.193  -7.835  0.00  0.00    +0.000 C 
ATOM     13  C   UNL     1      37.888   4.631  -7.356  0.00  0.00    +0.000 A 
ATOM     14  C   UNL     1      37.190   1.982  -7.830  0.00  0.00    +0.000 A 
ATOM     15  C   UNL     1      41.488   7.625  -9.652  0.00  0.00    +0.000 C 
ATOM     16  C   UNL     1      36.325   2.810  -7.123  0.00  0.00    +0.000 A 
ATOM     17  C   UNL     1      36.672   4.134  -6.882  0.00  0.00    +0.000 A 
ENDROOT
BRANCH  13  18
ATOM     18  O   UNL     1      38.203   5.936  -7.101  0.00  0.00    +0.000 OA
ATOM     19  H   UNL     1      38.789   5.979  -6.324  0.00  0.00    +0.000 HD
ENDBRANCH  13  18
BRANCH  16  20
ATOM     20  C   UNL     1      35.089   2.298  -6.637  0.00  0.00    +0.000 C 
ATOM     21  C   UNL     1      33.765   1.740  -6.102  0.00  0.00    +0.000 C 
BRANCH  21  22
ATOM     22  C   UNL     1      32.447   1.181  -5.559  0.00  0.00    +0.000 C 
ATOM     23  C   UNL     1      31.127   0.626  -5.013  0.00  0.00    +0.000 C 
ATOM     24  C   UNL     1      29.806   0.073  -4.468  0.00  0.00    +0.000 C 
ENDBRANCH  21  22
ENDBRANCH  16  20
TORSDOF 3
ENDMDL
