MODEL 1
REMARK VINA RESULT:      -7.4      0.000      0.000
REMARK  Name = Ellipticine.pdbqt.pdb
REMARK  0 active torsions:
REMARK  status: ('A' for Active; 'I' for Inactive)
REMARK                            x       y       z     vdW  Elec       q    Type
REMARK                         _______ _______ _______ _____ _____    ______ ____
ROOT
ATOM      1  N   UNL     1      34.245  16.253  21.740  0.00  0.00    +0.000 N 
ATOM      2  N   UNL     1      38.595  20.247  19.219  0.00  0.00    +0.000 NA
ATOM      3  C   UNL     1      36.165  16.235  20.587  0.00  0.00    +0.000 A 
ATOM      4  C   UNL     1      35.208  17.065  21.180  0.00  0.00    +0.000 A 
ATOM      5  C   UNL     1      37.271  16.840  19.936  0.00  0.00    +0.000 A 
ATOM      6  C   UNL     1      35.732  14.881  20.815  0.00  0.00    +0.000 A 
ATOM      7  C   UNL     1      35.295  18.466  21.160  0.00  0.00    +0.000 A 
ATOM      8  C   UNL     1      36.394  19.064  20.514  0.00  0.00    +0.000 A 
ATOM      9  C   UNL     1      37.375  18.250  19.906  0.00  0.00    +0.000 A 
ATOM     10  C   UNL     1      34.539  14.930  21.533  0.00  0.00    +0.000 A 
ATOM     11  C   UNL     1      38.325  15.971  19.284  0.00  0.00    +0.000 C 
ATOM     12  C   UNL     1      36.253  13.617  20.474  0.00  0.00    +0.000 A 
ATOM     13  C   UNL     1      34.205  19.266  21.833  0.00  0.00    +0.000 C 
ATOM     14  C   UNL     1      33.837  13.787  21.929  0.00  0.00    +0.000 A 
ATOM     15  C   UNL     1      36.547  20.457  20.454  0.00  0.00    +0.000 A 
ATOM     16  C   UNL     1      38.436  18.907  19.284  0.00  0.00    +0.000 A 
ATOM     17  C   UNL     1      35.567  12.462  20.859  0.00  0.00    +0.000 A 
ATOM     18  C   UNL     1      34.380  12.550  21.574  0.00  0.00    +0.000 A 
ATOM     19  C   UNL     1      37.644  20.995  19.807  0.00  0.00    +0.000 A 
ATOM     20  H   UNL     1      33.431  16.599  22.237  0.00  0.00    +0.000 HD
ENDROOT
TORSDOF 0
ENDMDL
MODEL 2
REMARK VINA RESULT:      -7.2      1.777      6.030
REMARK  Name = Ellipticine.pdbqt.pdb
REMARK  0 active torsions:
REMARK  status: ('A' for Active; 'I' for Inactive)
REMARK                            x       y       z     vdW  Elec       q    Type
REMARK                         _______ _______ _______ _____ _____    ______ ____
ROOT
ATOM      1  N   UNL     1      37.460  15.881  20.114  0.00  0.00    +0.000 N 
ATOM      2  N   UNL     1      31.192  14.922  21.122  0.00  0.00    +0.000 NA
ATOM      3  C   UNL     1      35.497  16.955  20.025  0.00  0.00    +0.000 A 
ATOM      4  C   UNL     1      36.104  15.729  20.316  0.00  0.00    +0.000 A 
ATOM      5  C   UNL     1      34.088  17.057  20.158  0.00  0.00    +0.000 A 
ATOM      6  C   UNL     1      36.551  17.855  19.637  0.00  0.00    +0.000 A 
ATOM      7  C   UNL     1      35.383  14.599  20.732  0.00  0.00    +0.000 A 
ATOM      8  C   UNL     1      33.985  14.703  20.864  0.00  0.00    +0.000 A 
ATOM      9  C   UNL     1      33.345  15.928  20.576  0.00  0.00    +0.000 A 
ATOM     10  C   UNL     1      37.754  17.156  19.704  0.00  0.00    +0.000 A 
ATOM     11  C   UNL     1      33.398  18.368  19.851  0.00  0.00    +0.000 C 
ATOM     12  C   UNL     1      36.587  19.205  19.235  0.00  0.00    +0.000 A 
ATOM     13  C   UNL     1      36.142  13.326  21.020  0.00  0.00    +0.000 C 
ATOM     14  C   UNL     1      38.991  17.730  19.392  0.00  0.00    +0.000 A 
ATOM     15  C   UNL     1      33.200  13.615  21.275  0.00  0.00    +0.000 A 
ATOM     16  C   UNL     1      31.959  15.961  20.727  0.00  0.00    +0.000 A 
ATOM     17  C   UNL     1      37.812  19.798  18.918  0.00  0.00    +0.000 A 
ATOM     18  C   UNL     1      38.992  19.069  18.997  0.00  0.00    +0.000 A 
ATOM     19  C   UNL     1      31.831  13.769  21.388  0.00  0.00    +0.000 A 
ATOM     20  H   UNL     1      38.140  15.141  20.254  0.00  0.00    +0.000 HD
ENDROOT
TORSDOF 0
ENDMDL
MODEL 3
REMARK VINA RESULT:      -7.1     16.547     20.181
REMARK  Name = Ellipticine.pdbqt.pdb
REMARK  0 active torsions:
REMARK  status: ('A' for Active; 'I' for Inactive)
REMARK                            x       y       z     vdW  Elec       q    Type
REMARK                         _______ _______ _______ _____ _____    ______ ____
ROOT
ATOM      1  N   UNL     1      40.437   0.869  13.929  0.00  0.00    +0.000 N 
ATOM      2  N   UNL     1      42.399  -5.233  14.307  0.00  0.00    +0.000 NA
ATOM      3  C   UNL     1      40.611  -0.818  15.392  0.00  0.00    +0.000 A 
ATOM      4  C   UNL     1      40.844  -0.442  14.066  0.00  0.00    +0.000 A 
ATOM      5  C   UNL     1      40.950  -2.137  15.788  0.00  0.00    +0.000 A 
ATOM      6  C   UNL     1      40.044   0.329  16.051  0.00  0.00    +0.000 A 
ATOM      7  C   UNL     1      41.397  -1.310  13.112  0.00  0.00    +0.000 A 
ATOM      8  C   UNL     1      41.732  -2.619  13.507  0.00  0.00    +0.000 A 
ATOM      9  C   UNL     1      41.508  -3.026  14.839  0.00  0.00    +0.000 A 
ATOM     10  C   UNL     1      39.951   1.356  15.115  0.00  0.00    +0.000 A 
ATOM     11  C   UNL     1      40.711  -2.578  17.216  0.00  0.00    +0.000 C 
ATOM     12  C   UNL     1      39.601   0.584  17.365  0.00  0.00    +0.000 A 
ATOM     13  C   UNL     1      41.605  -0.798  11.706  0.00  0.00    +0.000 C 
ATOM     14  C   UNL     1      39.440   2.623  15.417  0.00  0.00    +0.000 A 
ATOM     15  C   UNL     1      42.288  -3.541  12.607  0.00  0.00    +0.000 A 
ATOM     16  C   UNL     1      41.863  -4.336  15.163  0.00  0.00    +0.000 A 
ATOM     17  C   UNL     1      39.087   1.842  17.688  0.00  0.00    +0.000 A 
ATOM     18  C   UNL     1      39.010   2.842  16.727  0.00  0.00    +0.000 A 
ATOM     19  C   UNL     1      42.600  -4.815  13.045  0.00  0.00    +0.000 A 
ATOM     20  H   UNL     1      40.495   1.393  13.063  0.00  0.00    +0.000 HD
ENDROOT
TORSDOF 0
ENDMDL
MODEL 4
REMARK VINA RESULT:      -6.9      1.608      2.922
REMARK  Name = Ellipticine.pdbqt.pdb
REMARK  0 active torsions:
REMARK  status: ('A' for Active; 'I' for Inactive)
REMARK                            x       y       z     vdW  Elec       q    Type
REMARK                         _______ _______ _______ _____ _____    ______ ____
ROOT
ATOM      1  N   UNL     1      36.919  14.608  20.432  0.00  0.00    +0.000 N 
ATOM      2  N   UNL     1      35.094  20.624  19.126  0.00  0.00    +0.000 NA
ATOM      3  C   UNL     1      35.094  15.906  20.395  0.00  0.00    +0.000 A 
ATOM      4  C   UNL     1      36.473  15.886  20.165  0.00  0.00    +0.000 A 
ATOM      5  C   UNL     1      34.394  17.123  20.187  0.00  0.00    +0.000 A 
ATOM      6  C   UNL     1      34.727  14.579  20.814  0.00  0.00    +0.000 A 
ATOM      7  C   UNL     1      37.193  17.013  19.739  0.00  0.00    +0.000 A 
ATOM      8  C   UNL     1      36.496  18.219  19.534  0.00  0.00    +0.000 A 
ATOM      9  C   UNL     1      35.104  18.269  19.758  0.00  0.00    +0.000 A 
ATOM     10  C   UNL     1      35.883  13.801  20.826  0.00  0.00    +0.000 A 
ATOM     11  C   UNL     1      32.901  17.180  20.426  0.00  0.00    +0.000 C 
ATOM     12  C   UNL     1      33.511  13.970  21.185  0.00  0.00    +0.000 A 
ATOM     13  C   UNL     1      38.682  16.878  19.521  0.00  0.00    +0.000 C 
ATOM     14  C   UNL     1      35.892  12.450  21.187  0.00  0.00    +0.000 A 
ATOM     15  C   UNL     1      37.150  19.386  19.108  0.00  0.00    +0.000 A 
ATOM     16  C   UNL     1      34.477  19.495  19.535  0.00  0.00    +0.000 A 
ATOM     17  C   UNL     1      33.498  12.622  21.550  0.00  0.00    +0.000 A 
ATOM     18  C   UNL     1      34.671  11.878  21.550  0.00  0.00    +0.000 A 
ATOM     19  C   UNL     1      36.420  20.545  18.921  0.00  0.00    +0.000 A 
ATOM     20  H   UNL     1      37.886  14.316  20.346  0.00  0.00    +0.000 HD
ENDROOT
TORSDOF 0
ENDMDL
MODEL 5
REMARK VINA RESULT:      -6.8     15.750     19.033
REMARK  Name = Ellipticine.pdbqt.pdb
REMARK  0 active torsions:
REMARK  status: ('A' for Active; 'I' for Inactive)
REMARK                            x       y       z     vdW  Elec       q    Type
REMARK                         _______ _______ _______ _____ _____    ______ ____
ROOT
ATOM      1  N   UNL     1      41.936  -2.322  16.132  0.00  0.00    +0.000 N 
ATOM      2  N   UNL     1      38.958   3.341  16.668  0.00  0.00    +0.000 NA
ATOM      3  C   UNL     1      40.896  -0.776  14.889  0.00  0.00    +0.000 A 
ATOM      4  C   UNL     1      41.287  -1.106  16.190  0.00  0.00    +0.000 A 
ATOM      5  C   UNL     1      40.202   0.444  14.684  0.00  0.00    +0.000 A 
ATOM      6  C   UNL     1      41.339  -1.851  14.040  0.00  0.00    +0.000 A 
ATOM      7  C   UNL     1      41.024  -0.286  17.298  0.00  0.00    +0.000 A 
ATOM      8  C   UNL     1      40.335   0.924  17.092  0.00  0.00    +0.000 A 
ATOM      9  C   UNL     1      39.928   1.283  15.789  0.00  0.00    +0.000 A 
ATOM     10  C   UNL     1      41.980  -2.791  14.844  0.00  0.00    +0.000 A 
ATOM     11  C   UNL     1      39.763   0.833  13.288  0.00  0.00    +0.000 C 
ATOM     12  C   UNL     1      41.252  -2.106  12.657  0.00  0.00    +0.000 A 
ATOM     13  C   UNL     1      41.493  -0.742  18.660  0.00  0.00    +0.000 C 
ATOM     14  C   UNL     1      42.538  -3.973  14.343  0.00  0.00    +0.000 A 
ATOM     15  C   UNL     1      40.038   1.794  18.152  0.00  0.00    +0.000 A 
ATOM     16  C   UNL     1      39.250   2.495  15.656  0.00  0.00    +0.000 A 
ATOM     17  C   UNL     1      41.802  -3.280  12.136  0.00  0.00    +0.000 A 
ATOM     18  C   UNL     1      42.433  -4.195  12.969  0.00  0.00    +0.000 A 
ATOM     19  C   UNL     1      39.359   2.971  17.897  0.00  0.00    +0.000 A 
ATOM     20  H   UNL     1      42.325  -2.797  16.939  0.00  0.00    +0.000 HD
ENDROOT
TORSDOF 0
ENDMDL
MODEL 6
REMARK VINA RESULT:      -6.7     15.950     19.042
REMARK  Name = Ellipticine.pdbqt.pdb
REMARK  0 active torsions:
REMARK  status: ('A' for Active; 'I' for Inactive)
REMARK                            x       y       z     vdW  Elec       q    Type
REMARK                         _______ _______ _______ _____ _____    ______ ____
ROOT
ATOM      1  N   UNL     1      42.409  -0.670  17.789  0.00  0.00    +0.000 N 
ATOM      2  N   UNL     1      41.200  -0.913  11.487  0.00  0.00    +0.000 NA
ATOM      3  C   UNL     1      41.104   0.266  16.228  0.00  0.00    +0.000 A 
ATOM      4  C   UNL     1      42.110  -0.682  16.442  0.00  0.00    +0.000 A 
ATOM      5  C   UNL     1      40.618   0.445  14.907  0.00  0.00    +0.000 A 
ATOM      6  C   UNL     1      40.809   0.851  17.509  0.00  0.00    +0.000 A 
ATOM      7  C   UNL     1      42.658  -1.461  15.411  0.00  0.00    +0.000 A 
ATOM      8  C   UNL     1      42.174  -1.281  14.102  0.00  0.00    +0.000 A 
ATOM      9  C   UNL     1      41.159  -0.332  13.855  0.00  0.00    +0.000 A 
ATOM     10  C   UNL     1      41.637   0.247  18.454  0.00  0.00    +0.000 A 
ATOM     11  C   UNL     1      39.530   1.462  14.638  0.00  0.00    +0.000 C 
ATOM     12  C   UNL     1      39.910   1.842  17.949  0.00  0.00    +0.000 A 
ATOM     13  C   UNL     1      43.741  -2.455  15.757  0.00  0.00    +0.000 C 
ATOM     14  C   UNL     1      41.616   0.578  19.813  0.00  0.00    +0.000 A 
ATOM     15  C   UNL     1      42.675  -2.024  13.022  0.00  0.00    +0.000 A 
ATOM     16  C   UNL     1      40.727  -0.205  12.535  0.00  0.00    +0.000 A 
ATOM     17  C   UNL     1      39.873   2.189  19.302  0.00  0.00    +0.000 A 
ATOM     18  C   UNL     1      40.713   1.564  20.215  0.00  0.00    +0.000 A 
ATOM     19  C   UNL     1      42.166  -1.810  11.754  0.00  0.00    +0.000 A 
ATOM     20  H   UNL     1      43.109  -1.265  18.219  0.00  0.00    +0.000 HD
ENDROOT
TORSDOF 0
ENDMDL
MODEL 7
REMARK VINA RESULT:      -6.7     17.592     21.149
REMARK  Name = Ellipticine.pdbqt.pdb
REMARK  0 active torsions:
REMARK  status: ('A' for Active; 'I' for Inactive)
REMARK                            x       y       z     vdW  Elec       q    Type
REMARK                         _______ _______ _______ _____ _____    ______ ____
ROOT
ATOM      1  N   UNL     1      42.010  -0.679  16.341  0.00  0.00    +0.000 N 
ATOM      2  N   UNL     1      42.596  -5.527  12.172  0.00  0.00    +0.000 NA
ATOM      3  C   UNL     1      41.277  -1.349  14.333  0.00  0.00    +0.000 A 
ATOM      4  C   UNL     1      42.099  -1.693  15.410  0.00  0.00    +0.000 A 
ATOM      5  C   UNL     1      41.197  -2.243  13.234  0.00  0.00    +0.000 A 
ATOM      6  C   UNL     1      40.685  -0.078  14.657  0.00  0.00    +0.000 A 
ATOM      7  C   UNL     1      42.847  -2.881  15.451  0.00  0.00    +0.000 A 
ATOM      8  C   UNL     1      42.766  -3.766  14.359  0.00  0.00    +0.000 A 
ATOM      9  C   UNL     1      41.943  -3.444  13.258  0.00  0.00    +0.000 A 
ATOM     10  C   UNL     1      41.162   0.308  15.908  0.00  0.00    +0.000 A 
ATOM     11  C   UNL     1      40.316  -1.902  12.051  0.00  0.00    +0.000 C 
ATOM     12  C   UNL     1      39.785   0.781  13.994  0.00  0.00    +0.000 A 
ATOM     13  C   UNL     1      43.703  -3.152  16.666  0.00  0.00    +0.000 C 
ATOM     14  C   UNL     1      40.789   1.502  16.534  0.00  0.00    +0.000 A 
ATOM     15  C   UNL     1      43.484  -4.971  14.331  0.00  0.00    +0.000 A 
ATOM     16  C   UNL     1      41.910  -4.365  12.211  0.00  0.00    +0.000 A 
ATOM     17  C   UNL     1      39.400   1.978  14.602  0.00  0.00    +0.000 A 
ATOM     18  C   UNL     1      39.896   2.329  15.851  0.00  0.00    +0.000 A 
ATOM     19  C   UNL     1      43.370  -5.806  13.235  0.00  0.00    +0.000 A 
ATOM     20  H   UNL     1      42.509  -0.674  17.223  0.00  0.00    +0.000 HD
ENDROOT
TORSDOF 0
ENDMDL
MODEL 8
REMARK VINA RESULT:      -6.2     21.163     21.948
REMARK  Name = Ellipticine.pdbqt.pdb
REMARK  0 active torsions:
REMARK  status: ('A' for Active; 'I' for Inactive)
REMARK                            x       y       z     vdW  Elec       q    Type
REMARK                         _______ _______ _______ _____ _____    ______ ____
ROOT
ATOM      1  N   UNL     1      49.671   3.873   9.141  0.00  0.00    +0.000 N 
ATOM      2  N   UNL     1      53.399   6.793  13.478  0.00  0.00    +0.000 NA
ATOM      3  C   UNL     1      50.752   3.473  11.062  0.00  0.00    +0.000 A 
ATOM      4  C   UNL     1      50.474   4.451  10.103  0.00  0.00    +0.000 A 
ATOM      5  C   UNL     1      51.570   3.825  12.166  0.00  0.00    +0.000 A 
ATOM      6  C   UNL     1      50.078   2.275  10.634  0.00  0.00    +0.000 A 
ATOM      7  C   UNL     1      50.967   5.763  10.184  0.00  0.00    +0.000 A 
ATOM      8  C   UNL     1      51.778   6.110  11.281  0.00  0.00    +0.000 A 
ATOM      9  C   UNL     1      52.075   5.143  12.265  0.00  0.00    +0.000 A 
ATOM     10  C   UNL     1      49.418   2.559   9.441  0.00  0.00    +0.000 A 
ATOM     11  C   UNL     1      51.891   2.790  13.223  0.00  0.00    +0.000 C 
ATOM     12  C   UNL     1      49.972   0.971  11.159  0.00  0.00    +0.000 A 
ATOM     13  C   UNL     1      50.603   6.740   9.091  0.00  0.00    +0.000 C 
ATOM     14  C   UNL     1      48.658   1.615   8.743  0.00  0.00    +0.000 A 
ATOM     15  C   UNL     1      52.306   7.402  11.429  0.00  0.00    +0.000 A 
ATOM     16  C   UNL     1      52.884   5.554  13.324  0.00  0.00    +0.000 A 
ATOM     17  C   UNL     1      49.218   0.012  10.478  0.00  0.00    +0.000 A 
ATOM     18  C   UNL     1      48.573   0.333   9.290  0.00  0.00    +0.000 A 
ATOM     19  C   UNL     1      53.098   7.692  12.525  0.00  0.00    +0.000 A 
ATOM     20  H   UNL     1      49.320   4.364   8.326  0.00  0.00    +0.000 HD
ENDROOT
TORSDOF 0
ENDMDL
MODEL 9
REMARK VINA RESULT:      -6.1     20.315     22.444
REMARK  Name = Ellipticine.pdbqt.pdb
REMARK  0 active torsions:
REMARK  status: ('A' for Active; 'I' for Inactive)
REMARK                            x       y       z     vdW  Elec       q    Type
REMARK                         _______ _______ _______ _____ _____    ______ ____
ROOT
ATOM      1  N   UNL     1      49.353   2.564  10.954  0.00  0.00    +0.000 N 
ATOM      2  N   UNL     1      52.547   7.734   8.877  0.00  0.00    +0.000 NA
ATOM      3  C   UNL     1      50.505   3.305   9.181  0.00  0.00    +0.000 A 
ATOM      4  C   UNL     1      50.050   3.647  10.459  0.00  0.00    +0.000 A 
ATOM      5  C   UNL     1      51.257   4.264   8.455  0.00  0.00    +0.000 A 
ATOM      6  C   UNL     1      50.049   1.964   8.928  0.00  0.00    +0.000 A 
ATOM      7  C   UNL     1      50.305   4.893  11.052  0.00  0.00    +0.000 A 
ATOM      8  C   UNL     1      51.052   5.843  10.330  0.00  0.00    +0.000 A 
ATOM      9  C   UNL     1      51.524   5.526   9.038  0.00  0.00    +0.000 A 
ATOM     10  C   UNL     1      49.339   1.536  10.047  0.00  0.00    +0.000 A 
ATOM     11  C   UNL     1      51.765   3.928   7.070  0.00  0.00    +0.000 C 
ATOM     12  C   UNL     1      50.179   1.075   7.842  0.00  0.00    +0.000 A 
ATOM     13  C   UNL     1      49.766   5.155  12.438  0.00  0.00    +0.000 C 
ATOM     14  C   UNL     1      48.751   0.270  10.143  0.00  0.00    +0.000 A 
ATOM     15  C   UNL     1      51.346   7.109  10.860  0.00  0.00    +0.000 A 
ATOM     16  C   UNL     1      52.257   6.512   8.379  0.00  0.00    +0.000 A 
ATOM     17  C   UNL     1      49.599  -0.194   7.916  0.00  0.00    +0.000 A 
ATOM     18  C   UNL     1      48.898  -0.586   9.050  0.00  0.00    +0.000 A 
ATOM     19  C   UNL     1      52.084   8.006  10.110  0.00  0.00    +0.000 A 
ATOM     20  H   UNL     1      48.914   2.543  11.868  0.00  0.00    +0.000 HD
ENDROOT
TORSDOF 0
ENDMDL
