MODEL 1
REMARK VINA RESULT:      -6.4      0.000      0.000
REMARK  Name = Enterolactone.pdbqt.pdb
REMARK  2 active torsions:
REMARK  status: ('A' for Active; 'I' for Inactive)
REMARK    1  A    between atoms: C_10  and  O_14
REMARK    2  A    between atoms: C_19  and  O_23
REMARK                            x       y       z     vdW  Elec       q    Type
REMARK                         _______ _______ _______ _____ _____    ______ ____
ROOT
ATOM      1  O   UNL     1      45.819  -3.528  17.866  0.00  0.00    +0.000 OA
ATOM      2  O   UNL     1      45.205  -2.268  19.728  0.00  0.00    +0.000 OA
ATOM      3  C   UNL     1      43.912  -3.160  16.506  0.00  0.00    +0.000 C 
ATOM      4  C   UNL     1      43.763  -2.449  17.752  0.00  0.00    +0.000 C 
ATOM      5  C   UNL     1      45.168  -3.726  16.730  0.00  0.00    +0.000 C 
ATOM      6  C   UNL     1      44.986  -2.704  18.613  0.00  0.00    +0.000 C 
ATOM      7  C   UNL     1      43.244  -2.875  15.300  0.00  0.00    +0.000 C 
ATOM      8  C   UNL     1      42.552  -2.577  14.091  0.00  0.00    +0.000 C 
ATOM      9  C   UNL     1      42.185  -1.263  13.809  0.00  0.00    +0.000 C 
ATOM     10  C   UNL     1      41.500  -0.987  12.629  0.00  0.00    +0.000 C 
ATOM     11  C   UNL     1      41.180  -2.002  11.734  0.00  0.00    +0.000 C 
ATOM     12  C   UNL     1      41.549  -3.313  12.022  0.00  0.00    +0.000 C 
ATOM     13  C   UNL     1      42.235  -3.602  13.200  0.00  0.00    +0.000 C 
ATOM     14  C   UNL     1      42.696  -1.586  18.089  0.00  0.00    +0.000 C 
ATOM     15  C   UNL     1      41.619  -0.713  18.418  0.00  0.00    +0.000 C 
ATOM     16  C   UNL     1      40.322  -1.037  18.032  0.00  0.00    +0.000 C 
ATOM     17  C   UNL     1      39.281  -0.170  18.350  0.00  0.00    +0.000 C 
ATOM     18  C   UNL     1      39.520   1.010  19.046  0.00  0.00    +0.000 C 
ATOM     19  C   UNL     1      40.821   1.328  19.430  0.00  0.00    +0.000 C 
ATOM     20  C   UNL     1      41.872   0.468  19.116  0.00  0.00    +0.000 C 
ENDROOT
BRANCH  10  21
ATOM     21  O   UNL     1      41.127   0.289  12.323  0.00  0.00    +0.000 OA
ATOM     22  H   UNL     1      40.521   0.610  13.013  0.00  0.00    +0.000 HD
ENDBRANCH  10  21
BRANCH  17  23
ATOM     23  O   UNL     1      37.998  -0.457  17.985  0.00  0.00    +0.000 OA
ATOM     24  H   UNL     1      37.433  -0.405  18.777  0.00  0.00    +0.000 HD
ENDBRANCH  17  23
TORSDOF 2
ENDMDL
MODEL 2
REMARK VINA RESULT:      -6.2     14.631     16.334
REMARK  Name = Enterolactone.pdbqt.pdb
REMARK  2 active torsions:
REMARK  status: ('A' for Active; 'I' for Inactive)
REMARK    1  A    between atoms: C_10  and  O_14
REMARK    2  A    between atoms: C_19  and  O_23
REMARK                            x       y       z     vdW  Elec       q    Type
REMARK                         _______ _______ _______ _____ _____    ______ ____
ROOT
ATOM      1  O   UNL     1      57.451   6.732  10.582  0.00  0.00    +0.000 OA
ATOM      2  O   UNL     1      57.125   6.613   8.276  0.00  0.00    +0.000 OA
ATOM      3  C   UNL     1      55.266   7.363  11.249  0.00  0.00    +0.000 C 
ATOM      4  C   UNL     1      55.311   7.214   9.814  0.00  0.00    +0.000 C 
ATOM      5  C   UNL     1      56.590   7.034  11.540  0.00  0.00    +0.000 C 
ATOM      6  C   UNL     1      56.718   6.821   9.404  0.00  0.00    +0.000 C 
ATOM      7  C   UNL     1      54.113   7.304  12.055  0.00  0.00    +0.000 C 
ATOM      8  C   UNL     1      52.935   7.249  12.854  0.00  0.00    +0.000 C 
ATOM      9  C   UNL     1      51.866   6.448  12.459  0.00  0.00    +0.000 C 
ATOM     10  C   UNL     1      50.717   6.412  13.243  0.00  0.00    +0.000 C 
ATOM     11  C   UNL     1      50.624   7.162  14.411  0.00  0.00    +0.000 C 
ATOM     12  C   UNL     1      51.696   7.961  14.801  0.00  0.00    +0.000 C 
ATOM     13  C   UNL     1      52.852   8.005  14.023  0.00  0.00    +0.000 C 
ATOM     14  C   UNL     1      54.210   7.331   8.936  0.00  0.00    +0.000 C 
ATOM     15  C   UNL     1      53.093   7.445   8.058  0.00  0.00    +0.000 C 
ATOM     16  C   UNL     1      52.128   8.420   8.288  0.00  0.00    +0.000 C 
ATOM     17  C   UNL     1      51.037   8.514   7.429  0.00  0.00    +0.000 C 
ATOM     18  C   UNL     1      50.900   7.648   6.350  0.00  0.00    +0.000 C 
ATOM     19  C   UNL     1      51.870   6.674   6.125  0.00  0.00    +0.000 C 
ATOM     20  C   UNL     1      52.967   6.571   6.978  0.00  0.00    +0.000 C 
ENDROOT
BRANCH  10  21
ATOM     21  O   UNL     1      49.653   5.637  12.884  0.00  0.00    +0.000 OA
ATOM     22  H   UNL     1      49.604   5.607  11.913  0.00  0.00    +0.000 HD
ENDBRANCH  10  21
BRANCH  17  23
ATOM     23  O   UNL     1      50.072   9.458   7.627  0.00  0.00    +0.000 OA
ATOM     24  H   UNL     1      49.728   9.735   6.759  0.00  0.00    +0.000 HD
ENDBRANCH  17  23
TORSDOF 2
ENDMDL
MODEL 3
REMARK VINA RESULT:      -6.2     18.734     21.367
REMARK  Name = Enterolactone.pdbqt.pdb
REMARK  2 active torsions:
REMARK  status: ('A' for Active; 'I' for Inactive)
REMARK    1  A    between atoms: C_10  and  O_14
REMARK    2  A    between atoms: C_19  and  O_23
REMARK                            x       y       z     vdW  Elec       q    Type
REMARK                         _______ _______ _______ _____ _____    ______ ____
ROOT
ATOM      1  O   UNL     1      30.734  17.591  17.681  0.00  0.00    +0.000 OA
ATOM      2  O   UNL     1      32.186  19.234  16.888  0.00  0.00    +0.000 OA
ATOM      3  C   UNL     1      32.238  16.375  19.051  0.00  0.00    +0.000 C 
ATOM      4  C   UNL     1      32.929  17.485  18.439  0.00  0.00    +0.000 C 
ATOM      5  C   UNL     1      30.968  16.590  18.514  0.00  0.00    +0.000 C 
ATOM      6  C   UNL     1      31.955  18.245  17.559  0.00  0.00    +0.000 C 
ATOM      7  C   UNL     1      32.630  15.694  20.219  0.00  0.00    +0.000 C 
ATOM      8  C   UNL     1      33.047  15.010  21.398  0.00  0.00    +0.000 C 
ATOM      9  C   UNL     1      33.742  15.699  22.389  0.00  0.00    +0.000 C 
ATOM     10  C   UNL     1      34.152  15.017  23.530  0.00  0.00    +0.000 C 
ATOM     11  C   UNL     1      33.878  13.663  23.692  0.00  0.00    +0.000 C 
ATOM     12  C   UNL     1      33.183  12.979  22.697  0.00  0.00    +0.000 C 
ATOM     13  C   UNL     1      32.767  13.653  21.549  0.00  0.00    +0.000 C 
ATOM     14  C   UNL     1      34.269  17.859  18.682  0.00  0.00    +0.000 C 
ATOM     15  C   UNL     1      35.621  18.233  18.937  0.00  0.00    +0.000 C 
ATOM     16  C   UNL     1      36.593  17.250  19.099  0.00  0.00    +0.000 C 
ATOM     17  C   UNL     1      37.907  17.629  19.358  0.00  0.00    +0.000 C 
ATOM     18  C   UNL     1      38.258  18.970  19.457  0.00  0.00    +0.000 C 
ATOM     19  C   UNL     1      37.281  19.949  19.293  0.00  0.00    +0.000 C 
ATOM     20  C   UNL     1      35.961  19.582  19.033  0.00  0.00    +0.000 C 
ENDROOT
BRANCH  10  21
ATOM     21  O   UNL     1      34.835  15.662  24.520  0.00  0.00    +0.000 OA
ATOM     22  H   UNL     1      35.466  16.279  24.110  0.00  0.00    +0.000 HD
ENDBRANCH  10  21
BRANCH  17  23
ATOM     23  O   UNL     1      38.883  16.690  19.524  0.00  0.00    +0.000 OA
ATOM     24  H   UNL     1      39.180  16.394  18.645  0.00  0.00    +0.000 HD
ENDBRANCH  17  23
TORSDOF 2
ENDMDL
MODEL 4
REMARK VINA RESULT:      -6.1      1.852      6.268
REMARK  Name = Enterolactone.pdbqt.pdb
REMARK  2 active torsions:
REMARK  status: ('A' for Active; 'I' for Inactive)
REMARK    1  A    between atoms: C_10  and  O_14
REMARK    2  A    between atoms: C_19  and  O_23
REMARK                            x       y       z     vdW  Elec       q    Type
REMARK                         _______ _______ _______ _____ _____    ______ ____
ROOT
ATOM      1  O   UNL     1      39.891   0.216  18.833  0.00  0.00    +0.000 OA
ATOM      2  O   UNL     1      39.181   0.948  16.736  0.00  0.00    +0.000 OA
ATOM      3  C   UNL     1      41.271  -1.591  18.164  0.00  0.00    +0.000 C 
ATOM      4  C   UNL     1      40.707  -0.954  16.998  0.00  0.00    +0.000 C 
ATOM      5  C   UNL     1      40.705  -0.779  19.147  0.00  0.00    +0.000 C 
ATOM      6  C   UNL     1      39.820   0.193  17.445  0.00  0.00    +0.000 C 
ATOM      7  C   UNL     1      42.431  -2.388  18.197  0.00  0.00    +0.000 C 
ATOM      8  C   UNL     1      43.603  -3.199  18.210  0.00  0.00    +0.000 C 
ATOM      9  C   UNL     1      44.630  -2.946  17.305  0.00  0.00    +0.000 C 
ATOM     10  C   UNL     1      45.765  -3.752  17.321  0.00  0.00    +0.000 C 
ATOM     11  C   UNL     1      45.883  -4.801  18.226  0.00  0.00    +0.000 C 
ATOM     12  C   UNL     1      44.852  -5.049  19.129  0.00  0.00    +0.000 C 
ATOM     13  C   UNL     1      43.712  -4.248  19.122  0.00  0.00    +0.000 C 
ATOM     14  C   UNL     1      40.997  -1.284  15.655  0.00  0.00    +0.000 C 
ATOM     15  C   UNL     1      41.298  -1.620  14.303  0.00  0.00    +0.000 C 
ATOM     16  C   UNL     1      41.462  -2.953  13.941  0.00  0.00    +0.000 C 
ATOM     17  C   UNL     1      41.767  -3.267  12.619  0.00  0.00    +0.000 C 
ATOM     18  C   UNL     1      41.910  -2.268  11.662  0.00  0.00    +0.000 C 
ATOM     19  C   UNL     1      41.744  -0.935  12.032  0.00  0.00    +0.000 C 
ATOM     20  C   UNL     1      41.439  -0.609  13.352  0.00  0.00    +0.000 C 
ENDROOT
BRANCH  10  21
ATOM     21  O   UNL     1      46.789  -3.531  16.448  0.00  0.00    +0.000 OA
ATOM     22  H   UNL     1      46.808  -4.257  15.801  0.00  0.00    +0.000 HD
ENDBRANCH  10  21
BRANCH  17  23
ATOM     23  O   UNL     1      41.935  -4.564  12.231  0.00  0.00    +0.000 OA
ATOM     24  H   UNL     1      42.507  -5.009  12.881  0.00  0.00    +0.000 HD
ENDBRANCH  17  23
TORSDOF 2
ENDMDL
MODEL 5
REMARK VINA RESULT:      -5.9     19.081     21.441
REMARK  Name = Enterolactone.pdbqt.pdb
REMARK  2 active torsions:
REMARK  status: ('A' for Active; 'I' for Inactive)
REMARK    1  A    between atoms: C_10  and  O_14
REMARK    2  A    between atoms: C_19  and  O_23
REMARK                            x       y       z     vdW  Elec       q    Type
REMARK                         _______ _______ _______ _____ _____    ______ ____
ROOT
ATOM      1  O   UNL     1      31.277  19.242  17.895  0.00  0.00    +0.000 OA
ATOM      2  O   UNL     1      29.974  17.629  18.959  0.00  0.00    +0.000 OA
ATOM      3  C   UNL     1      33.345  18.850  18.986  0.00  0.00    +0.000 C 
ATOM      4  C   UNL     1      32.349  17.933  19.489  0.00  0.00    +0.000 C 
ATOM      5  C   UNL     1      32.558  19.533  18.058  0.00  0.00    +0.000 C 
ATOM      6  C   UNL     1      31.032  18.205  18.787  0.00  0.00    +0.000 C 
ATOM      7  C   UNL     1      34.740  18.677  19.046  0.00  0.00    +0.000 C 
ATOM      8  C   UNL     1      36.151  18.489  19.124  0.00  0.00    +0.000 C 
ATOM      9  C   UNL     1      36.680  17.201  19.092  0.00  0.00    +0.000 C 
ATOM     10  C   UNL     1      38.059  17.030  19.179  0.00  0.00    +0.000 C 
ATOM     11  C   UNL     1      38.908  18.125  19.296  0.00  0.00    +0.000 C 
ATOM     12  C   UNL     1      38.373  19.410  19.326  0.00  0.00    +0.000 C 
ATOM     13  C   UNL     1      36.994  19.593  19.240  0.00  0.00    +0.000 C 
ATOM     14  C   UNL     1      32.578  16.894  20.419  0.00  0.00    +0.000 C 
ATOM     15  C   UNL     1      32.817  15.845  21.353  0.00  0.00    +0.000 C 
ATOM     16  C   UNL     1      33.686  16.053  22.420  0.00  0.00    +0.000 C 
ATOM     17  C   UNL     1      33.920  15.016  23.319  0.00  0.00    +0.000 C 
ATOM     18  C   UNL     1      33.299  13.782  23.164  0.00  0.00    +0.000 C 
ATOM     19  C   UNL     1      32.430  13.580  22.094  0.00  0.00    +0.000 C 
ATOM     20  C   UNL     1      32.189  14.611  21.187  0.00  0.00    +0.000 C 
ENDROOT
BRANCH  10  21
ATOM     21  O   UNL     1      38.610  15.782  19.152  0.00  0.00    +0.000 OA
ATOM     22  H   UNL     1      39.439  15.798  19.660  0.00  0.00    +0.000 HD
ENDBRANCH  10  21
BRANCH  17  23
ATOM     23  O   UNL     1      34.766  15.187  24.375  0.00  0.00    +0.000 OA
ATOM     24  H   UNL     1      34.934  16.140  24.486  0.00  0.00    +0.000 HD
ENDBRANCH  17  23
TORSDOF 2
ENDMDL
MODEL 6
REMARK VINA RESULT:      -5.7     12.157     14.045
REMARK  Name = Enterolactone.pdbqt.pdb
REMARK  2 active torsions:
REMARK  status: ('A' for Active; 'I' for Inactive)
REMARK    1  A    between atoms: C_10  and  O_14
REMARK    2  A    between atoms: C_19  and  O_23
REMARK                            x       y       z     vdW  Elec       q    Type
REMARK                         _______ _______ _______ _____ _____    ______ ____
ROOT
ATOM      1  O   UNL     1      53.055  -4.756   6.328  0.00  0.00    +0.000 OA
ATOM      2  O   UNL     1      53.015  -4.079   8.558  0.00  0.00    +0.000 OA
ATOM      3  C   UNL     1      51.871  -2.948   5.354  0.00  0.00    +0.000 C 
ATOM      4  C   UNL     1      51.986  -2.742   6.778  0.00  0.00    +0.000 C 
ATOM      5  C   UNL     1      52.557  -4.159   5.256  0.00  0.00    +0.000 C 
ATOM      6  C   UNL     1      52.736  -3.913   7.385  0.00  0.00    +0.000 C 
ATOM      7  C   UNL     1      51.637  -1.953   4.386  0.00  0.00    +0.000 C 
ATOM      8  C   UNL     1      51.391  -0.934   3.421  0.00  0.00    +0.000 C 
ATOM      9  C   UNL     1      51.859   0.359   3.645  0.00  0.00    +0.000 C 
ATOM     10  C   UNL     1      51.602   1.347   2.699  0.00  0.00    +0.000 C 
ATOM     11  C   UNL     1      50.888   1.061   1.541  0.00  0.00    +0.000 C 
ATOM     12  C   UNL     1      50.423  -0.234   1.323  0.00  0.00    +0.000 C 
ATOM     13  C   UNL     1      50.674  -1.232   2.263  0.00  0.00    +0.000 C 
ATOM     14  C   UNL     1      51.549  -1.600   7.486  0.00  0.00    +0.000 C 
ATOM     15  C   UNL     1      51.110  -0.442   8.191  0.00  0.00    +0.000 C 
ATOM     16  C   UNL     1      49.915   0.175   7.833  0.00  0.00    +0.000 C 
ATOM     17  C   UNL     1      49.503   1.312   8.523  0.00  0.00    +0.000 C 
ATOM     18  C   UNL     1      50.268   1.835   9.560  0.00  0.00    +0.000 C 
ATOM     19  C   UNL     1      51.462   1.212   9.913  0.00  0.00    +0.000 C 
ATOM     20  C   UNL     1      51.885   0.073   9.229  0.00  0.00    +0.000 C 
ENDROOT
BRANCH  10  21
ATOM     21  O   UNL     1      52.047   2.624   2.888  0.00  0.00    +0.000 OA
ATOM     22  H   UNL     1      51.718   3.177   2.158  0.00  0.00    +0.000 HD
ENDBRANCH  10  21
BRANCH  17  23
ATOM     23  O   UNL     1      48.338   1.942   8.197  0.00  0.00    +0.000 OA
ATOM     24  H   UNL     1      47.627   1.277   8.157  0.00  0.00    +0.000 HD
ENDBRANCH  17  23
TORSDOF 2
ENDMDL
MODEL 7
REMARK VINA RESULT:      -5.7      2.551      6.900
REMARK  Name = Enterolactone.pdbqt.pdb
REMARK  2 active torsions:
REMARK  status: ('A' for Active; 'I' for Inactive)
REMARK    1  A    between atoms: C_10  and  O_14
REMARK    2  A    between atoms: C_19  and  O_23
REMARK                            x       y       z     vdW  Elec       q    Type
REMARK                         _______ _______ _______ _____ _____    ______ ____
ROOT
ATOM      1  O   UNL     1      39.253   3.716  18.893  0.00  0.00    +0.000 OA
ATOM      2  O   UNL     1      38.520   3.664  16.681  0.00  0.00    +0.000 OA
ATOM      3  C   UNL     1      40.085   1.504  19.076  0.00  0.00    +0.000 C 
ATOM      4  C   UNL     1      39.569   1.719  17.746  0.00  0.00    +0.000 C 
ATOM      5  C   UNL     1      39.835   2.768  19.611  0.00  0.00    +0.000 C 
ATOM      6  C   UNL     1      39.032   3.135  17.650  0.00  0.00    +0.000 C 
ATOM      7  C   UNL     1      41.019   0.522  19.456  0.00  0.00    +0.000 C 
ATOM      8  C   UNL     1      41.959  -0.484  19.825  0.00  0.00    +0.000 C 
ATOM      9  C   UNL     1      42.916  -0.908  18.906  0.00  0.00    +0.000 C 
ATOM     10  C   UNL     1      43.821  -1.898  19.275  0.00  0.00    +0.000 C 
ATOM     11  C   UNL     1      43.782  -2.466  20.544  0.00  0.00    +0.000 C 
ATOM     12  C   UNL     1      42.823  -2.037  21.459  0.00  0.00    +0.000 C 
ATOM     13  C   UNL     1      41.911  -1.046  21.100  0.00  0.00    +0.000 C 
ATOM     14  C   UNL     1      39.628   0.797  16.677  0.00  0.00    +0.000 C 
ATOM     15  C   UNL     1      39.696  -0.137  15.603  0.00  0.00    +0.000 C 
ATOM     16  C   UNL     1      39.499  -1.492  15.850  0.00  0.00    +0.000 C 
ATOM     17  C   UNL     1      39.579  -2.395  14.793  0.00  0.00    +0.000 C 
ATOM     18  C   UNL     1      39.853  -1.961  13.501  0.00  0.00    +0.000 C 
ATOM     19  C   UNL     1      40.049  -0.603  13.261  0.00  0.00    +0.000 C 
ATOM     20  C   UNL     1      39.971   0.311  14.311  0.00  0.00    +0.000 C 
ENDROOT
BRANCH  10  21
ATOM     21  O   UNL     1      44.771  -2.336  18.398  0.00  0.00    +0.000 OA
ATOM     22  H   UNL     1      45.058  -3.225  18.670  0.00  0.00    +0.000 HD
ENDBRANCH  10  21
BRANCH  17  23
ATOM     23  O   UNL     1      39.392  -3.730  15.001  0.00  0.00    +0.000 OA
ATOM     24  H   UNL     1      39.527  -3.918  15.948  0.00  0.00    +0.000 HD
ENDBRANCH  17  23
TORSDOF 2
ENDMDL
MODEL 8
REMARK VINA RESULT:      -5.6     13.452     15.170
REMARK  Name = Enterolactone.pdbqt.pdb
REMARK  2 active torsions:
REMARK  status: ('A' for Active; 'I' for Inactive)
REMARK    1  A    between atoms: C_10  and  O_14
REMARK    2  A    between atoms: C_19  and  O_23
REMARK                            x       y       z     vdW  Elec       q    Type
REMARK                         _______ _______ _______ _____ _____    ______ ____
ROOT
ATOM      1  O   UNL     1      56.299   3.161   7.071  0.00  0.00    +0.000 OA
ATOM      2  O   UNL     1      56.194   5.181   5.912  0.00  0.00    +0.000 OA
ATOM      3  C   UNL     1      54.426   3.437   8.498  0.00  0.00    +0.000 C 
ATOM      4  C   UNL     1      54.565   4.597   7.650  0.00  0.00    +0.000 C 
ATOM      5  C   UNL     1      55.508   2.693   8.024  0.00  0.00    +0.000 C 
ATOM      6  C   UNL     1      55.772   4.407   6.752  0.00  0.00    +0.000 C 
ATOM      7  C   UNL     1      53.252   3.021   9.153  0.00  0.00    +0.000 C 
ATOM      8  C   UNL     1      52.055   2.619   9.815  0.00  0.00    +0.000 C 
ATOM      9  C   UNL     1      50.818   2.894   9.237  0.00  0.00    +0.000 C 
ATOM     10  C   UNL     1      49.657   2.506   9.898  0.00  0.00    +0.000 C 
ATOM     11  C   UNL     1      49.718   1.851  11.124  0.00  0.00    +0.000 C 
ATOM     12  C   UNL     1      50.958   1.579  11.697  0.00  0.00    +0.000 C 
ATOM     13  C   UNL     1      52.127   1.963  11.043  0.00  0.00    +0.000 C 
ATOM     14  C   UNL     1      53.676   5.694   7.599  0.00  0.00    +0.000 C 
ATOM     15  C   UNL     1      52.771   6.794   7.550  0.00  0.00    +0.000 C 
ATOM     16  C   UNL     1      52.200   7.274   8.725  0.00  0.00    +0.000 C 
ATOM     17  C   UNL     1      51.310   8.342   8.661  0.00  0.00    +0.000 C 
ATOM     18  C   UNL     1      50.986   8.932   7.445  0.00  0.00    +0.000 C 
ATOM     19  C   UNL     1      51.562   8.447   6.272  0.00  0.00    +0.000 C 
ATOM     20  C   UNL     1      52.455   7.377   6.323  0.00  0.00    +0.000 C 
ENDROOT
BRANCH  10  21
ATOM     21  O   UNL     1      48.430   2.759   9.359  0.00  0.00    +0.000 OA
ATOM     22  H   UNL     1      47.851   3.112  10.057  0.00  0.00    +0.000 HD
ENDBRANCH  10  21
BRANCH  17  23
ATOM     23  O   UNL     1      50.731   8.836   9.794  0.00  0.00    +0.000 OA
ATOM     24  H   UNL     1      49.896   9.272   9.549  0.00  0.00    +0.000 HD
ENDBRANCH  17  23
TORSDOF 2
ENDMDL
MODEL 9
REMARK VINA RESULT:      -5.5     23.020     24.569
REMARK  Name = Enterolactone.pdbqt.pdb
REMARK  2 active torsions:
REMARK  status: ('A' for Active; 'I' for Inactive)
REMARK    1  A    between atoms: C_10  and  O_14
REMARK    2  A    between atoms: C_19  and  O_23
REMARK                            x       y       z     vdW  Elec       q    Type
REMARK                         _______ _______ _______ _____ _____    ______ ____
ROOT
ATOM      1  O   UNL     1      55.197  16.423   9.660  0.00  0.00    +0.000 OA
ATOM      2  O   UNL     1      56.419  17.966   8.411  0.00  0.00    +0.000 OA
ATOM      3  C   UNL     1      53.033  17.361   9.421  0.00  0.00    +0.000 C 
ATOM      4  C   UNL     1      53.992  18.165   8.702  0.00  0.00    +0.000 C 
ATOM      5  C   UNL     1      53.898  16.382   9.910  0.00  0.00    +0.000 C 
ATOM      6  C   UNL     1      55.371  17.556   8.874  0.00  0.00    +0.000 C 
ATOM      7  C   UNL     1      51.645  17.319   9.191  0.00  0.00    +0.000 C 
ATOM      8  C   UNL     1      50.240  17.295   8.950  0.00  0.00    +0.000 C 
ATOM      9  C   UNL     1      49.755  17.517   7.664  0.00  0.00    +0.000 C 
ATOM     10  C   UNL     1      48.381  17.502   7.444  0.00  0.00    +0.000 C 
ATOM     11  C   UNL     1      47.492  17.269   8.488  0.00  0.00    +0.000 C 
ATOM     12  C   UNL     1      47.984  17.048   9.772  0.00  0.00    +0.000 C 
ATOM     13  C   UNL     1      49.358  17.061  10.004  0.00  0.00    +0.000 C 
ATOM     14  C   UNL     1      53.692  19.287   7.897  0.00  0.00    +0.000 C 
ATOM     15  C   UNL     1      53.380  20.414   7.082  0.00  0.00    +0.000 C 
ATOM     16  C   UNL     1      52.392  21.308   7.486  0.00  0.00    +0.000 C 
ATOM     17  C   UNL     1      52.090  22.399   6.676  0.00  0.00    +0.000 C 
ATOM     18  C   UNL     1      52.759  22.604   5.474  0.00  0.00    +0.000 C 
ATOM     19  C   UNL     1      53.747  21.706   5.077  0.00  0.00    +0.000 C 
ATOM     20  C   UNL     1      54.058  20.610   5.880  0.00  0.00    +0.000 C 
ENDROOT
BRANCH  10  21
ATOM     21  O   UNL     1      47.872  17.716   6.196  0.00  0.00    +0.000 OA
ATOM     22  H   UNL     1      47.500  18.614   6.162  0.00  0.00    +0.000 HD
ENDBRANCH  10  21
BRANCH  17  23
ATOM     23  O   UNL     1      51.127  23.293   7.041  0.00  0.00    +0.000 OA
ATOM     24  H   UNL     1      51.387  24.175   6.722  0.00  0.00    +0.000 HD
ENDBRANCH  17  23
TORSDOF 2
ENDMDL
