MODEL 1
REMARK VINA RESULT:      -7.2      0.000      0.000
REMARK  Name = 
REMARK  12 active torsions:
REMARK  status: ('A' for Active; 'I' for Inactive)
REMARK    1  A    between atoms: O_2  and  C_12
REMARK    2  A    between atoms: O_2  and  C_24
REMARK    3  A    between atoms: O_3  and  C_18
REMARK    4  A    between atoms: O_4  and  C_23
REMARK    5  A    between atoms: O_5  and  C_25
REMARK    6  A    between atoms: O_6  and  C_26
REMARK    7  A    between atoms: O_8  and  C_27
REMARK    8  A    between atoms: O_9  and  C_31
REMARK    9  A    between atoms: O_10  and  C_32
REMARK   10  A    between atoms: O_11  and  C_33
REMARK   11  A    between atoms: C_13  and  C_16
REMARK   12  A    between atoms: C_24  and  C_28
REMARK                            x       y       z     vdW  Elec       q    Type
REMARK                         _______ _______ _______ _____ _____    ______ ____
ROOT
ATOM      1  O   UNL     1      51.949   7.399  11.783  0.00  0.00    +0.000 OA
ATOM      2  C   UNL     1      53.789   5.873  11.158  0.00  0.00    +0.000 C 
ATOM      3  C   UNL     1      53.060   7.202  10.893  0.00  0.00    +0.000 C 
ATOM      4  C   UNL     1      54.358   5.910  12.576  0.00  0.00    +0.000 C 
ATOM      5  C   UNL     1      53.361   6.480  13.553  0.00  0.00    +0.000 A 
ATOM      6  C   UNL     1      52.236   7.185  13.105  0.00  0.00    +0.000 A 
ATOM      7  C   UNL     1      53.553   6.336  14.932  0.00  0.00    +0.000 A 
ATOM      8  C   UNL     1      51.303   7.692  14.013  0.00  0.00    +0.000 A 
ATOM      9  C   UNL     1      52.635   6.849  15.847  0.00  0.00    +0.000 A 
ATOM     10  C   UNL     1      51.513   7.520  15.377  0.00  0.00    +0.000 A 
ENDROOT
BRANCH   3  11
ATOM     11  C   UNL     1      52.564   7.293   9.456  0.00  0.00    +0.000 A 
ATOM     12  C   UNL     1      51.180   7.314   9.194  0.00  0.00    +0.000 A 
ATOM     13  C   UNL     1      53.464   7.393   8.379  0.00  0.00    +0.000 A 
ATOM     14  C   UNL     1      52.981   7.505   7.079  0.00  0.00    +0.000 A 
ATOM     15  C   UNL     1      50.710   7.424   7.884  0.00  0.00    +0.000 A 
ATOM     16  C   UNL     1      51.611   7.520   6.829  0.00  0.00    +0.000 A 
BRANCH  14  17
ATOM     17  O   UNL     1      53.825   7.609   6.006  0.00  0.00    +0.000 OA
ATOM     18  H   UNL     1      53.346   7.318   5.211  0.00  0.00    +0.000 HD
ENDBRANCH  14  17
BRANCH  15  19
ATOM     19  O   UNL     1      49.369   7.442   7.627  0.00  0.00    +0.000 OA
ATOM     20  H   UNL     1      49.207   7.137   6.722  0.00  0.00    +0.000 HD
ENDBRANCH  15  19
BRANCH  16  21
ATOM     21  O   UNL     1      51.172   7.632   5.539  0.00  0.00    +0.000 OA
ATOM     22  H   UNL     1      50.866   8.556   5.461  0.00  0.00    +0.000 HD
ENDBRANCH  16  21
ENDBRANCH   3  11
BRANCH   7  23
ATOM     23  O   UNL     1      54.666   5.677  15.373  0.00  0.00    +0.000 OA
ATOM     24  H   UNL     1      55.447   6.226  15.192  0.00  0.00    +0.000 HD
ENDBRANCH   7  23
BRANCH  10  25
ATOM     25  O   UNL     1      50.634   8.006  16.298  0.00  0.00    +0.000 OA
ATOM     26  H   UNL     1      50.996   8.824  16.678  0.00  0.00    +0.000 HD
ENDBRANCH  10  25
BRANCH   2  27
ATOM     27  O   UNL     1      52.849   4.774  11.057  0.00  0.00    +0.000 OA
BRANCH  27  29
ATOM     28  O   UNL     1      54.001   3.814   9.318  0.00  0.00    +0.000 OA
ATOM     29  C   UNL     1      52.994   3.954   9.992  0.00  0.00    +0.000 C 
BRANCH  29  30
ATOM     30  C   UNL     1      51.713   3.253   9.721  0.00  0.00    +0.000 A 
ATOM     31  C   UNL     1      50.518   3.933  10.002  0.00  0.00    +0.000 A 
ATOM     32  C   UNL     1      51.680   1.952   9.188  0.00  0.00    +0.000 A 
ATOM     33  C   UNL     1      50.454   1.333   8.955  0.00  0.00    +0.000 A 
ATOM     34  C   UNL     1      49.305   3.299   9.766  0.00  0.00    +0.000 A 
ATOM     35  C   UNL     1      49.270   2.004   9.249  0.00  0.00    +0.000 A 
BRANCH  33  36
ATOM     36  O   UNL     1      50.404   0.069   8.440  0.00  0.00    +0.000 OA
ATOM     37  H   UNL     1      49.751  -0.456   8.928  0.00  0.00    +0.000 HD
ENDBRANCH  33  36
BRANCH  34  38
ATOM     38  O   UNL     1      48.110   3.911  10.027  0.00  0.00    +0.000 OA
ATOM     39  H   UNL     1      47.652   4.074   9.183  0.00  0.00    +0.000 HD
ENDBRANCH  34  38
BRANCH  35  40
ATOM     40  O   UNL     1      48.058   1.410   9.029  0.00  0.00    +0.000 OA
ATOM     41  H   UNL     1      48.079   0.587   9.555  0.00  0.00    +0.000 HD
ENDBRANCH  35  40
ENDBRANCH  29  30
ENDBRANCH  27  29
ENDBRANCH   2  27
TORSDOF 12
ENDMDL
MODEL 2
REMARK VINA RESULT:      -7.0      1.371      5.924
REMARK  Name = 
REMARK  12 active torsions:
REMARK  status: ('A' for Active; 'I' for Inactive)
REMARK    1  A    between atoms: O_2  and  C_12
REMARK    2  A    between atoms: O_2  and  C_24
REMARK    3  A    between atoms: O_3  and  C_18
REMARK    4  A    between atoms: O_4  and  C_23
REMARK    5  A    between atoms: O_5  and  C_25
REMARK    6  A    between atoms: O_6  and  C_26
REMARK    7  A    between atoms: O_8  and  C_27
REMARK    8  A    between atoms: O_9  and  C_31
REMARK    9  A    between atoms: O_10  and  C_32
REMARK   10  A    between atoms: O_11  and  C_33
REMARK   11  A    between atoms: C_13  and  C_16
REMARK   12  A    between atoms: C_24  and  C_28
REMARK                            x       y       z     vdW  Elec       q    Type
REMARK                         _______ _______ _______ _____ _____    ______ ____
ROOT
ATOM      1  O   UNL     1      52.843   7.499  10.123  0.00  0.00    +0.000 OA
ATOM      2  C   UNL     1      50.789   6.165  10.453  0.00  0.00    +0.000 C 
ATOM      3  C   UNL     1      51.641   7.366  10.901  0.00  0.00    +0.000 C 
ATOM      4  C   UNL     1      50.357   6.394   9.005  0.00  0.00    +0.000 C 
ATOM      5  C   UNL     1      51.496   6.918   8.168  0.00  0.00    +0.000 A 
ATOM      6  C   UNL     1      52.652   7.436   8.768  0.00  0.00    +0.000 A 
ATOM      7  C   UNL     1      51.413   6.919   6.771  0.00  0.00    +0.000 A 
ATOM      8  C   UNL     1      53.714   7.900   7.989  0.00  0.00    +0.000 A 
ATOM      9  C   UNL     1      52.462   7.390   5.984  0.00  0.00    +0.000 A 
ATOM     10  C   UNL     1      53.608   7.873   6.603  0.00  0.00    +0.000 A 
ENDROOT
BRANCH   3  11
ATOM     11  C   UNL     1      52.014   7.270  12.374  0.00  0.00    +0.000 A 
ATOM     12  C   UNL     1      51.040   7.521  13.360  0.00  0.00    +0.000 A 
ATOM     13  C   UNL     1      53.312   6.900  12.774  0.00  0.00    +0.000 A 
ATOM     14  C   UNL     1      53.617   6.791  14.127  0.00  0.00    +0.000 A 
ATOM     15  C   UNL     1      51.362   7.411  14.715  0.00  0.00    +0.000 A 
ATOM     16  C   UNL     1      52.648   7.046  15.096  0.00  0.00    +0.000 A 
BRANCH  14  17
ATOM     17  O   UNL     1      54.865   6.428  14.556  0.00  0.00    +0.000 OA
ATOM     18  H   UNL     1      55.504   7.084  14.227  0.00  0.00    +0.000 HD
ENDBRANCH  14  17
BRANCH  15  19
ATOM     19  O   UNL     1      50.421   7.656  15.673  0.00  0.00    +0.000 OA
ATOM     20  H   UNL     1      49.711   8.200  15.301  0.00  0.00    +0.000 HD
ENDBRANCH  15  19
BRANCH  16  21
ATOM     21  O   UNL     1      52.983   6.929  16.417  0.00  0.00    +0.000 OA
ATOM     22  H   UNL     1      53.686   6.252  16.435  0.00  0.00    +0.000 HD
ENDBRANCH  16  21
ENDBRANCH   3  11
BRANCH   7  23
ATOM     23  O   UNL     1      50.274   6.443   6.183  0.00  0.00    +0.000 OA
ATOM     24  H   UNL     1      50.064   6.997   5.413  0.00  0.00    +0.000 HD
ENDBRANCH   7  23
BRANCH  10  25
ATOM     25  O   UNL     1      54.617   8.323   5.804  0.00  0.00    +0.000 OA
ATOM     26  H   UNL     1      54.646   7.779   4.998  0.00  0.00    +0.000 HD
ENDBRANCH  10  25
BRANCH   2  27
ATOM     27  O   UNL     1      51.581   4.953  10.521  0.00  0.00    +0.000 OA
BRANCH  27  29
ATOM     28  O   UNL     1      50.815   3.889  12.406  0.00  0.00    +0.000 OA
ATOM     29  C   UNL     1      51.044   3.920  11.207  0.00  0.00    +0.000 C 
BRANCH  29  30
ATOM     30  C   UNL     1      50.797   2.780  10.289  0.00  0.00    +0.000 A 
ATOM     31  C   UNL     1      49.617   2.791   9.529  0.00  0.00    +0.000 A 
ATOM     32  C   UNL     1      51.711   1.720  10.164  0.00  0.00    +0.000 A 
ATOM     33  C   UNL     1      51.434   0.668   9.292  0.00  0.00    +0.000 A 
ATOM     34  C   UNL     1      49.357   1.733   8.667  0.00  0.00    +0.000 A 
ATOM     35  C   UNL     1      50.257   0.674   8.550  0.00  0.00    +0.000 A 
BRANCH  33  36
ATOM     36  O   UNL     1      52.310  -0.371   9.160  0.00  0.00    +0.000 OA
ATOM     37  H   UNL     1      52.801  -0.281   8.330  0.00  0.00    +0.000 HD
ENDBRANCH  33  36
BRANCH  34  38
ATOM     38  O   UNL     1      48.220   1.688   7.907  0.00  0.00    +0.000 OA
ATOM     39  H   UNL     1      48.142   0.801   7.514  0.00  0.00    +0.000 HD
ENDBRANCH  34  38
BRANCH  35  40
ATOM     40  O   UNL     1      49.967  -0.352   7.692  0.00  0.00    +0.000 OA
ATOM     41  H   UNL     1      49.334   0.026   7.051  0.00  0.00    +0.000 HD
ENDBRANCH  35  40
ENDBRANCH  29  30
ENDBRANCH  27  29
ENDBRANCH   2  27
TORSDOF 12
ENDMDL
MODEL 3
REMARK VINA RESULT:      -7.0      1.378      6.198
REMARK  Name = 
REMARK  12 active torsions:
REMARK  status: ('A' for Active; 'I' for Inactive)
REMARK    1  A    between atoms: O_2  and  C_12
REMARK    2  A    between atoms: O_2  and  C_24
REMARK    3  A    between atoms: O_3  and  C_18
REMARK    4  A    between atoms: O_4  and  C_23
REMARK    5  A    between atoms: O_5  and  C_25
REMARK    6  A    between atoms: O_6  and  C_26
REMARK    7  A    between atoms: O_8  and  C_27
REMARK    8  A    between atoms: O_9  and  C_31
REMARK    9  A    between atoms: O_10  and  C_32
REMARK   10  A    between atoms: O_11  and  C_33
REMARK   11  A    between atoms: C_13  and  C_16
REMARK   12  A    between atoms: C_24  and  C_28
REMARK                            x       y       z     vdW  Elec       q    Type
REMARK                         _______ _______ _______ _____ _____    ______ ____
ROOT
ATOM      1  O   UNL     1      52.833   7.422  10.191  0.00  0.00    +0.000 OA
ATOM      2  C   UNL     1      50.784   6.067  10.461  0.00  0.00    +0.000 C 
ATOM      3  C   UNL     1      51.616   7.269  10.941  0.00  0.00    +0.000 C 
ATOM      4  C   UNL     1      50.382   6.309   9.006  0.00  0.00    +0.000 C 
ATOM      5  C   UNL     1      51.535   6.853   8.201  0.00  0.00    +0.000 A 
ATOM      6  C   UNL     1      52.672   7.374   8.831  0.00  0.00    +0.000 A 
ATOM      7  C   UNL     1      51.481   6.869   6.802  0.00  0.00    +0.000 A 
ATOM      8  C   UNL     1      53.747   7.855   8.081  0.00  0.00    +0.000 A 
ATOM      9  C   UNL     1      52.543   7.358   6.044  0.00  0.00    +0.000 A 
ATOM     10  C   UNL     1      53.671   7.844   6.693  0.00  0.00    +0.000 A 
ENDROOT
BRANCH   3  11
ATOM     11  C   UNL     1      51.958   7.160  12.420  0.00  0.00    +0.000 A 
ATOM     12  C   UNL     1      53.255   6.772  12.812  0.00  0.00    +0.000 A 
ATOM     13  C   UNL     1      51.011   7.474  13.413  0.00  0.00    +0.000 A 
ATOM     14  C   UNL     1      51.361   7.394  14.757  0.00  0.00    +0.000 A 
ATOM     15  C   UNL     1      53.591   6.693  14.165  0.00  0.00    +0.000 A 
ATOM     16  C   UNL     1      52.644   7.005  15.134  0.00  0.00    +0.000 A 
BRANCH  14  17
ATOM     17  O   UNL     1      50.469   7.697  15.751  0.00  0.00    +0.000 OA
ATOM     18  H   UNL     1      49.792   6.999  15.778  0.00  0.00    +0.000 HD
ENDBRANCH  14  17
BRANCH  15  19
ATOM     19  O   UNL     1      54.846   6.315  14.547  0.00  0.00    +0.000 OA
ATOM     20  H   UNL     1      55.440   6.335  13.782  0.00  0.00    +0.000 HD
ENDBRANCH  15  19
BRANCH  16  21
ATOM     21  O   UNL     1      52.953   6.938  16.465  0.00  0.00    +0.000 OA
ATOM     22  H   UNL     1      52.705   7.812  16.821  0.00  0.00    +0.000 HD
ENDBRANCH  16  21
ENDBRANCH   3  11
BRANCH   7  23
ATOM     23  O   UNL     1      50.360   6.390   6.184  0.00  0.00    +0.000 OA
ATOM     24  H   UNL     1      49.619   6.990   6.372  0.00  0.00    +0.000 HD
ENDBRANCH   7  23
BRANCH  10  25
ATOM     25  O   UNL     1      54.693   8.312   5.921  0.00  0.00    +0.000 OA
ATOM     26  H   UNL     1      55.527   8.218   6.414  0.00  0.00    +0.000 HD
ENDBRANCH  10  25
BRANCH   2  27
ATOM     27  O   UNL     1      51.585   4.861  10.532  0.00  0.00    +0.000 OA
BRANCH  27  29
ATOM     28  O   UNL     1      50.838   3.734  12.386  0.00  0.00    +0.000 OA
ATOM     29  C   UNL     1      51.039   3.812  11.186  0.00  0.00    +0.000 C 
BRANCH  29  30
ATOM     30  C   UNL     1      50.741   2.721  10.224  0.00  0.00    +0.000 A 
ATOM     31  C   UNL     1      51.666   1.670  10.114  0.00  0.00    +0.000 A 
ATOM     32  C   UNL     1      49.570   2.718   9.447  0.00  0.00    +0.000 A 
ATOM     33  C   UNL     1      49.336   1.674   8.554  0.00  0.00    +0.000 A 
ATOM     34  C   UNL     1      51.417   0.639   9.217  0.00  0.00    +0.000 A 
ATOM     35  C   UNL     1      50.261   0.641   8.436  0.00  0.00    +0.000 A 
BRANCH  33  36
ATOM     36  O   UNL     1      48.204   1.657   7.790  0.00  0.00    +0.000 OA
ATOM     37  H   UNL     1      47.581   2.324   8.115  0.00  0.00    +0.000 HD
ENDBRANCH  33  36
BRANCH  34  38
ATOM     38  O   UNL     1      52.286  -0.406   9.064  0.00  0.00    +0.000 OA
ATOM     39  H   UNL     1      53.067  -0.247   9.624  0.00  0.00    +0.000 HD
ENDBRANCH  34  38
BRANCH  35  40
ATOM     40  O   UNL     1      50.049  -0.390   7.562  0.00  0.00    +0.000 OA
ATOM     41  H   UNL     1      50.626  -1.112   7.878  0.00  0.00    +0.000 HD
ENDBRANCH  35  40
ENDBRANCH  29  30
ENDBRANCH  27  29
ENDBRANCH   2  27
TORSDOF 12
ENDMDL
MODEL 4
REMARK VINA RESULT:      -6.8     20.055     23.792
REMARK  Name = 
REMARK  12 active torsions:
REMARK  status: ('A' for Active; 'I' for Inactive)
REMARK    1  A    between atoms: O_2  and  C_12
REMARK    2  A    between atoms: O_2  and  C_24
REMARK    3  A    between atoms: O_3  and  C_18
REMARK    4  A    between atoms: O_4  and  C_23
REMARK    5  A    between atoms: O_5  and  C_25
REMARK    6  A    between atoms: O_6  and  C_26
REMARK    7  A    between atoms: O_8  and  C_27
REMARK    8  A    between atoms: O_9  and  C_31
REMARK    9  A    between atoms: O_10  and  C_32
REMARK   10  A    between atoms: O_11  and  C_33
REMARK   11  A    between atoms: C_13  and  C_16
REMARK   12  A    between atoms: C_24  and  C_28
REMARK                            x       y       z     vdW  Elec       q    Type
REMARK                         _______ _______ _______ _____ _____    ______ ____
ROOT
ATOM      1  O   UNL     1      36.102  14.784  20.555  0.00  0.00    +0.000 OA
ATOM      2  C   UNL     1      34.334  16.422  21.102  0.00  0.00    +0.000 C 
ATOM      3  C   UNL     1      35.376  15.931  20.081  0.00  0.00    +0.000 C 
ATOM      4  C   UNL     1      33.310  15.308  21.320  0.00  0.00    +0.000 C 
ATOM      5  C   UNL     1      33.981  13.964  21.450  0.00  0.00    +0.000 A 
ATOM      6  C   UNL     1      35.315  13.783  21.061  0.00  0.00    +0.000 A 
ATOM      7  C   UNL     1      33.274  12.860  21.943  0.00  0.00    +0.000 A 
ATOM      8  C   UNL     1      35.939  12.542  21.205  0.00  0.00    +0.000 A 
ATOM      9  C   UNL     1      33.884  11.614  22.079  0.00  0.00    +0.000 A 
ATOM     10  C   UNL     1      35.215  11.468  21.712  0.00  0.00    +0.000 A 
ENDROOT
BRANCH   3  11
ATOM     11  C   UNL     1      36.368  17.028  19.720  0.00  0.00    +0.000 A 
ATOM     12  C   UNL     1      35.896  18.287  19.300  0.00  0.00    +0.000 A 
ATOM     13  C   UNL     1      37.755  16.821  19.830  0.00  0.00    +0.000 A 
ATOM     14  C   UNL     1      38.638  17.851  19.522  0.00  0.00    +0.000 A 
ATOM     15  C   UNL     1      36.794  19.311  18.991  0.00  0.00    +0.000 A 
ATOM     16  C   UNL     1      38.162  19.092  19.103  0.00  0.00    +0.000 A 
BRANCH  14  17
ATOM     17  O   UNL     1      39.994  17.691  19.622  0.00  0.00    +0.000 OA
ATOM     18  H   UNL     1      40.378  18.523  19.946  0.00  0.00    +0.000 HD
ENDBRANCH  14  17
BRANCH  15  19
ATOM     19  O   UNL     1      36.339  20.532  18.581  0.00  0.00    +0.000 OA
ATOM     20  H   UNL     1      37.091  21.101  18.356  0.00  0.00    +0.000 HD
ENDBRANCH  15  19
BRANCH  16  21
ATOM     21  O   UNL     1      39.058  20.082  18.809  0.00  0.00    +0.000 OA
ATOM     22  H   UNL     1      38.706  20.876  19.255  0.00  0.00    +0.000 HD
ENDBRANCH  16  21
ENDBRANCH   3  11
BRANCH   7  23
ATOM     23  O   UNL     1      31.964  13.026  22.294  0.00  0.00    +0.000 OA
ATOM     24  H   UNL     1      31.869  13.874  22.759  0.00  0.00    +0.000 HD
ENDBRANCH   7  23
BRANCH  10  25
ATOM     25  O   UNL     1      35.782  10.237  21.861  0.00  0.00    +0.000 OA
ATOM     26  H   UNL     1      36.089  10.142  22.779  0.00  0.00    +0.000 HD
ENDBRANCH  10  25
BRANCH   2  27
ATOM     27  O   UNL     1      34.987  16.713  22.363  0.00  0.00    +0.000 OA
BRANCH  27  29
ATOM     28  O   UNL     1      34.763  18.988  22.570  0.00  0.00    +0.000 OA
ATOM     29  C   UNL     1      34.612  17.852  22.987  0.00  0.00    +0.000 C 
BRANCH  29  30
ATOM     30  C   UNL     1      34.007  17.527  24.303  0.00  0.00    +0.000 A 
ATOM     31  C   UNL     1      34.284  16.270  24.863  0.00  0.00    +0.000 A 
ATOM     32  C   UNL     1      33.186  18.441  24.986  0.00  0.00    +0.000 A 
ATOM     33  C   UNL     1      32.636  18.090  26.218  0.00  0.00    +0.000 A 
ATOM     34  C   UNL     1      33.725  15.936  26.090  0.00  0.00    +0.000 A 
ATOM     35  C   UNL     1      32.901  16.837  26.764  0.00  0.00    +0.000 A 
BRANCH  33  36
ATOM     36  O   UNL     1      31.836  18.965  26.894  0.00  0.00    +0.000 OA
ATOM     37  H   UNL     1      31.712  19.768  26.366  0.00  0.00    +0.000 HD
ENDBRANCH  33  36
BRANCH  34  38
ATOM     38  O   UNL     1      33.957  14.723  26.679  0.00  0.00    +0.000 OA
ATOM     39  H   UNL     1      33.842  14.024  26.010  0.00  0.00    +0.000 HD
ENDBRANCH  34  38
BRANCH  35  40
ATOM     40  O   UNL     1      32.367  16.474  27.970  0.00  0.00    +0.000 OA
ATOM     41  H   UNL     1      31.671  17.135  28.148  0.00  0.00    +0.000 HD
ENDBRANCH  35  40
ENDBRANCH  29  30
ENDBRANCH  27  29
ENDBRANCH   2  27
TORSDOF 12
ENDMDL
MODEL 5
REMARK VINA RESULT:      -6.7     20.044     23.770
REMARK  Name = 
REMARK  12 active torsions:
REMARK  status: ('A' for Active; 'I' for Inactive)
REMARK    1  A    between atoms: O_2  and  C_12
REMARK    2  A    between atoms: O_2  and  C_24
REMARK    3  A    between atoms: O_3  and  C_18
REMARK    4  A    between atoms: O_4  and  C_23
REMARK    5  A    between atoms: O_5  and  C_25
REMARK    6  A    between atoms: O_6  and  C_26
REMARK    7  A    between atoms: O_8  and  C_27
REMARK    8  A    between atoms: O_9  and  C_31
REMARK    9  A    between atoms: O_10  and  C_32
REMARK   10  A    between atoms: O_11  and  C_33
REMARK   11  A    between atoms: C_13  and  C_16
REMARK   12  A    between atoms: C_24  and  C_28
REMARK                            x       y       z     vdW  Elec       q    Type
REMARK                         _______ _______ _______ _____ _____    ______ ____
ROOT
ATOM      1  O   UNL     1      36.139  14.929  20.542  0.00  0.00    +0.000 OA
ATOM      2  C   UNL     1      34.246  16.492  20.828  0.00  0.00    +0.000 C 
ATOM      3  C   UNL     1      35.434  16.040  19.961  0.00  0.00    +0.000 C 
ATOM      4  C   UNL     1      33.251  15.336  20.922  0.00  0.00    +0.000 C 
ATOM      5  C   UNL     1      33.955  14.023  21.157  0.00  0.00    +0.000 A 
ATOM      6  C   UNL     1      35.335  13.899  20.951  0.00  0.00    +0.000 A 
ATOM      7  C   UNL     1      33.236  12.893  21.566  0.00  0.00    +0.000 A 
ATOM      8  C   UNL     1      35.986  12.687  21.192  0.00  0.00    +0.000 A 
ATOM      9  C   UNL     1      33.874  11.676  21.798  0.00  0.00    +0.000 A 
ATOM     10  C   UNL     1      35.248  11.586  21.612  0.00  0.00    +0.000 A 
ENDROOT
BRANCH   3  11
ATOM     11  C   UNL     1      36.418  17.177  19.720  0.00  0.00    +0.000 A 
ATOM     12  C   UNL     1      37.803  16.923  19.757  0.00  0.00    +0.000 A 
ATOM     13  C   UNL     1      35.970  18.478  19.425  0.00  0.00    +0.000 A 
ATOM     14  C   UNL     1      36.892  19.490  19.180  0.00  0.00    +0.000 A 
ATOM     15  C   UNL     1      38.717  17.950  19.512  0.00  0.00    +0.000 A 
ATOM     16  C   UNL     1      38.260  19.231  19.223  0.00  0.00    +0.000 A 
BRANCH  14  17
ATOM     17  O   UNL     1      36.495  20.767  18.884  0.00  0.00    +0.000 OA
ATOM     18  H   UNL     1      35.976  21.108  19.633  0.00  0.00    +0.000 HD
ENDBRANCH  14  17
BRANCH  15  19
ATOM     19  O   UNL     1      40.060  17.708  19.549  0.00  0.00    +0.000 OA
ATOM     20  H   UNL     1      40.486  18.328  20.159  0.00  0.00    +0.000 HD
ENDBRANCH  15  19
BRANCH  16  21
ATOM     21  O   UNL     1      39.138  20.251  18.976  0.00  0.00    +0.000 OA
ATOM     22  H   UNL     1      40.021  19.841  19.051  0.00  0.00    +0.000 HD
ENDBRANCH  16  21
ENDBRANCH   3  11
BRANCH   7  23
ATOM     23  O   UNL     1      31.885  13.004  21.738  0.00  0.00    +0.000 OA
ATOM     24  H   UNL     1      31.640  13.943  21.699  0.00  0.00    +0.000 HD
ENDBRANCH   7  23
BRANCH  10  25
ATOM     25  O   UNL     1      35.841  10.382  21.851  0.00  0.00    +0.000 OA
ATOM     26  H   UNL     1      36.693  10.353  21.383  0.00  0.00    +0.000 HD
ENDBRANCH  10  25
BRANCH   2  27
ATOM     27  O   UNL     1      34.713  16.820  22.160  0.00  0.00    +0.000 OA
BRANCH  27  29
ATOM     28  O   UNL     1      33.719  18.888  22.240  0.00  0.00    +0.000 OA
ATOM     29  C   UNL     1      34.105  17.860  22.772  0.00  0.00    +0.000 C 
BRANCH  29  30
ATOM     30  C   UNL     1      33.998  17.594  24.229  0.00  0.00    +0.000 A 
ATOM     31  C   UNL     1      33.809  18.690  25.086  0.00  0.00    +0.000 A 
ATOM     32  C   UNL     1      34.073  16.291  24.750  0.00  0.00    +0.000 A 
ATOM     33  C   UNL     1      33.974  16.091  26.126  0.00  0.00    +0.000 A 
ATOM     34  C   UNL     1      33.715  18.471  26.455  0.00  0.00    +0.000 A 
ATOM     35  C   UNL     1      33.801  17.180  26.975  0.00  0.00    +0.000 A 
BRANCH  33  36
ATOM     36  O   UNL     1      34.047  14.831  26.650  0.00  0.00    +0.000 OA
ATOM     37  H   UNL     1      34.663  14.297  26.128  0.00  0.00    +0.000 HD
ENDBRANCH  33  36
BRANCH  34  38
ATOM     38  O   UNL     1      33.536  19.502  27.337  0.00  0.00    +0.000 OA
ATOM     39  H   UNL     1      33.737  20.339  26.882  0.00  0.00    +0.000 HD
ENDBRANCH  34  38
BRANCH  35  40
ATOM     40  O   UNL     1      33.704  17.002  28.328  0.00  0.00    +0.000 OA
ATOM     41  H   UNL     1      33.927  16.063  28.477  0.00  0.00    +0.000 HD
ENDBRANCH  35  40
ENDBRANCH  29  30
ENDBRANCH  27  29
ENDBRANCH   2  27
TORSDOF 12
ENDMDL
MODEL 6
REMARK VINA RESULT:      -6.7     20.074     23.781
REMARK  Name = 
REMARK  12 active torsions:
REMARK  status: ('A' for Active; 'I' for Inactive)
REMARK    1  A    between atoms: O_2  and  C_12
REMARK    2  A    between atoms: O_2  and  C_24
REMARK    3  A    between atoms: O_3  and  C_18
REMARK    4  A    between atoms: O_4  and  C_23
REMARK    5  A    between atoms: O_5  and  C_25
REMARK    6  A    between atoms: O_6  and  C_26
REMARK    7  A    between atoms: O_8  and  C_27
REMARK    8  A    between atoms: O_9  and  C_31
REMARK    9  A    between atoms: O_10  and  C_32
REMARK   10  A    between atoms: O_11  and  C_33
REMARK   11  A    between atoms: C_13  and  C_16
REMARK   12  A    between atoms: C_24  and  C_28
REMARK                            x       y       z     vdW  Elec       q    Type
REMARK                         _______ _______ _______ _____ _____    ______ ____
ROOT
ATOM      1  O   UNL     1      36.083  14.914  20.519  0.00  0.00    +0.000 OA
ATOM      2  C   UNL     1      34.181  16.472  20.770  0.00  0.00    +0.000 C 
ATOM      3  C   UNL     1      35.385  16.021  19.924  0.00  0.00    +0.000 C 
ATOM      4  C   UNL     1      33.188  15.313  20.851  0.00  0.00    +0.000 C 
ATOM      5  C   UNL     1      33.892  14.003  21.101  0.00  0.00    +0.000 A 
ATOM      6  C   UNL     1      35.276  13.882  20.917  0.00  0.00    +0.000 A 
ATOM      7  C   UNL     1      33.170  12.871  21.500  0.00  0.00    +0.000 A 
ATOM      8  C   UNL     1      35.927  12.673  21.171  0.00  0.00    +0.000 A 
ATOM      9  C   UNL     1      33.808  11.657  21.745  0.00  0.00    +0.000 A 
ATOM     10  C   UNL     1      35.185  11.570  21.582  0.00  0.00    +0.000 A 
ENDROOT
BRANCH   3  11
ATOM     11  C   UNL     1      36.369  17.161  19.697  0.00  0.00    +0.000 A 
ATOM     12  C   UNL     1      37.754  16.910  19.750  0.00  0.00    +0.000 A 
ATOM     13  C   UNL     1      35.921  18.461  19.397  0.00  0.00    +0.000 A 
ATOM     14  C   UNL     1      36.844  19.476  19.164  0.00  0.00    +0.000 A 
ATOM     15  C   UNL     1      38.668  17.940  19.517  0.00  0.00    +0.000 A 
ATOM     16  C   UNL     1      38.212  19.220  19.225  0.00  0.00    +0.000 A 
BRANCH  14  17
ATOM     17  O   UNL     1      36.448  20.752  18.865  0.00  0.00    +0.000 OA
ATOM     18  H   UNL     1      36.239  21.211  19.697  0.00  0.00    +0.000 HD
ENDBRANCH  14  17
BRANCH  15  19
ATOM     19  O   UNL     1      40.012  17.700  19.572  0.00  0.00    +0.000 OA
ATOM     20  H   UNL     1      40.470  18.271  18.937  0.00  0.00    +0.000 HD
ENDBRANCH  15  19
BRANCH  16  21
ATOM     21  O   UNL     1      39.090  20.242  18.990  0.00  0.00    +0.000 OA
ATOM     22  H   UNL     1      38.618  21.046  19.278  0.00  0.00    +0.000 HD
ENDBRANCH  16  21
ENDBRANCH   3  11
BRANCH   7  23
ATOM     23  O   UNL     1      31.816  12.978  21.650  0.00  0.00    +0.000 OA
ATOM     24  H   UNL     1      31.562  12.579  22.498  0.00  0.00    +0.000 HD
ENDBRANCH   7  23
BRANCH  10  25
ATOM     25  O   UNL     1      35.778  10.369  21.833  0.00  0.00    +0.000 OA
ATOM     26  H   UNL     1      35.092   9.681  21.872  0.00  0.00    +0.000 HD
ENDBRANCH  10  25
BRANCH   2  27
ATOM     27  O   UNL     1      34.625  16.805  22.110  0.00  0.00    +0.000 OA
BRANCH  27  29
ATOM     28  O   UNL     1      33.108  17.126  23.802  0.00  0.00    +0.000 OA
ATOM     29  C   UNL     1      33.772  17.533  22.863  0.00  0.00    +0.000 C 
BRANCH  29  30
ATOM     30  C   UNL     1      33.721  18.928  22.358  0.00  0.00    +0.000 A 
ATOM     31  C   UNL     1      34.903  19.685  22.394  0.00  0.00    +0.000 A 
ATOM     32  C   UNL     1      32.537  19.487  21.846  0.00  0.00    +0.000 A 
ATOM     33  C   UNL     1      32.537  20.803  21.388  0.00  0.00    +0.000 A 
ATOM     34  C   UNL     1      34.883  20.996  21.935  0.00  0.00    +0.000 A 
ATOM     35  C   UNL     1      33.706  21.556  21.438  0.00  0.00    +0.000 A 
BRANCH  33  36
ATOM     36  O   UNL     1      31.394  21.362  20.890  0.00  0.00    +0.000 OA
ATOM     37  H   UNL     1      30.640  20.784  21.076  0.00  0.00    +0.000 HD
ENDBRANCH  33  36
BRANCH  34  38
ATOM     38  O   UNL     1      36.003  21.781  21.952  0.00  0.00    +0.000 OA
ATOM     39  H   UNL     1      36.540  21.540  22.728  0.00  0.00    +0.000 HD
ENDBRANCH  34  38
BRANCH  35  40
ATOM     40  O   UNL     1      33.723  22.851  20.995  0.00  0.00    +0.000 OA
ATOM     41  H   UNL     1      33.444  23.385  21.764  0.00  0.00    +0.000 HD
ENDBRANCH  35  40
ENDBRANCH  29  30
ENDBRANCH  27  29
ENDBRANCH   2  27
TORSDOF 12
ENDMDL
MODEL 7
REMARK VINA RESULT:      -6.7      2.203      6.533
REMARK  Name = 
REMARK  12 active torsions:
REMARK  status: ('A' for Active; 'I' for Inactive)
REMARK    1  A    between atoms: O_2  and  C_12
REMARK    2  A    between atoms: O_2  and  C_24
REMARK    3  A    between atoms: O_3  and  C_18
REMARK    4  A    between atoms: O_4  and  C_23
REMARK    5  A    between atoms: O_5  and  C_25
REMARK    6  A    between atoms: O_6  and  C_26
REMARK    7  A    between atoms: O_8  and  C_27
REMARK    8  A    between atoms: O_9  and  C_31
REMARK    9  A    between atoms: O_10  and  C_32
REMARK   10  A    between atoms: O_11  and  C_33
REMARK   11  A    between atoms: C_13  and  C_16
REMARK   12  A    between atoms: C_24  and  C_28
REMARK                            x       y       z     vdW  Elec       q    Type
REMARK                         _______ _______ _______ _____ _____    ______ ____
ROOT
ATOM      1  O   UNL     1      52.761   7.502   9.965  0.00  0.00    +0.000 OA
ATOM      2  C   UNL     1      50.610   6.343  10.335  0.00  0.00    +0.000 C 
ATOM      3  C   UNL     1      51.555   7.486  10.747  0.00  0.00    +0.000 C 
ATOM      4  C   UNL     1      50.193   6.563   8.881  0.00  0.00    +0.000 C 
ATOM      5  C   UNL     1      51.368   6.972   8.029  0.00  0.00    +0.000 A 
ATOM      6  C   UNL     1      52.562   7.416   8.613  0.00  0.00    +0.000 A 
ATOM      7  C   UNL     1      51.281   6.939   6.632  0.00  0.00    +0.000 A 
ATOM      8  C   UNL     1      53.655   7.772   7.820  0.00  0.00    +0.000 A 
ATOM      9  C   UNL     1      52.361   7.304   5.831  0.00  0.00    +0.000 A 
ATOM     10  C   UNL     1      53.543   7.714   6.435  0.00  0.00    +0.000 A 
ENDROOT
BRANCH   3  11
ATOM     11  C   UNL     1      51.924   7.404  12.222  0.00  0.00    +0.000 A 
ATOM     12  C   UNL     1      50.917   7.504  13.202  0.00  0.00    +0.000 A 
ATOM     13  C   UNL     1      53.255   7.194  12.630  0.00  0.00    +0.000 A 
ATOM     14  C   UNL     1      53.558   7.093  13.983  0.00  0.00    +0.000 A 
ATOM     15  C   UNL     1      51.237   7.404  14.558  0.00  0.00    +0.000 A 
ATOM     16  C   UNL     1      52.556   7.198  14.946  0.00  0.00    +0.000 A 
BRANCH  14  17
ATOM     17  O   UNL     1      54.839   6.884  14.419  0.00  0.00    +0.000 OA
ATOM     18  H   UNL     1      55.426   7.503  13.952  0.00  0.00    +0.000 HD
ENDBRANCH  14  17
BRANCH  15  19
ATOM     19  O   UNL     1      50.263   7.503  15.510  0.00  0.00    +0.000 OA
ATOM     20  H   UNL     1      49.493   7.959  15.141  0.00  0.00    +0.000 HD
ENDBRANCH  15  19
BRANCH  16  21
ATOM     21  O   UNL     1      52.891   7.094  16.268  0.00  0.00    +0.000 OA
ATOM     22  H   UNL     1      52.936   6.133  16.436  0.00  0.00    +0.000 HD
ENDBRANCH  16  21
ENDBRANCH   3  11
BRANCH   7  23
ATOM     23  O   UNL     1      50.107   6.536   6.059  0.00  0.00    +0.000 OA
ATOM     24  H   UNL     1      49.630   5.970   6.688  0.00  0.00    +0.000 HD
ENDBRANCH   7  23
BRANCH  10  25
ATOM     25  O   UNL     1      54.582   8.060   5.623  0.00  0.00    +0.000 OA
ATOM     26  H   UNL     1      54.275   8.056   4.700  0.00  0.00    +0.000 HD
ENDBRANCH  10  25
BRANCH   2  27
ATOM     27  O   UNL     1      51.306   5.075  10.438  0.00  0.00    +0.000 OA
BRANCH  27  29
ATOM     28  O   UNL     1      49.469   3.698  10.422  0.00  0.00    +0.000 OA
ATOM     29  C   UNL     1      50.570   4.016  10.841  0.00  0.00    +0.000 C 
BRANCH  29  30
ATOM     30  C   UNL     1      51.285   3.290  11.921  0.00  0.00    +0.000 A 
ATOM     31  C   UNL     1      50.931   1.953  12.161  0.00  0.00    +0.000 A 
ATOM     32  C   UNL     1      52.295   3.903  12.682  0.00  0.00    +0.000 A 
ATOM     33  C   UNL     1      52.934   3.183  13.689  0.00  0.00    +0.000 A 
ATOM     34  C   UNL     1      51.577   1.251  13.171  0.00  0.00    +0.000 A 
ATOM     35  C   UNL     1      52.571   1.862  13.936  0.00  0.00    +0.000 A 
BRANCH  33  36
ATOM     36  O   UNL     1      53.916   3.764  14.440  0.00  0.00    +0.000 OA
ATOM     37  H   UNL     1      54.751   3.292  14.307  0.00  0.00    +0.000 HD
ENDBRANCH  33  36
BRANCH  34  38
ATOM     38  O   UNL     1      51.268  -0.051  13.453  0.00  0.00    +0.000 OA
ATOM     39  H   UNL     1      51.698  -0.299  14.292  0.00  0.00    +0.000 HD
ENDBRANCH  34  38
BRANCH  35  40
ATOM     40  O   UNL     1      53.186   1.141  14.923  0.00  0.00    +0.000 OA
ATOM     41  H   UNL     1      54.125   1.406  14.882  0.00  0.00    +0.000 HD
ENDBRANCH  35  40
ENDBRANCH  29  30
ENDBRANCH  27  29
ENDBRANCH   2  27
TORSDOF 12
ENDMDL
MODEL 8
REMARK VINA RESULT:      -6.7      1.884      6.427
REMARK  Name = 
REMARK  12 active torsions:
REMARK  status: ('A' for Active; 'I' for Inactive)
REMARK    1  A    between atoms: O_2  and  C_12
REMARK    2  A    between atoms: O_2  and  C_24
REMARK    3  A    between atoms: O_3  and  C_18
REMARK    4  A    between atoms: O_4  and  C_23
REMARK    5  A    between atoms: O_5  and  C_25
REMARK    6  A    between atoms: O_6  and  C_26
REMARK    7  A    between atoms: O_8  and  C_27
REMARK    8  A    between atoms: O_9  and  C_31
REMARK    9  A    between atoms: O_10  and  C_32
REMARK   10  A    between atoms: O_11  and  C_33
REMARK   11  A    between atoms: C_13  and  C_16
REMARK   12  A    between atoms: C_24  and  C_28
REMARK                            x       y       z     vdW  Elec       q    Type
REMARK                         _______ _______ _______ _____ _____    ______ ____
ROOT
ATOM      1  O   UNL     1      50.876   3.311   8.222  0.00  0.00    +0.000 OA
ATOM      2  C   UNL     1      50.650   4.503  10.375  0.00  0.00    +0.000 C 
ATOM      3  C   UNL     1      50.526   4.560   8.842  0.00  0.00    +0.000 C 
ATOM      4  C   UNL     1      49.667   3.457  10.899  0.00  0.00    +0.000 C 
ATOM      5  C   UNL     1      49.687   2.210  10.051  0.00  0.00    +0.000 A 
ATOM      6  C   UNL     1      50.277   2.213   8.780  0.00  0.00    +0.000 A 
ATOM      7  C   UNL     1      49.095   1.027  10.509  0.00  0.00    +0.000 A 
ATOM      8  C   UNL     1      50.314   1.050   8.008  0.00  0.00    +0.000 A 
ATOM      9  C   UNL     1      49.115  -0.136   9.742  0.00  0.00    +0.000 A 
ATOM     10  C   UNL     1      49.730  -0.114   8.496  0.00  0.00    +0.000 A 
ENDROOT
BRANCH   3  11
ATOM     11  C   UNL     1      51.392   5.664   8.250  0.00  0.00    +0.000 A 
ATOM     12  C   UNL     1      50.898   6.982   8.186  0.00  0.00    +0.000 A 
ATOM     13  C   UNL     1      52.697   5.401   7.794  0.00  0.00    +0.000 A 
ATOM     14  C   UNL     1      53.476   6.436   7.286  0.00  0.00    +0.000 A 
ATOM     15  C   UNL     1      51.691   8.010   7.671  0.00  0.00    +0.000 A 
ATOM     16  C   UNL     1      52.978   7.735   7.222  0.00  0.00    +0.000 A 
BRANCH  14  17
ATOM     17  O   UNL     1      54.752   6.221   6.838  0.00  0.00    +0.000 OA
ATOM     18  H   UNL     1      54.762   5.394   6.327  0.00  0.00    +0.000 HD
ENDBRANCH  14  17
BRANCH  15  19
ATOM     19  O   UNL     1      51.214   9.287   7.605  0.00  0.00    +0.000 OA
ATOM     20  H   UNL     1      51.681   9.774   6.910  0.00  0.00    +0.000 HD
ENDBRANCH  15  19
BRANCH  16  21
ATOM     21  O   UNL     1      53.772   8.727   6.717  0.00  0.00    +0.000 OA
ATOM     22  H   UNL     1      54.440   8.887   7.411  0.00  0.00    +0.000 HD
ENDBRANCH  16  21
ENDBRANCH   3  11
BRANCH   7  23
ATOM     23  O   UNL     1      48.492   1.030  11.735  0.00  0.00    +0.000 OA
ATOM     24  H   UNL     1      48.619   0.160  12.149  0.00  0.00    +0.000 HD
ENDBRANCH   7  23
BRANCH  10  25
ATOM     25  O   UNL     1      49.736  -1.270   7.772  0.00  0.00    +0.000 OA
ATOM     26  H   UNL     1      48.906  -1.749   7.940  0.00  0.00    +0.000 HD
ENDBRANCH  10  25
BRANCH   2  27
ATOM     27  O   UNL     1      51.996   4.107  10.740  0.00  0.00    +0.000 OA
BRANCH  27  29
ATOM     28  O   UNL     1      52.321   3.131  12.792  0.00  0.00    +0.000 OA
ATOM     29  C   UNL     1      52.286   4.106  12.060  0.00  0.00    +0.000 C 
BRANCH  29  30
ATOM     30  C   UNL     1      52.527   5.497  12.522  0.00  0.00    +0.000 A 
ATOM     31  C   UNL     1      53.758   6.092  12.206  0.00  0.00    +0.000 A 
ATOM     32  C   UNL     1      51.559   6.213  13.248  0.00  0.00    +0.000 A 
ATOM     33  C   UNL     1      51.832   7.514  13.665  0.00  0.00    +0.000 A 
ATOM     34  C   UNL     1      54.014   7.389  12.633  0.00  0.00    +0.000 A 
ATOM     35  C   UNL     1      53.059   8.097  13.363  0.00  0.00    +0.000 A 
BRANCH  33  36
ATOM     36  O   UNL     1      50.904   8.224  14.373  0.00  0.00    +0.000 OA
ATOM     37  H   UNL     1      50.949   9.159  14.123  0.00  0.00    +0.000 HD
ENDBRANCH  33  36
BRANCH  34  38
ATOM     38  O   UNL     1      55.199   8.016  12.358  0.00  0.00    +0.000 OA
ATOM     39  H   UNL     1      55.861   7.731  13.012  0.00  0.00    +0.000 HD
ENDBRANCH  34  38
BRANCH  35  40
ATOM     40  O   UNL     1      53.346   9.372  13.767  0.00  0.00    +0.000 OA
ATOM     41  H   UNL     1      54.289   9.352  14.021  0.00  0.00    +0.000 HD
ENDBRANCH  35  40
ENDBRANCH  29  30
ENDBRANCH  27  29
ENDBRANCH   2  27
TORSDOF 12
ENDMDL
MODEL 9
REMARK VINA RESULT:      -6.6      4.971      8.796
REMARK  Name = 
REMARK  12 active torsions:
REMARK  status: ('A' for Active; 'I' for Inactive)
REMARK    1  A    between atoms: O_2  and  C_12
REMARK    2  A    between atoms: O_2  and  C_24
REMARK    3  A    between atoms: O_3  and  C_18
REMARK    4  A    between atoms: O_4  and  C_23
REMARK    5  A    between atoms: O_5  and  C_25
REMARK    6  A    between atoms: O_6  and  C_26
REMARK    7  A    between atoms: O_8  and  C_27
REMARK    8  A    between atoms: O_9  and  C_31
REMARK    9  A    between atoms: O_10  and  C_32
REMARK   10  A    between atoms: O_11  and  C_33
REMARK   11  A    between atoms: C_13  and  C_16
REMARK   12  A    between atoms: C_24  and  C_28
REMARK                            x       y       z     vdW  Elec       q    Type
REMARK                         _______ _______ _______ _____ _____    ______ ____
ROOT
ATOM      1  O   UNL     1      51.095  -0.620   8.677  0.00  0.00    +0.000 OA
ATOM      2  C   UNL     1      50.035   0.355   6.669  0.00  0.00    +0.000 C 
ATOM      3  C   UNL     1      50.317  -0.907   7.502  0.00  0.00    +0.000 C 
ATOM      4  C   UNL     1      49.212   1.321   7.521  0.00  0.00    +0.000 C 
ATOM      5  C   UNL     1      49.743   1.399   8.930  0.00  0.00    +0.000 A 
ATOM      6  C   UNL     1      50.635   0.435   9.419  0.00  0.00    +0.000 A 
ATOM      7  C   UNL     1      49.335   2.427   9.789  0.00  0.00    +0.000 A 
ATOM      8  C   UNL     1      51.141   0.524  10.717  0.00  0.00    +0.000 A 
ATOM      9  C   UNL     1      49.825   2.518  11.091  0.00  0.00    +0.000 A 
ATOM     10  C   UNL     1      50.729   1.565  11.542  0.00  0.00    +0.000 A 
ENDROOT
BRANCH   3  11
ATOM     11  C   UNL     1      51.034  -1.972   6.683  0.00  0.00    +0.000 A 
ATOM     12  C   UNL     1      50.414  -2.510   5.538  0.00  0.00    +0.000 A 
ATOM     13  C   UNL     1      52.328  -2.407   7.027  0.00  0.00    +0.000 A 
ATOM     14  C   UNL     1      52.971  -3.359   6.243  0.00  0.00    +0.000 A 
ATOM     15  C   UNL     1      51.071  -3.467   4.762  0.00  0.00    +0.000 A 
ATOM     16  C   UNL     1      52.347  -3.890   5.116  0.00  0.00    +0.000 A 
BRANCH  14  17
ATOM     17  O   UNL     1      54.231  -3.804   6.542  0.00  0.00    +0.000 OA
ATOM     18  H   UNL     1      54.302  -3.896   7.507  0.00  0.00    +0.000 HD
ENDBRANCH  14  17
BRANCH  15  19
ATOM     19  O   UNL     1      50.471  -3.992   3.654  0.00  0.00    +0.000 OA
ATOM     20  H   UNL     1      49.543  -4.192   3.850  0.00  0.00    +0.000 HD
ENDBRANCH  15  19
BRANCH  16  21
ATOM     21  O   UNL     1      53.010  -4.823   4.367  0.00  0.00    +0.000 OA
ATOM     22  H   UNL     1      52.395  -5.580   4.314  0.00  0.00    +0.000 HD
ENDBRANCH  16  21
ENDBRANCH   3  11
BRANCH   7  23
ATOM     23  O   UNL     1      48.441   3.350   9.326  0.00  0.00    +0.000 OA
ATOM     24  H   UNL     1      48.478   3.363   8.355  0.00  0.00    +0.000 HD
ENDBRANCH   7  23
BRANCH  10  25
ATOM     25  O   UNL     1      51.192   1.685  12.819  0.00  0.00    +0.000 OA
ATOM     26  H   UNL     1      50.797   0.983  13.363  0.00  0.00    +0.000 HD
ENDBRANCH  10  25
BRANCH   2  27
ATOM     27  O   UNL     1      51.287   0.993   6.312  0.00  0.00    +0.000 OA
BRANCH  27  29
ATOM     28  O   UNL     1      51.144   3.142   5.519  0.00  0.00    +0.000 OA
ATOM     29  C   UNL     1      51.228   1.937   5.347  0.00  0.00    +0.000 C 
BRANCH  29  30
ATOM     30  C   UNL     1      51.242   1.292   4.011  0.00  0.00    +0.000 A 
ATOM     31  C   UNL     1      50.310   0.271   3.763  0.00  0.00    +0.000 A 
ATOM     32  C   UNL     1      52.147   1.684   3.009  0.00  0.00    +0.000 A 
ATOM     33  C   UNL     1      52.125   1.045   1.770  0.00  0.00    +0.000 A 
ATOM     34  C   UNL     1      50.306  -0.356   2.523  0.00  0.00    +0.000 A 
ATOM     35  C   UNL     1      51.210   0.024   1.532  0.00  0.00    +0.000 A 
BRANCH  33  36
ATOM     36  O   UNL     1      52.999   1.412   0.786  0.00  0.00    +0.000 OA
ATOM     37  H   UNL     1      53.226   2.348   0.885  0.00  0.00    +0.000 HD
ENDBRANCH  33  36
BRANCH  34  38
ATOM     38  O   UNL     1      49.424  -1.360   2.229  0.00  0.00    +0.000 OA
ATOM     39  H   UNL     1      49.809  -1.918   1.530  0.00  0.00    +0.000 HD
ENDBRANCH  34  38
BRANCH  35  40
ATOM     40  O   UNL     1      51.177  -0.617   0.323  0.00  0.00    +0.000 OA
ATOM     41  H   UNL     1      50.288  -0.433  -0.036  0.00  0.00    +0.000 HD
ENDBRANCH  35  40
ENDBRANCH  29  30
ENDBRANCH  27  29
ENDBRANCH   2  27
TORSDOF 12
ENDMDL
