MODEL 1
REMARK VINA RESULT:      -6.2      0.000      0.000
REMARK  Name = Estradiol.pdbqt.pdb
REMARK  2 active torsions:
REMARK  status: ('A' for Active; 'I' for Inactive)
REMARK    1  A    between atoms: C_5  and  O_19
REMARK    2  A    between atoms: C_18  and  O_21
REMARK                            x       y       z     vdW  Elec       q    Type
REMARK                         _______ _______ _______ _____ _____    ______ ____
ROOT
ATOM      1  C   UNL     1      34.935  20.117  20.852  0.00  0.00    +0.000 C 
ATOM      2  C   UNL     1      36.200  19.197  20.489  0.00  0.00    +0.000 C 
ATOM      3  C   UNL     1      36.135  17.730  20.578  0.00  0.00    +0.000 A 
ATOM      4  C   UNL     1      34.885  16.897  20.760  0.00  0.00    +0.000 A 
ATOM      5  C   UNL     1      34.930  21.154  19.709  0.00  0.00    +0.000 C 
ATOM      6  C   UNL     1      33.774  19.225  20.851  0.00  0.00    +0.000 C 
ATOM      7  C   UNL     1      36.863  19.820  19.382  0.00  0.00    +0.000 C 
ATOM      8  C   UNL     1      33.730  17.716  20.838  0.00  0.00    +0.000 C 
ATOM      9  C   UNL     1      36.073  21.001  18.880  0.00  0.00    +0.000 C 
ATOM     10  C   UNL     1      37.288  16.913  20.449  0.00  0.00    +0.000 A 
ATOM     11  C   UNL     1      35.196  20.808  22.216  0.00  0.00    +0.000 C 
ATOM     12  C   UNL     1      34.871  15.398  20.842  0.00  0.00    +0.000 A 
ATOM     13  C   UNL     1      37.269  15.406  20.520  0.00  0.00    +0.000 A 
ATOM     14  C   UNL     1      36.080  14.647  20.721  0.00  0.00    +0.000 A 
ATOM     15  C   UNL     1      33.678  14.704  21.044  0.00  0.00    +0.000 A 
ATOM     16  C   UNL     1      36.090  13.261  20.804  0.00  0.00    +0.000 A 
ATOM     17  C   UNL     1      33.682  13.311  21.128  0.00  0.00    +0.000 A 
ATOM     18  C   UNL     1      34.881  12.607  21.008  0.00  0.00    +0.000 A 
ENDROOT
BRANCH   5  19
ATOM     19  O   UNL     1      33.784  21.787  19.279  0.00  0.00    +0.000 OA
ATOM     20  H   UNL     1      33.476  21.433  18.425  0.00  0.00    +0.000 HD
ENDBRANCH   5  19
BRANCH  18  21
ATOM     21  O   UNL     1      34.893  11.244  21.094  0.00  0.00    +0.000 OA
ATOM     22  H   UNL     1      35.164  10.884  20.231  0.00  0.00    +0.000 HD
ENDBRANCH  18  21
TORSDOF 2
ENDMDL
MODEL 2
REMARK VINA RESULT:      -6.1     18.998     22.115
REMARK  Name = Estradiol.pdbqt.pdb
REMARK  2 active torsions:
REMARK  status: ('A' for Active; 'I' for Inactive)
REMARK    1  A    between atoms: C_5  and  O_19
REMARK    2  A    between atoms: C_18  and  O_21
REMARK                            x       y       z     vdW  Elec       q    Type
REMARK                         _______ _______ _______ _____ _____    ______ ____
ROOT
ATOM      1  C   UNL     1      44.709  -3.335  18.748  0.00  0.00    +0.000 C 
ATOM      2  C   UNL     1      44.906  -3.660  17.187  0.00  0.00    +0.000 C 
ATOM      3  C   UNL     1      44.067  -3.026  16.158  0.00  0.00    +0.000 A 
ATOM      4  C   UNL     1      43.127  -1.858  16.361  0.00  0.00    +0.000 A 
ATOM      5  C   UNL     1      46.160  -3.166  19.245  0.00  0.00    +0.000 C 
ATOM      6  C   UNL     1      43.914  -2.107  18.807  0.00  0.00    +0.000 C 
ATOM      7  C   UNL     1      46.313  -3.816  16.969  0.00  0.00    +0.000 C 
ATOM      8  C   UNL     1      43.142  -1.416  17.708  0.00  0.00    +0.000 C 
ATOM      9  C   UNL     1      47.089  -3.484  18.219  0.00  0.00    +0.000 C 
ATOM     10  C   UNL     1      44.094  -3.441  14.802  0.00  0.00    +0.000 A 
ATOM     11  C   UNL     1      44.035  -4.554  19.430  0.00  0.00    +0.000 C 
ATOM     12  C   UNL     1      42.293  -1.244  15.275  0.00  0.00    +0.000 A 
ATOM     13  C   UNL     1      43.263  -2.813  13.709  0.00  0.00    +0.000 A 
ATOM     14  C   UNL     1      42.363  -1.731  13.934  0.00  0.00    +0.000 A 
ATOM     15  C   UNL     1      41.424  -0.188  15.550  0.00  0.00    +0.000 A 
ATOM     16  C   UNL     1      41.593  -1.184  12.917  0.00  0.00    +0.000 A 
ATOM     17  C   UNL     1      40.647   0.367  14.532  0.00  0.00    +0.000 A 
ATOM     18  C   UNL     1      40.738  -0.134  13.232  0.00  0.00    +0.000 A 
ENDROOT
BRANCH   5  19
ATOM     19  O   UNL     1      46.493  -2.378  20.326  0.00  0.00    +0.000 OA
ATOM     20  H   UNL     1      45.946  -2.584  21.105  0.00  0.00    +0.000 HD
ENDBRANCH   5  19
BRANCH  18  21
ATOM     21  O   UNL     1      39.977   0.400  12.232  0.00  0.00    +0.000 OA
ATOM     22  H   UNL     1      39.813  -0.293  11.568  0.00  0.00    +0.000 HD
ENDBRANCH  18  21
TORSDOF 2
ENDMDL
MODEL 3
REMARK VINA RESULT:      -6.1     18.887     23.314
REMARK  Name = Estradiol.pdbqt.pdb
REMARK  2 active torsions:
REMARK  status: ('A' for Active; 'I' for Inactive)
REMARK    1  A    between atoms: C_5  and  O_19
REMARK    2  A    between atoms: C_18  and  O_21
REMARK                            x       y       z     vdW  Elec       q    Type
REMARK                         _______ _______ _______ _____ _____    ______ ____
ROOT
ATOM      1  C   UNL     1      42.982  -6.093  15.586  0.00  0.00    +0.000 C 
ATOM      2  C   UNL     1      42.988  -5.410  14.132  0.00  0.00    +0.000 C 
ATOM      3  C   UNL     1      42.366  -4.098  13.897  0.00  0.00    +0.000 A 
ATOM      4  C   UNL     1      41.883  -3.131  14.956  0.00  0.00    +0.000 A 
ATOM      5  C   UNL     1      44.426  -6.620  15.719  0.00  0.00    +0.000 C 
ATOM      6  C   UNL     1      42.649  -5.027  16.531  0.00  0.00    +0.000 C 
ATOM      7  C   UNL     1      44.250  -5.723  13.531  0.00  0.00    +0.000 C 
ATOM      8  C   UNL     1      42.106  -3.644  16.259  0.00  0.00    +0.000 C 
ATOM      9  C   UNL     1      45.147  -6.437  14.509  0.00  0.00    +0.000 C 
ATOM     10  C   UNL     1      42.191  -3.568  12.593  0.00  0.00    +0.000 A 
ATOM     11  C   UNL     1      41.969  -7.268  15.580  0.00  0.00    +0.000 C 
ATOM     12  C   UNL     1      41.255  -1.799  14.663  0.00  0.00    +0.000 A 
ATOM     13  C   UNL     1      41.571  -2.223  12.302  0.00  0.00    +0.000 A 
ATOM     14  C   UNL     1      41.098  -1.343  13.319  0.00  0.00    +0.000 A 
ATOM     15  C   UNL     1      40.805  -0.978  15.697  0.00  0.00    +0.000 A 
ATOM     16  C   UNL     1      40.512  -0.119  13.026  0.00  0.00    +0.000 A 
ATOM     17  C   UNL     1      40.215   0.254  15.410  0.00  0.00    +0.000 A 
ATOM     18  C   UNL     1      40.074   0.669  14.084  0.00  0.00    +0.000 A 
ENDROOT
BRANCH   5  19
ATOM     19  O   UNL     1      45.053  -6.785  16.936  0.00  0.00    +0.000 OA
ATOM     20  H   UNL     1      46.020  -6.701  16.857  0.00  0.00    +0.000 HD
ENDBRANCH   5  19
BRANCH  18  21
ATOM     21  O   UNL     1      39.493   1.870  13.795  0.00  0.00    +0.000 OA
ATOM     22  H   UNL     1      38.549   1.718  13.610  0.00  0.00    +0.000 HD
ENDBRANCH  18  21
TORSDOF 2
ENDMDL
MODEL 4
REMARK VINA RESULT:      -6.0     24.773     27.614
REMARK  Name = Estradiol.pdbqt.pdb
REMARK  2 active torsions:
REMARK  status: ('A' for Active; 'I' for Inactive)
REMARK    1  A    between atoms: C_5  and  O_19
REMARK    2  A    between atoms: C_18  and  O_21
REMARK                            x       y       z     vdW  Elec       q    Type
REMARK                         _______ _______ _______ _____ _____    ______ ____
ROOT
ATOM      1  C   UNL     1      51.113  -0.770   3.194  0.00  0.00    +0.000 C 
ATOM      2  C   UNL     1      51.554   0.621   3.863  0.00  0.00    +0.000 C 
ATOM      3  C   UNL     1      51.115   0.998   5.216  0.00  0.00    +0.000 A 
ATOM      4  C   UNL     1      50.441   0.092   6.224  0.00  0.00    +0.000 A 
ATOM      5  C   UNL     1      52.426  -1.275   2.562  0.00  0.00    +0.000 C 
ATOM      6  C   UNL     1      50.620  -1.606   4.290  0.00  0.00    +0.000 C 
ATOM      7  C   UNL     1      52.904   0.871   3.452  0.00  0.00    +0.000 C 
ATOM      8  C   UNL     1      50.272  -1.216   5.706  0.00  0.00    +0.000 C 
ATOM      9  C   UNL     1      53.454  -0.302   2.681  0.00  0.00    +0.000 C 
ATOM     10  C   UNL     1      51.332   2.295   5.747  0.00  0.00    +0.000 A 
ATOM     11  C   UNL     1      50.054  -0.482   2.098  0.00  0.00    +0.000 C 
ATOM     12  C   UNL     1      50.014   0.525   7.597  0.00  0.00    +0.000 A 
ATOM     13  C   UNL     1      50.912   2.723   7.131  0.00  0.00    +0.000 A 
ATOM     14  C   UNL     1      50.253   1.858   8.052  0.00  0.00    +0.000 A 
ATOM     15  C   UNL     1      49.368  -0.362   8.458  0.00  0.00    +0.000 A 
ATOM     16  C   UNL     1      49.857   2.281   9.314  0.00  0.00    +0.000 A 
ATOM     17  C   UNL     1      48.967   0.057   9.727  0.00  0.00    +0.000 A 
ATOM     18  C   UNL     1      49.213   1.367  10.140  0.00  0.00    +0.000 A 
ENDROOT
BRANCH   5  19
ATOM     19  O   UNL     1      52.694  -2.612   2.361  0.00  0.00    +0.000 OA
ATOM     20  H   UNL     1      52.536  -3.136   3.167  0.00  0.00    +0.000 HD
ENDBRANCH   5  19
BRANCH  18  21
ATOM     21  O   UNL     1      48.820   1.785  11.380  0.00  0.00    +0.000 OA
ATOM     22  H   UNL     1      48.845   2.758  11.397  0.00  0.00    +0.000 HD
ENDBRANCH  18  21
TORSDOF 2
ENDMDL
MODEL 5
REMARK VINA RESULT:      -6.0      2.886      7.856
REMARK  Name = Estradiol.pdbqt.pdb
REMARK  2 active torsions:
REMARK  status: ('A' for Active; 'I' for Inactive)
REMARK    1  A    between atoms: C_5  and  O_19
REMARK    2  A    between atoms: C_18  and  O_21
REMARK                            x       y       z     vdW  Elec       q    Type
REMARK                         _______ _______ _______ _____ _____    ______ ____
ROOT
ATOM      1  C   UNL     1      33.365  10.463  23.279  0.00  0.00    +0.000 C 
ATOM      2  C   UNL     1      34.576  10.736  22.260  0.00  0.00    +0.000 C 
ATOM      3  C   UNL     1      34.989  12.102  21.905  0.00  0.00    +0.000 A 
ATOM      4  C   UNL     1      34.547  13.379  22.588  0.00  0.00    +0.000 A 
ATOM      5  C   UNL     1      33.924   9.340  24.178  0.00  0.00    +0.000 C 
ATOM      6  C   UNL     1      33.135  11.727  23.980  0.00  0.00    +0.000 C 
ATOM      7  C   UNL     1      35.564   9.730  22.510  0.00  0.00    +0.000 C 
ATOM      8  C   UNL     1      33.655  13.107  23.655  0.00  0.00    +0.000 C 
ATOM      9  C   UNL     1      35.186   8.892  23.705  0.00  0.00    +0.000 C 
ATOM     10  C   UNL     1      35.920  12.365  20.868  0.00  0.00    +0.000 A 
ATOM     11  C   UNL     1      32.139   9.959  22.474  0.00  0.00    +0.000 C 
ATOM     12  C   UNL     1      35.001  14.753  22.188  0.00  0.00    +0.000 A 
ATOM     13  C   UNL     1      36.384  13.746  20.477  0.00  0.00    +0.000 A 
ATOM     14  C   UNL     1      35.930  14.935  21.118  0.00  0.00    +0.000 A 
ATOM     15  C   UNL     1      34.522  15.885  22.848  0.00  0.00    +0.000 A 
ATOM     16  C   UNL     1      36.355  16.197  20.727  0.00  0.00    +0.000 A 
ATOM     17  C   UNL     1      34.945  17.156  22.460  0.00  0.00    +0.000 A 
ATOM     18  C   UNL     1      35.852  17.300  21.408  0.00  0.00    +0.000 A 
ENDROOT
BRANCH   5  19
ATOM     19  O   UNL     1      33.513   9.150  25.480  0.00  0.00    +0.000 OA
ATOM     20  H   UNL     1      32.705   8.608  25.527  0.00  0.00    +0.000 HD
ENDBRANCH   5  19
BRANCH  18  21
ATOM     21  O   UNL     1      36.267  18.542  21.019  0.00  0.00    +0.000 OA
ATOM     22  H   UNL     1      37.199  18.650  21.281  0.00  0.00    +0.000 HD
ENDBRANCH  18  21
TORSDOF 2
ENDMDL
MODEL 6
REMARK VINA RESULT:      -6.0     17.733     19.883
REMARK  Name = Estradiol.pdbqt.pdb
REMARK  2 active torsions:
REMARK  status: ('A' for Active; 'I' for Inactive)
REMARK    1  A    between atoms: C_5  and  O_19
REMARK    2  A    between atoms: C_18  and  O_21
REMARK                            x       y       z     vdW  Elec       q    Type
REMARK                         _______ _______ _______ _____ _____    ______ ____
ROOT
ATOM      1  C   UNL     1      54.825  16.290  13.955  0.00  0.00    +0.000 C 
ATOM      2  C   UNL     1      53.365  15.628  14.036  0.00  0.00    +0.000 C 
ATOM      3  C   UNL     1      52.276  16.056  13.144  0.00  0.00    +0.000 A 
ATOM      4  C   UNL     1      52.412  16.938  11.922  0.00  0.00    +0.000 A 
ATOM      5  C   UNL     1      55.759  15.065  14.046  0.00  0.00    +0.000 C 
ATOM      6  C   UNL     1      54.882  16.986  12.668  0.00  0.00    +0.000 C 
ATOM      7  C   UNL     1      53.554  14.237  14.321  0.00  0.00    +0.000 C 
ATOM      8  C   UNL     1      53.760  17.325  11.716  0.00  0.00    +0.000 C 
ATOM      9  C   UNL     1      55.018  13.880  14.297  0.00  0.00    +0.000 C 
ATOM     10  C   UNL     1      50.936  15.625  13.326  0.00  0.00    +0.000 A 
ATOM     11  C   UNL     1      55.021  17.220  15.181  0.00  0.00    +0.000 C 
ATOM     12  C   UNL     1      51.267  17.344  11.040  0.00  0.00    +0.000 A 
ATOM     13  C   UNL     1      49.790  16.025  12.431  0.00  0.00    +0.000 A 
ATOM     14  C   UNL     1      49.941  16.881  11.301  0.00  0.00    +0.000 A 
ATOM     15  C   UNL     1      51.469  18.188   9.948  0.00  0.00    +0.000 A 
ATOM     16  C   UNL     1      48.867  17.253  10.504  0.00  0.00    +0.000 A 
ATOM     17  C   UNL     1      50.394  18.566   9.143  0.00  0.00    +0.000 A 
ATOM     18  C   UNL     1      49.110  18.098   9.427  0.00  0.00    +0.000 A 
ENDROOT
BRANCH   5  19
ATOM     19  O   UNL     1      57.022  15.044  13.495  0.00  0.00    +0.000 OA
ATOM     20  H   UNL     1      57.573  15.775  13.830  0.00  0.00    +0.000 HD
ENDBRANCH   5  19
BRANCH  18  21
ATOM     21  O   UNL     1      48.052  18.467   8.646  0.00  0.00    +0.000 OA
ATOM     22  H   UNL     1      48.270  18.265   7.718  0.00  0.00    +0.000 HD
ENDBRANCH  18  21
TORSDOF 2
ENDMDL
MODEL 7
REMARK VINA RESULT:      -5.7      3.131      5.130
REMARK  Name = Estradiol.pdbqt.pdb
REMARK  2 active torsions:
REMARK  status: ('A' for Active; 'I' for Inactive)
REMARK    1  A    between atoms: C_5  and  O_19
REMARK    2  A    between atoms: C_18  and  O_21
REMARK                            x       y       z     vdW  Elec       q    Type
REMARK                         _______ _______ _______ _____ _____    ______ ____
ROOT
ATOM      1  C   UNL     1      31.887  20.955  18.652  0.00  0.00    +0.000 C 
ATOM      2  C   UNL     1      32.235  19.500  19.237  0.00  0.00    +0.000 C 
ATOM      3  C   UNL     1      33.619  19.007  19.297  0.00  0.00    +0.000 A 
ATOM      4  C   UNL     1      34.873  19.825  19.079  0.00  0.00    +0.000 A 
ATOM      5  C   UNL     1      30.863  21.495  19.673  0.00  0.00    +0.000 C 
ATOM      6  C   UNL     1      33.151  21.694  18.631  0.00  0.00    +0.000 C 
ATOM      7  C   UNL     1      31.342  19.267  20.332  0.00  0.00    +0.000 C 
ATOM      8  C   UNL     1      34.560  21.179  18.799  0.00  0.00    +0.000 C 
ATOM      9  C   UNL     1      30.521  20.498  20.624  0.00  0.00    +0.000 C 
ATOM     10  C   UNL     1      33.928  17.662  19.627  0.00  0.00    +0.000 A 
ATOM     11  C   UNL     1      31.232  20.789  17.256  0.00  0.00    +0.000 C 
ATOM     12  C   UNL     1      36.268  19.273  19.155  0.00  0.00    +0.000 A 
ATOM     13  C   UNL     1      35.331  17.114  19.715  0.00  0.00    +0.000 A 
ATOM     14  C   UNL     1      36.496  17.901  19.476  0.00  0.00    +0.000 A 
ATOM     15  C   UNL     1      37.373  20.087  18.908  0.00  0.00    +0.000 A 
ATOM     16  C   UNL     1      37.776  17.369  19.542  0.00  0.00    +0.000 A 
ATOM     17  C   UNL     1      38.663  19.559  18.973  0.00  0.00    +0.000 A 
ATOM     18  C   UNL     1      38.851  18.212  19.287  0.00  0.00    +0.000 A 
ENDROOT
BRANCH   5  19
ATOM     19  O   UNL     1      30.687  22.840  19.916  0.00  0.00    +0.000 OA
ATOM     20  H   UNL     1      31.081  23.107  20.766  0.00  0.00    +0.000 HD
ENDBRANCH   5  19
BRANCH  18  21
ATOM     21  O   UNL     1      40.111  17.687  19.347  0.00  0.00    +0.000 OA
ATOM     22  H   UNL     1      40.078  16.871  19.878  0.00  0.00    +0.000 HD
ENDBRANCH  18  21
TORSDOF 2
ENDMDL
MODEL 8
REMARK VINA RESULT:      -5.6     21.076     23.589
REMARK  Name = Estradiol.pdbqt.pdb
REMARK  2 active torsions:
REMARK  status: ('A' for Active; 'I' for Inactive)
REMARK    1  A    between atoms: C_5  and  O_19
REMARK    2  A    between atoms: C_18  and  O_21
REMARK                            x       y       z     vdW  Elec       q    Type
REMARK                         _______ _______ _______ _____ _____    ______ ____
ROOT
ATOM      1  C   UNL     1      50.213   1.144  10.839  0.00  0.00    +0.000 C 
ATOM      2  C   UNL     1      49.776   2.689  10.807  0.00  0.00    +0.000 C 
ATOM      3  C   UNL     1      50.493   3.707  11.590  0.00  0.00    +0.000 A 
ATOM      4  C   UNL     1      51.820   3.526  12.296  0.00  0.00    +0.000 A 
ATOM      5  C   UNL     1      50.146   0.742   9.351  0.00  0.00    +0.000 C 
ATOM      6  C   UNL     1      51.563   1.118  11.403  0.00  0.00    +0.000 C 
ATOM      7  C   UNL     1      49.360   2.977   9.467  0.00  0.00    +0.000 C 
ATOM      8  C   UNL     1      52.322   2.213  12.114  0.00  0.00    +0.000 C 
ATOM      9  C   UNL     1      49.615   1.797   8.563  0.00  0.00    +0.000 C 
ATOM     10  C   UNL     1      50.010   5.034  11.728  0.00  0.00    +0.000 A 
ATOM     11  C   UNL     1      49.171   0.348  11.668  0.00  0.00    +0.000 C 
ATOM     12  C   UNL     1      52.513   4.600  13.083  0.00  0.00    +0.000 A 
ATOM     13  C   UNL     1      50.716   6.115  12.508  0.00  0.00    +0.000 A 
ATOM     14  C   UNL     1      51.952   5.909  13.188  0.00  0.00    +0.000 A 
ATOM     15  C   UNL     1      53.721   4.344  13.733  0.00  0.00    +0.000 A 
ATOM     16  C   UNL     1      52.573   6.914  13.918  0.00  0.00    +0.000 A 
ATOM     17  C   UNL     1      54.350   5.349  14.468  0.00  0.00    +0.000 A 
ATOM     18  C   UNL     1      53.773   6.617  14.554  0.00  0.00    +0.000 A 
ENDROOT
BRANCH   5  19
ATOM     19  O   UNL     1      50.919  -0.265   8.813  0.00  0.00    +0.000 OA
ATOM     20  H   UNL     1      51.406  -0.753   9.502  0.00  0.00    +0.000 HD
ENDBRANCH   5  19
BRANCH  18  21
ATOM     21  O   UNL     1      54.381   7.605  15.275  0.00  0.00    +0.000 OA
ATOM     22  H   UNL     1      55.338   7.430  15.289  0.00  0.00    +0.000 HD
ENDBRANCH  18  21
TORSDOF 2
ENDMDL
MODEL 9
REMARK VINA RESULT:      -5.2     14.301     16.655
REMARK  Name = Estradiol.pdbqt.pdb
REMARK  2 active torsions:
REMARK  status: ('A' for Active; 'I' for Inactive)
REMARK    1  A    between atoms: C_5  and  O_19
REMARK    2  A    between atoms: C_18  and  O_21
REMARK                            x       y       z     vdW  Elec       q    Type
REMARK                         _______ _______ _______ _____ _____    ______ ____
ROOT
ATOM      1  C   UNL     1      51.414  17.873  13.467  0.00  0.00    +0.000 C 
ATOM      2  C   UNL     1      50.757  17.316  14.822  0.00  0.00    +0.000 C 
ATOM      3  C   UNL     1      50.229  18.226  15.851  0.00  0.00    +0.000 A 
ATOM      4  C   UNL     1      49.999  19.714  15.699  0.00  0.00    +0.000 A 
ATOM      5  C   UNL     1      50.802  16.952  12.390  0.00  0.00    +0.000 C 
ATOM      6  C   UNL     1      50.996  19.271  13.360  0.00  0.00    +0.000 C 
ATOM      7  C   UNL     1      50.034  16.128  14.477  0.00  0.00    +0.000 C 
ATOM      8  C   UNL     1      50.360  20.159  14.402  0.00  0.00    +0.000 C 
ATOM      9  C   UNL     1      50.032  15.917  12.985  0.00  0.00    +0.000 C 
ATOM     10  C   UNL     1      49.823  17.767  17.130  0.00  0.00    +0.000 A 
ATOM     11  C   UNL     1      52.951  17.679  13.542  0.00  0.00    +0.000 C 
ATOM     12  C   UNL     1      49.455  20.601  16.781  0.00  0.00    +0.000 A 
ATOM     13  C   UNL     1      49.264  18.659  18.211  0.00  0.00    +0.000 A 
ATOM     14  C   UNL     1      49.084  20.064  18.051  0.00  0.00    +0.000 A 
ATOM     15  C   UNL     1      49.302  21.972  16.573  0.00  0.00    +0.000 A 
ATOM     16  C   UNL     1      48.588  20.868  19.068  0.00  0.00    +0.000 A 
ATOM     17  C   UNL     1      48.803  22.786  17.591  0.00  0.00    +0.000 A 
ATOM     18  C   UNL     1      48.454  22.229  18.822  0.00  0.00    +0.000 A 
ENDROOT
BRANCH   5  19
ATOM     19  O   UNL     1      50.624  17.347  11.081  0.00  0.00    +0.000 OA
ATOM     20  H   UNL     1      51.401  17.136  10.532  0.00  0.00    +0.000 HD
ENDBRANCH   5  19
BRANCH  18  21
ATOM     21  O   UNL     1      47.970  23.020  19.825  0.00  0.00    +0.000 OA
ATOM     22  H   UNL     1      47.079  23.324  19.574  0.00  0.00    +0.000 HD
ENDBRANCH  18  21
TORSDOF 2
ENDMDL
