MODEL 1
REMARK VINA RESULT:      -7.1      0.000      0.000
REMARK  Name = 
REMARK  11 active torsions:
REMARK  status: ('A' for Active; 'I' for Inactive)
REMARK    1  A    between atoms: O_1  and  C_16
REMARK    2  A    between atoms: O_1  and  C_22
REMARK    3  A    between atoms: O_6  and  C_24
REMARK    4  A    between atoms: O_8  and  C_26
REMARK    5  A    between atoms: O_11  and  C_36
REMARK    6  A    between atoms: O_11  and  C_41
REMARK    7  A    between atoms: O_12  and  C_37
REMARK    8  A    between atoms: O_12  and  C_42
REMARK    9  A    between atoms: O_13  and  C_39
REMARK   10  A    between atoms: C_17  and  C_23
REMARK   11  A    between atoms: C_35  and  C_40
REMARK                            x       y       z     vdW  Elec       q    Type
REMARK                         _______ _______ _______ _____ _____    ______ ____
ROOT
ATOM      1  O   UNL     1      50.151  -3.126   5.775  0.00  0.00    +0.000 OA
ATOM      2  O   UNL     1      49.455  -3.011   3.594  0.00  0.00    +0.000 OA
ATOM      3  O   UNL     1      53.307   4.623   4.908  0.00  0.00    +0.000 OA
ATOM      4  O   UNL     1      52.879   4.149   2.582  0.00  0.00    +0.000 OA
ATOM      5  C   UNL     1      51.376  -1.162   5.884  0.00  0.00    +0.000 C 
ATOM      6  C   UNL     1      50.454  -1.079   4.683  0.00  0.00    +0.000 C 
ATOM      7  C   UNL     1      51.626   0.226   6.458  0.00  0.00    +0.000 C 
ATOM      8  C   UNL     1      51.160  -0.418   3.500  0.00  0.00    +0.000 C 
ATOM      9  C   UNL     1      51.966   1.220   5.348  0.00  0.00    +0.000 A 
ATOM     10  C   UNL     1      51.714   0.940   3.965  0.00  0.00    +0.000 A 
ATOM     11  C   UNL     1      50.645  -2.173   6.732  0.00  0.00    +0.000 C 
ATOM     12  C   UNL     1      49.987  -2.499   4.565  0.00  0.00    +0.000 C 
ATOM     13  C   UNL     1      52.509   2.467   5.712  0.00  0.00    +0.000 A 
ATOM     14  C   UNL     1      52.010   1.909   2.986  0.00  0.00    +0.000 A 
ATOM     15  C   UNL     1      52.782   3.383   4.719  0.00  0.00    +0.000 A 
ATOM     16  C   UNL     1      52.539   3.113   3.396  0.00  0.00    +0.000 A 
ATOM     17  C   UNL     1      53.367   5.102   3.548  0.00  0.00    +0.000 C 
ENDROOT
BRANCH   8  18
ATOM     18  C   UNL     1      52.210  -1.290   2.806  0.00  0.00    +0.000 A 
ATOM     19  C   UNL     1      53.443  -1.616   3.398  0.00  0.00    +0.000 A 
ATOM     20  C   UNL     1      51.937  -1.803   1.527  0.00  0.00    +0.000 A 
ATOM     21  C   UNL     1      52.853  -2.631   0.878  0.00  0.00    +0.000 A 
ATOM     22  C   UNL     1      54.388  -2.428   2.757  0.00  0.00    +0.000 A 
ATOM     23  C   UNL     1      54.080  -2.932   1.493  0.00  0.00    +0.000 A 
BRANCH  21  24
ATOM     24  O   UNL     1      52.673  -3.202  -0.361  0.00  0.00    +0.000 OA
ATOM     25  C   UNL     1      52.534  -2.301  -1.457  0.00  0.00    +0.000 C 
ENDBRANCH  21  24
BRANCH  22  26
ATOM     26  O   UNL     1      55.518  -2.624   3.504  0.00  0.00    +0.000 OA
ATOM     27  C   UNL     1      55.520  -2.155   4.845  0.00  0.00    +0.000 C 
ENDBRANCH  22  26
BRANCH  23  28
ATOM     28  O   UNL     1      54.944  -3.747   0.803  0.00  0.00    +0.000 OA
ATOM     29  H   UNL     1      55.602  -3.141   0.411  0.00  0.00    +0.000 HD
ENDBRANCH  23  28
ENDBRANCH   8  18
BRANCH   7  30
ATOM     30  O   UNL     1      50.434   0.704   7.083  0.00  0.00    +0.000 OA
BRANCH  30  34
ATOM     31  O   UNL     1      51.732   0.552   9.022  0.00  0.00    +0.000 OA
ATOM     32  O   UNL     1      50.995   1.251  12.557  0.00  0.00    +0.000 OA
ATOM     33  O   UNL     1      53.309   0.825  12.332  0.00  0.00    +0.000 OA
ATOM     34  C   UNL     1      50.666   1.258   8.385  0.00  0.00    +0.000 C 
ATOM     35  C   UNL     1      49.337   1.138   9.166  0.00  0.00    +0.000 C 
ATOM     36  C   UNL     1      50.743   0.790  11.225  0.00  0.00    +0.000 C 
ATOM     37  C   UNL     1      49.528   1.512  10.643  0.00  0.00    +0.000 C 
ATOM     38  C   UNL     1      51.958   1.047  10.339  0.00  0.00    +0.000 C 
ATOM     39  C   UNL     1      53.155   0.363  10.991  0.00  0.00    +0.000 C 
ATOM     40  C   UNL     1      52.134   0.582  13.106  0.00  0.00    +0.000 C 
ATOM     41  C   UNL     1      52.369   1.131  14.502  0.00  0.00    +0.000 C 
BRANCH  35  42
ATOM     42  O   UNL     1      48.357   1.998   8.563  0.00  0.00    +0.000 OA
ATOM     43  H   UNL     1      47.529   1.855   9.062  0.00  0.00    +0.000 HD
ENDBRANCH  35  42
BRANCH  37  44
ATOM     44  O   UNL     1      48.368   1.136  11.404  0.00  0.00    +0.000 OA
ATOM     45  H   UNL     1      48.686   0.518  12.088  0.00  0.00    +0.000 HD
ENDBRANCH  37  44
ENDBRANCH  30  34
ENDBRANCH   7  30
TORSDOF 8
ENDMDL
MODEL 2
REMARK VINA RESULT:      -6.8     12.424     16.755
REMARK  Name = 
REMARK  11 active torsions:
REMARK  status: ('A' for Active; 'I' for Inactive)
REMARK    1  A    between atoms: O_1  and  C_16
REMARK    2  A    between atoms: O_1  and  C_22
REMARK    3  A    between atoms: O_6  and  C_24
REMARK    4  A    between atoms: O_8  and  C_26
REMARK    5  A    between atoms: O_11  and  C_36
REMARK    6  A    between atoms: O_11  and  C_41
REMARK    7  A    between atoms: O_12  and  C_37
REMARK    8  A    between atoms: O_12  and  C_42
REMARK    9  A    between atoms: O_13  and  C_39
REMARK   10  A    between atoms: C_17  and  C_23
REMARK   11  A    between atoms: C_35  and  C_40
REMARK                            x       y       z     vdW  Elec       q    Type
REMARK                         _______ _______ _______ _____ _____    ______ ____
ROOT
ATOM      1  O   UNL     1      43.127  -1.156  20.237  0.00  0.00    +0.000 OA
ATOM      2  O   UNL     1      42.868   1.071  19.756  0.00  0.00    +0.000 OA
ATOM      3  O   UNL     1      42.253  -2.763  12.026  0.00  0.00    +0.000 OA
ATOM      4  O   UNL     1      41.534  -0.461  12.018  0.00  0.00    +0.000 OA
ATOM      5  C   UNL     1      42.672  -2.047  18.147  0.00  0.00    +0.000 C 
ATOM      6  C   UNL     1      43.002  -0.576  17.973  0.00  0.00    +0.000 C 
ATOM      7  C   UNL     1      43.088  -2.834  16.911  0.00  0.00    +0.000 C 
ATOM      8  C   UNL     1      42.095   0.064  16.924  0.00  0.00    +0.000 C 
ATOM      9  C   UNL     1      42.623  -2.130  15.637  0.00  0.00    +0.000 A 
ATOM     10  C   UNL     1      42.194  -0.762  15.630  0.00  0.00    +0.000 A 
ATOM     11  C   UNL     1      43.364  -2.338  19.455  0.00  0.00    +0.000 C 
ATOM     12  C   UNL     1      42.952  -0.089  19.390  0.00  0.00    +0.000 C 
ATOM     13  C   UNL     1      42.657  -2.848  14.426  0.00  0.00    +0.000 A 
ATOM     14  C   UNL     1      41.812  -0.151  14.418  0.00  0.00    +0.000 A 
ATOM     15  C   UNL     1      42.275  -2.208  13.267  0.00  0.00    +0.000 A 
ATOM     16  C   UNL     1      41.866  -0.898  13.263  0.00  0.00    +0.000 A 
ATOM     17  C   UNL     1      41.780  -1.650  11.239  0.00  0.00    +0.000 C 
ENDROOT
BRANCH   8  18
ATOM     18  C   UNL     1      40.652   0.301  17.377  0.00  0.00    +0.000 A 
ATOM     19  C   UNL     1      40.023   1.556  17.297  0.00  0.00    +0.000 A 
ATOM     20  C   UNL     1      39.907  -0.778  17.884  0.00  0.00    +0.000 A 
ATOM     21  C   UNL     1      38.578  -0.610  18.273  0.00  0.00    +0.000 A 
ATOM     22  C   UNL     1      38.695   1.754  17.702  0.00  0.00    +0.000 A 
ATOM     23  C   UNL     1      37.981   0.659  18.189  0.00  0.00    +0.000 A 
BRANCH  21  24
ATOM     24  O   UNL     1      37.758  -1.602  18.760  0.00  0.00    +0.000 OA
ATOM     25  C   UNL     1      38.095  -2.127  20.041  0.00  0.00    +0.000 C 
ENDBRANCH  21  24
BRANCH  22  26
ATOM     26  O   UNL     1      38.276   3.047  17.541  0.00  0.00    +0.000 OA
ATOM     27  C   UNL     1      39.253   4.076  17.591  0.00  0.00    +0.000 C 
ENDBRANCH  22  26
BRANCH  23  28
ATOM     28  O   UNL     1      36.673   0.764  18.592  0.00  0.00    +0.000 OA
ATOM     29  H   UNL     1      36.668   0.453  19.518  0.00  0.00    +0.000 HD
ENDBRANCH  23  28
ENDBRANCH   8  18
BRANCH   7  30
ATOM     30  O   UNL     1      44.513  -2.898  16.845  0.00  0.00    +0.000 OA
BRANCH  30  34
ATOM     31  O   UNL     1      43.930  -5.154  17.038  0.00  0.00    +0.000 OA
ATOM     32  O   UNL     1      45.602  -8.015  18.635  0.00  0.00    +0.000 OA
ATOM     33  O   UNL     1      43.743  -8.807  17.409  0.00  0.00    +0.000 OA
ATOM     34  C   UNL     1      45.020  -4.235  16.934  0.00  0.00    +0.000 C 
ATOM     35  C   UNL     1      45.944  -4.283  18.173  0.00  0.00    +0.000 C 
ATOM     36  C   UNL     1      45.170  -6.658  18.484  0.00  0.00    +0.000 C 
ATOM     37  C   UNL     1      46.379  -5.722  18.484  0.00  0.00    +0.000 C 
ATOM     38  C   UNL     1      44.400  -6.492  17.177  0.00  0.00    +0.000 C 
ATOM     39  C   UNL     1      43.245  -7.487  17.194  0.00  0.00    +0.000 C 
ATOM     40  C   UNL     1      44.475  -8.897  18.631  0.00  0.00    +0.000 C 
ATOM     41  C   UNL     1      44.994 -10.317  18.765  0.00  0.00    +0.000 C 
BRANCH  35  42
ATOM     42  O   UNL     1      47.098  -3.461  17.931  0.00  0.00    +0.000 OA
ATOM     43  H   UNL     1      47.833  -4.077  17.746  0.00  0.00    +0.000 HD
ENDBRANCH  35  42
BRANCH  37  44
ATOM     44  O   UNL     1      47.001  -5.783  19.778  0.00  0.00    +0.000 OA
ATOM     45  H   UNL     1      47.757  -6.394  19.683  0.00  0.00    +0.000 HD
ENDBRANCH  37  44
ENDBRANCH  30  34
ENDBRANCH   7  30
TORSDOF 8
ENDMDL
MODEL 3
REMARK VINA RESULT:      -6.8      3.700      5.207
REMARK  Name = 
REMARK  11 active torsions:
REMARK  status: ('A' for Active; 'I' for Inactive)
REMARK    1  A    between atoms: O_1  and  C_16
REMARK    2  A    between atoms: O_1  and  C_22
REMARK    3  A    between atoms: O_6  and  C_24
REMARK    4  A    between atoms: O_8  and  C_26
REMARK    5  A    between atoms: O_11  and  C_36
REMARK    6  A    between atoms: O_11  and  C_41
REMARK    7  A    between atoms: O_12  and  C_37
REMARK    8  A    between atoms: O_12  and  C_42
REMARK    9  A    between atoms: O_13  and  C_39
REMARK   10  A    between atoms: C_17  and  C_23
REMARK   11  A    between atoms: C_35  and  C_40
REMARK                            x       y       z     vdW  Elec       q    Type
REMARK                         _______ _______ _______ _____ _____    ______ ____
ROOT
ATOM      1  O   UNL     1      49.756   0.904  10.689  0.00  0.00    +0.000 OA
ATOM      2  O   UNL     1      48.324  -0.112   9.214  0.00  0.00    +0.000 OA
ATOM      3  O   UNL     1      53.593   4.469   4.107  0.00  0.00    +0.000 OA
ATOM      4  O   UNL     1      52.255   2.857   2.911  0.00  0.00    +0.000 OA
ATOM      5  C   UNL     1      51.238   1.852   9.182  0.00  0.00    +0.000 C 
ATOM      6  C   UNL     1      49.962   1.509   8.438  0.00  0.00    +0.000 C 
ATOM      7  C   UNL     1      51.911   3.064   8.551  0.00  0.00    +0.000 C 
ATOM      8  C   UNL     1      50.274   0.957   7.048  0.00  0.00    +0.000 C 
ATOM      9  C   UNL     1      51.971   2.924   7.031  0.00  0.00    +0.000 A 
ATOM     10  C   UNL     1      51.177   1.966   6.318  0.00  0.00    +0.000 A 
ATOM     11  C   UNL     1      50.721   1.965  10.593  0.00  0.00    +0.000 C 
ATOM     12  C   UNL     1      49.257   0.642   9.437  0.00  0.00    +0.000 C 
ATOM     13  C   UNL     1      52.809   3.797   6.312  0.00  0.00    +0.000 A 
ATOM     14  C   UNL     1      51.243   1.906   4.911  0.00  0.00    +0.000 A 
ATOM     15  C   UNL     1      52.838   3.701   4.937  0.00  0.00    +0.000 A 
ATOM     16  C   UNL     1      52.077   2.784   4.257  0.00  0.00    +0.000 A 
ATOM     17  C   UNL     1      53.220   3.927   2.822  0.00  0.00    +0.000 C 
ENDROOT
BRANCH   8  18
ATOM     18  C   UNL     1      50.828  -0.470   7.030  0.00  0.00    +0.000 A 
ATOM     19  C   UNL     1      52.002  -0.840   7.710  0.00  0.00    +0.000 A 
ATOM     20  C   UNL     1      50.138  -1.464   6.317  0.00  0.00    +0.000 A 
ATOM     21  C   UNL     1      50.592  -2.784   6.308  0.00  0.00    +0.000 A 
ATOM     22  C   UNL     1      52.489  -2.155   7.697  0.00  0.00    +0.000 A 
ATOM     23  C   UNL     1      51.772  -3.121   6.991  0.00  0.00    +0.000 A 
BRANCH  21  24
ATOM     24  O   UNL     1      49.979  -3.833   5.663  0.00  0.00    +0.000 OA
ATOM     25  C   UNL     1      50.124  -3.874   4.245  0.00  0.00    +0.000 C 
ENDBRANCH  21  24
BRANCH  22  26
ATOM     26  O   UNL     1      53.641  -2.304   8.422  0.00  0.00    +0.000 OA
ATOM     27  C   UNL     1      54.715  -1.413   8.157  0.00  0.00    +0.000 C 
ENDBRANCH  22  26
BRANCH  23  28
ATOM     28  O   UNL     1      52.173  -4.433   6.941  0.00  0.00    +0.000 OA
ATOM     29  H   UNL     1      51.703  -4.868   7.678  0.00  0.00    +0.000 HD
ENDBRANCH  23  28
ENDBRANCH   8  18
BRANCH   7  30
ATOM     30  O   UNL     1      51.136   4.233   8.823  0.00  0.00    +0.000 OA
BRANCH  30  34
ATOM     31  O   UNL     1      52.128   5.034  10.783  0.00  0.00    +0.000 OA
ATOM     32  O   UNL     1      52.752   8.438  12.028  0.00  0.00    +0.000 OA
ATOM     33  O   UNL     1      53.832   6.896  13.457  0.00  0.00    +0.000 OA
ATOM     34  C   UNL     1      51.906   5.297   9.396  0.00  0.00    +0.000 C 
ATOM     35  C   UNL     1      51.107   6.601   9.169  0.00  0.00    +0.000 C 
ATOM     36  C   UNL     1      52.035   7.386  11.373  0.00  0.00    +0.000 C 
ATOM     37  C   UNL     1      51.742   7.778   9.925  0.00  0.00    +0.000 C 
ATOM     38  C   UNL     1      52.852   6.098  11.395  0.00  0.00    +0.000 C 
ATOM     39  C   UNL     1      53.174   5.783  12.852  0.00  0.00    +0.000 C 
ATOM     40  C   UNL     1      53.034   8.077  13.384  0.00  0.00    +0.000 C 
ATOM     41  C   UNL     1      53.817   9.213  14.017  0.00  0.00    +0.000 C 
BRANCH  35  42
ATOM     42  O   UNL     1      51.063   6.887   7.761  0.00  0.00    +0.000 OA
ATOM     43  H   UNL     1      50.279   6.418   7.416  0.00  0.00    +0.000 HD
ENDBRANCH  35  42
BRANCH  37  44
ATOM     44  O   UNL     1      50.849   8.903   9.929  0.00  0.00    +0.000 OA
ATOM     45  H   UNL     1      51.343   9.636  10.344  0.00  0.00    +0.000 HD
ENDBRANCH  37  44
ENDBRANCH  30  34
ENDBRANCH   7  30
TORSDOF 8
ENDMDL
MODEL 4
REMARK VINA RESULT:      -6.7     14.222     16.932
REMARK  Name = 
REMARK  11 active torsions:
REMARK  status: ('A' for Active; 'I' for Inactive)
REMARK    1  A    between atoms: O_1  and  C_16
REMARK    2  A    between atoms: O_1  and  C_22
REMARK    3  A    between atoms: O_6  and  C_24
REMARK    4  A    between atoms: O_8  and  C_26
REMARK    5  A    between atoms: O_11  and  C_36
REMARK    6  A    between atoms: O_11  and  C_41
REMARK    7  A    between atoms: O_12  and  C_37
REMARK    8  A    between atoms: O_12  and  C_42
REMARK    9  A    between atoms: O_13  and  C_39
REMARK   10  A    between atoms: C_17  and  C_23
REMARK   11  A    between atoms: C_35  and  C_40
REMARK                            x       y       z     vdW  Elec       q    Type
REMARK                         _______ _______ _______ _____ _____    ______ ____
ROOT
ATOM      1  O   UNL     1      42.092  -2.416  21.295  0.00  0.00    +0.000 OA
ATOM      2  O   UNL     1      40.903  -4.212  20.510  0.00  0.00    +0.000 OA
ATOM      3  O   UNL     1      40.001   1.708  14.268  0.00  0.00    +0.000 OA
ATOM      4  O   UNL     1      39.315  -0.506  13.600  0.00  0.00    +0.000 OA
ATOM      5  C   UNL     1      41.983  -1.048  19.428  0.00  0.00    +0.000 C 
ATOM      6  C   UNL     1      40.894  -2.097  19.310  0.00  0.00    +0.000 C 
ATOM      7  C   UNL     1      41.554   0.241  18.740  0.00  0.00    +0.000 C 
ATOM      8  C   UNL     1      40.765  -2.587  17.869  0.00  0.00    +0.000 C 
ATOM      9  C   UNL     1      40.970  -0.049  17.358  0.00  0.00    +0.000 A 
ATOM     10  C   UNL     1      40.563  -1.364  16.958  0.00  0.00    +0.000 A 
ATOM     11  C   UNL     1      42.199  -1.032  20.920  0.00  0.00    +0.000 C 
ATOM     12  C   UNL     1      41.291  -3.062  20.386  0.00  0.00    +0.000 C 
ATOM     13  C   UNL     1      40.795   1.028  16.467  0.00  0.00    +0.000 A 
ATOM     14  C   UNL     1      39.993  -1.568  15.685  0.00  0.00    +0.000 A 
ATOM     15  C   UNL     1      40.234   0.779  15.233  0.00  0.00    +0.000 A 
ATOM     16  C   UNL     1      39.843  -0.480  14.854  0.00  0.00    +0.000 A 
ATOM     17  C   UNL     1      39.420   0.886  13.234  0.00  0.00    +0.000 C 
ENDROOT
BRANCH   8  18
ATOM     18  C   UNL     1      41.893  -3.508  17.397  0.00  0.00    +0.000 A 
ATOM     19  C   UNL     1      43.221  -3.071  17.246  0.00  0.00    +0.000 A 
ATOM     20  C   UNL     1      41.605  -4.853  17.111  0.00  0.00    +0.000 A 
ATOM     21  C   UNL     1      42.614  -5.732  16.713  0.00  0.00    +0.000 A 
ATOM     22  C   UNL     1      44.248  -3.931  16.828  0.00  0.00    +0.000 A 
ATOM     23  C   UNL     1      43.930  -5.264  16.565  0.00  0.00    +0.000 A 
BRANCH  21  24
ATOM     24  O   UNL     1      42.442  -7.068  16.433  0.00  0.00    +0.000 OA
ATOM     25  C   UNL     1      41.117  -7.576  16.564  0.00  0.00    +0.000 C 
ENDBRANCH  21  24
BRANCH  22  26
ATOM     26  O   UNL     1      45.464  -3.309  16.748  0.00  0.00    +0.000 OA
ATOM     27  C   UNL     1      46.364  -3.461  17.836  0.00  0.00    +0.000 C 
ENDBRANCH  22  26
BRANCH  23  28
ATOM     28  O   UNL     1      44.878  -6.172  16.165  0.00  0.00    +0.000 OA
ATOM     29  H   UNL     1      44.837  -6.887  16.830  0.00  0.00    +0.000 HD
ENDBRANCH  23  28
ENDBRANCH   8  18
BRANCH   7  30
ATOM     30  O   UNL     1      40.516   0.864  19.499  0.00  0.00    +0.000 OA
BRANCH  30  34
ATOM     31  O   UNL     1      41.408   2.116  21.260  0.00  0.00    +0.000 OA
ATOM     32  O   UNL     1      40.761   5.539  22.440  0.00  0.00    +0.000 OA
ATOM     33  O   UNL     1      42.617   4.668  23.615  0.00  0.00    +0.000 OA
ATOM     34  C   UNL     1      40.859   2.182  19.942  0.00  0.00    +0.000 C 
ATOM     35  C   UNL     1      39.562   3.023  19.892  0.00  0.00    +0.000 C 
ATOM     36  C   UNL     1      40.446   4.248  21.906  0.00  0.00    +0.000 C 
ATOM     37  C   UNL     1      39.769   4.399  20.543  0.00  0.00    +0.000 C 
ATOM     38  C   UNL     1      41.717   3.418  21.752  0.00  0.00    +0.000 C 
ATOM     39  C   UNL     1      42.390   3.350  23.118  0.00  0.00    +0.000 C 
ATOM     40  C   UNL     1      41.399   5.406  23.713  0.00  0.00    +0.000 C 
ATOM     41  C   UNL     1      41.733   6.799  24.216  0.00  0.00    +0.000 C 
BRANCH  35  42
ATOM     42  O   UNL     1      39.158   3.183  18.522  0.00  0.00    +0.000 OA
ATOM     43  H   UNL     1      39.892   3.648  18.077  0.00  0.00    +0.000 HD
ENDBRANCH  35  42
BRANCH  37  44
ATOM     44  O   UNL     1      38.503   5.052  20.734  0.00  0.00    +0.000 OA
ATOM     45  H   UNL     1      38.711   5.949  21.057  0.00  0.00    +0.000 HD
ENDBRANCH  37  44
ENDBRANCH  30  34
ENDBRANCH   7  30
TORSDOF 8
ENDMDL
MODEL 5
REMARK VINA RESULT:      -6.7      5.630     10.071
REMARK  Name = 
REMARK  11 active torsions:
REMARK  status: ('A' for Active; 'I' for Inactive)
REMARK    1  A    between atoms: O_1  and  C_16
REMARK    2  A    between atoms: O_1  and  C_22
REMARK    3  A    between atoms: O_6  and  C_24
REMARK    4  A    between atoms: O_8  and  C_26
REMARK    5  A    between atoms: O_11  and  C_36
REMARK    6  A    between atoms: O_11  and  C_41
REMARK    7  A    between atoms: O_12  and  C_37
REMARK    8  A    between atoms: O_12  and  C_42
REMARK    9  A    between atoms: O_13  and  C_39
REMARK   10  A    between atoms: C_17  and  C_23
REMARK   11  A    between atoms: C_35  and  C_40
REMARK                            x       y       z     vdW  Elec       q    Type
REMARK                         _______ _______ _______ _____ _____    ______ ____
ROOT
ATOM      1  O   UNL     1      54.388   5.702  13.017  0.00  0.00    +0.000 OA
ATOM      2  O   UNL     1      53.154   4.938  14.792  0.00  0.00    +0.000 OA
ATOM      3  O   UNL     1      49.137   1.561   7.915  0.00  0.00    +0.000 OA
ATOM      4  O   UNL     1      48.445   0.584  10.009  0.00  0.00    +0.000 OA
ATOM      5  C   UNL     1      53.369   4.513  11.310  0.00  0.00    +0.000 C 
ATOM      6  C   UNL     1      52.437   4.515  12.507  0.00  0.00    +0.000 C 
ATOM      7  C   UNL     1      52.569   4.454  10.015  0.00  0.00    +0.000 C 
ATOM      8  C   UNL     1      51.756   3.156  12.668  0.00  0.00    +0.000 C 
ATOM      9  C   UNL     1      51.485   3.380  10.094  0.00  0.00    +0.000 A 
ATOM     10  C   UNL     1      51.073   2.797  11.338  0.00  0.00    +0.000 A 
ATOM     11  C   UNL     1      54.195   5.742  11.593  0.00  0.00    +0.000 C 
ATOM     12  C   UNL     1      53.342   5.021  13.590  0.00  0.00    +0.000 C 
ATOM     13  C   UNL     1      50.848   2.985   8.902  0.00  0.00    +0.000 A 
ATOM     14  C   UNL     1      50.040   1.838  11.357  0.00  0.00    +0.000 A 
ATOM     15  C   UNL     1      49.843   2.044   8.972  0.00  0.00    +0.000 A 
ATOM     16  C   UNL     1      49.450   1.488  10.163  0.00  0.00    +0.000 A 
ATOM     17  C   UNL     1      48.253   0.634   8.580  0.00  0.00    +0.000 C 
ENDROOT
BRANCH   8  18
ATOM     18  C   UNL     1      52.660   2.041  13.200  0.00  0.00    +0.000 A 
ATOM     19  C   UNL     1      53.721   1.497  12.454  0.00  0.00    +0.000 A 
ATOM     20  C   UNL     1      52.439   1.538  14.493  0.00  0.00    +0.000 A 
ATOM     21  C   UNL     1      53.264   0.548  15.027  0.00  0.00    +0.000 A 
ATOM     22  C   UNL     1      54.550   0.486  12.961  0.00  0.00    +0.000 A 
ATOM     23  C   UNL     1      54.311   0.019  14.254  0.00  0.00    +0.000 A 
BRANCH  21  24
ATOM     24  O   UNL     1      53.147   0.006  16.286  0.00  0.00    +0.000 OA
ATOM     25  C   UNL     1      53.302   0.908  17.379  0.00  0.00    +0.000 C 
ENDBRANCH  21  24
BRANCH  22  26
ATOM     26  O   UNL     1      55.520   0.099  12.077  0.00  0.00    +0.000 OA
ATOM     27  C   UNL     1      55.149  -0.770  11.017  0.00  0.00    +0.000 C 
ENDBRANCH  22  26
BRANCH  23  28
ATOM     28  O   UNL     1      55.085  -0.958  14.829  0.00  0.00    +0.000 OA
ATOM     29  H   UNL     1      55.291  -0.621  15.723  0.00  0.00    +0.000 HD
ENDBRANCH  23  28
ENDBRANCH   8  18
BRANCH   7  30
ATOM     30  O   UNL     1      51.897   5.698   9.814  0.00  0.00    +0.000 OA
BRANCH  30  34
ATOM     31  O   UNL     1      53.042   6.455   7.921  0.00  0.00    +0.000 OA
ATOM     32  O   UNL     1      52.003   8.521   5.061  0.00  0.00    +0.000 OA
ATOM     33  O   UNL     1      54.168   7.672   4.639  0.00  0.00    +0.000 OA
ATOM     34  C   UNL     1      51.770   6.050   8.431  0.00  0.00    +0.000 C 
ATOM     35  C   UNL     1      50.722   7.185   8.352  0.00  0.00    +0.000 C 
ATOM     36  C   UNL     1      52.063   8.099   6.428  0.00  0.00    +0.000 C 
ATOM     37  C   UNL     1      50.657   7.781   6.938  0.00  0.00    +0.000 C 
ATOM     38  C   UNL     1      52.942   6.858   6.558  0.00  0.00    +0.000 C 
ATOM     39  C   UNL     1      54.310   7.201   5.979  0.00  0.00    +0.000 C 
ATOM     40  C   UNL     1      53.316   8.815   4.575  0.00  0.00    +0.000 C 
ATOM     41  C   UNL     1      53.193   9.229   3.120  0.00  0.00    +0.000 C 
BRANCH  35  42
ATOM     42  O   UNL     1      49.435   6.664   8.725  0.00  0.00    +0.000 OA
ATOM     43  H   UNL     1      49.038   7.328   9.322  0.00  0.00    +0.000 HD
ENDBRANCH  35  42
BRANCH  37  44
ATOM     44  O   UNL     1      49.892   8.997   6.948  0.00  0.00    +0.000 OA
ATOM     45  H   UNL     1      49.781   9.252   6.013  0.00  0.00    +0.000 HD
ENDBRANCH  37  44
ENDBRANCH  30  34
ENDBRANCH   7  30
TORSDOF 8
ENDMDL
MODEL 6
REMARK VINA RESULT:      -6.6     25.384     29.138
REMARK  Name = 
REMARK  11 active torsions:
REMARK  status: ('A' for Active; 'I' for Inactive)
REMARK    1  A    between atoms: O_1  and  C_16
REMARK    2  A    between atoms: O_1  and  C_22
REMARK    3  A    between atoms: O_6  and  C_24
REMARK    4  A    between atoms: O_8  and  C_26
REMARK    5  A    between atoms: O_11  and  C_36
REMARK    6  A    between atoms: O_11  and  C_41
REMARK    7  A    between atoms: O_12  and  C_37
REMARK    8  A    between atoms: O_12  and  C_42
REMARK    9  A    between atoms: O_13  and  C_39
REMARK   10  A    between atoms: C_17  and  C_23
REMARK   11  A    between atoms: C_35  and  C_40
REMARK                            x       y       z     vdW  Elec       q    Type
REMARK                         _______ _______ _______ _____ _____    ______ ____
ROOT
ATOM      1  O   UNL     1      30.790  17.505  22.336  0.00  0.00    +0.000 OA
ATOM      2  O   UNL     1      31.001  19.769  22.036  0.00  0.00    +0.000 OA
ATOM      3  O   UNL     1      38.749  16.681  19.741  0.00  0.00    +0.000 OA
ATOM      4  O   UNL     1      38.397  18.977  19.090  0.00  0.00    +0.000 OA
ATOM      5  C   UNL     1      32.811  16.817  21.437  0.00  0.00    +0.000 C 
ATOM      6  C   UNL     1      32.915  18.295  21.758  0.00  0.00    +0.000 C 
ATOM      7  C   UNL     1      34.174  16.148  21.569  0.00  0.00    +0.000 C 
ATOM      8  C   UNL     1      33.689  19.035  20.668  0.00  0.00    +0.000 C 
ATOM      9  C   UNL     1      35.253  16.970  20.866  0.00  0.00    +0.000 A 
ATOM     10  C   UNL     1      35.045  18.334  20.477  0.00  0.00    +0.000 A 
ATOM     11  C   UNL     1      31.709  16.401  22.378  0.00  0.00    +0.000 C 
ATOM     12  C   UNL     1      31.481  18.647  22.015  0.00  0.00    +0.000 C 
ATOM     13  C   UNL     1      36.504  16.369  20.632  0.00  0.00    +0.000 A 
ATOM     14  C   UNL     1      36.090  19.058  19.867  0.00  0.00    +0.000 A 
ATOM     15  C   UNL     1      37.495  17.117  20.033  0.00  0.00    +0.000 A 
ATOM     16  C   UNL     1      37.294  18.423  19.663  0.00  0.00    +0.000 A 
ATOM     17  C   UNL     1      39.315  17.865  19.141  0.00  0.00    +0.000 C 
ENDROOT
BRANCH   8  18
ATOM     18  C   UNL     1      32.926  19.234  19.356  0.00  0.00    +0.000 A 
ATOM     19  C   UNL     1      32.478  18.161  18.564  0.00  0.00    +0.000 A 
ATOM     20  C   UNL     1      32.642  20.539  18.919  0.00  0.00    +0.000 A 
ATOM     21  C   UNL     1      31.916  20.760  17.748  0.00  0.00    +0.000 A 
ATOM     22  C   UNL     1      31.765  18.359  17.373  0.00  0.00    +0.000 A 
ATOM     23  C   UNL     1      31.489  19.667  16.975  0.00  0.00    +0.000 A 
BRANCH  21  24
ATOM     24  O   UNL     1      31.567  21.993  17.247  0.00  0.00    +0.000 OA
ATOM     25  C   UNL     1      32.635  22.804  16.765  0.00  0.00    +0.000 C 
ENDBRANCH  21  24
BRANCH  22  26
ATOM     26  O   UNL     1      31.422  17.186  16.757  0.00  0.00    +0.000 OA
ATOM     27  C   UNL     1      30.845  16.159  17.551  0.00  0.00    +0.000 C 
ENDBRANCH  22  26
BRANCH  23  28
ATOM     28  O   UNL     1      30.785  19.946  15.830  0.00  0.00    +0.000 OA
ATOM     29  H   UNL     1      30.813  20.919  15.748  0.00  0.00    +0.000 HD
ENDBRANCH  23  28
ENDBRANCH   8  18
BRANCH   7  30
ATOM     30  O   UNL     1      34.541  16.085  22.947  0.00  0.00    +0.000 OA
BRANCH  30  34
ATOM     31  O   UNL     1      35.059  13.928  22.209  0.00  0.00    +0.000 OA
ATOM     32  O   UNL     1      34.787  10.630  23.815  0.00  0.00    +0.000 OA
ATOM     33  O   UNL     1      35.946  10.387  21.770  0.00  0.00    +0.000 OA
ATOM     34  C   UNL     1      34.987  14.784  23.351  0.00  0.00    +0.000 C 
ATOM     35  C   UNL     1      33.978  14.270  24.403  0.00  0.00    +0.000 C 
ATOM     36  C   UNL     1      34.401  11.968  23.480  0.00  0.00    +0.000 C 
ATOM     37  C   UNL     1      34.243  12.799  24.753  0.00  0.00    +0.000 C 
ATOM     38  C   UNL     1      35.454  12.610  22.582  0.00  0.00    +0.000 C 
ATOM     39  C   UNL     1      35.624  11.715  21.359  0.00  0.00    +0.000 C 
ATOM     40  C   UNL     1      34.941   9.847  22.627  0.00  0.00    +0.000 C 
ATOM     41  C   UNL     1      35.376   8.453  23.041  0.00  0.00    +0.000 C 
BRANCH  35  42
ATOM     42  O   UNL     1      34.076  15.082  25.586  0.00  0.00    +0.000 OA
ATOM     43  H   UNL     1      34.034  14.464  26.341  0.00  0.00    +0.000 HD
ENDBRANCH  35  42
BRANCH  37  44
ATOM     44  O   UNL     1      33.147  12.265  25.512  0.00  0.00    +0.000 OA
ATOM     45  H   UNL     1      32.529  11.884  24.859  0.00  0.00    +0.000 HD
ENDBRANCH  37  44
ENDBRANCH  30  34
ENDBRANCH   7  30
TORSDOF 8
ENDMDL
MODEL 7
REMARK VINA RESULT:      -6.3      5.828      9.214
REMARK  Name = 
REMARK  11 active torsions:
REMARK  status: ('A' for Active; 'I' for Inactive)
REMARK    1  A    between atoms: O_1  and  C_16
REMARK    2  A    between atoms: O_1  and  C_22
REMARK    3  A    between atoms: O_6  and  C_24
REMARK    4  A    between atoms: O_8  and  C_26
REMARK    5  A    between atoms: O_11  and  C_36
REMARK    6  A    between atoms: O_11  and  C_41
REMARK    7  A    between atoms: O_12  and  C_37
REMARK    8  A    between atoms: O_12  and  C_42
REMARK    9  A    between atoms: O_13  and  C_39
REMARK   10  A    between atoms: C_17  and  C_23
REMARK   11  A    between atoms: C_35  and  C_40
REMARK                            x       y       z     vdW  Elec       q    Type
REMARK                         _______ _______ _______ _____ _____    ______ ____
ROOT
ATOM      1  O   UNL     1      56.036   4.791  10.560  0.00  0.00    +0.000 OA
ATOM      2  O   UNL     1      55.564   5.413   8.405  0.00  0.00    +0.000 OA
ATOM      3  O   UNL     1      48.992   0.194  10.504  0.00  0.00    +0.000 OA
ATOM      4  O   UNL     1      48.609   1.459   8.487  0.00  0.00    +0.000 OA
ATOM      5  C   UNL     1      54.086   3.643  11.057  0.00  0.00    +0.000 C 
ATOM      6  C   UNL     1      54.196   3.760   9.548  0.00  0.00    +0.000 C 
ATOM      7  C   UNL     1      53.347   2.367  11.438  0.00  0.00    +0.000 C 
ATOM      8  C   UNL     1      52.829   4.039   8.924  0.00  0.00    +0.000 C 
ATOM      9  C   UNL     1      52.079   2.203  10.602  0.00  0.00    +0.000 A 
ATOM     10  C   UNL     1      51.848   2.955   9.403  0.00  0.00    +0.000 A 
ATOM     11  C   UNL     1      55.533   3.786  11.456  0.00  0.00    +0.000 C 
ATOM     12  C   UNL     1      55.293   4.771   9.406  0.00  0.00    +0.000 C 
ATOM     13  C   UNL     1      51.127   1.250  11.012  0.00  0.00    +0.000 A 
ATOM     14  C   UNL     1      50.677   2.735   8.649  0.00  0.00    +0.000 A 
ATOM     15  C   UNL     1      49.998   1.070  10.242  0.00  0.00    +0.000 A 
ATOM     16  C   UNL     1      49.780   1.790   9.094  0.00  0.00    +0.000 A 
ATOM     17  C   UNL     1      48.114   0.447   9.388  0.00  0.00    +0.000 C 
ENDROOT
BRANCH   8  18
ATOM     18  C   UNL     1      52.302   5.461   9.134  0.00  0.00    +0.000 A 
ATOM     19  C   UNL     1      52.208   6.401   8.092  0.00  0.00    +0.000 A 
ATOM     20  C   UNL     1      51.880   5.853  10.415  0.00  0.00    +0.000 A 
ATOM     21  C   UNL     1      51.360   7.129  10.638  0.00  0.00    +0.000 A 
ATOM     22  C   UNL     1      51.709   7.695   8.296  0.00  0.00    +0.000 A 
ATOM     23  C   UNL     1      51.285   8.048   9.578  0.00  0.00    +0.000 A 
BRANCH  21  24
ATOM     24  O   UNL     1      50.899   7.602  11.845  0.00  0.00    +0.000 OA
ATOM     25  C   UNL     1      50.879   6.670  12.923  0.00  0.00    +0.000 C 
ENDBRANCH  21  24
BRANCH  22  26
ATOM     26  O   UNL     1      51.700   8.449   7.154  0.00  0.00    +0.000 OA
ATOM     27  C   UNL     1      51.989   7.801   5.924  0.00  0.00    +0.000 C 
ENDBRANCH  22  26
BRANCH  23  28
ATOM     28  O   UNL     1      50.771   9.289   9.858  0.00  0.00    +0.000 OA
ATOM     29  H   UNL     1      49.885   9.294   9.446  0.00  0.00    +0.000 HD
ENDBRANCH  23  28
ENDBRANCH   8  18
BRANCH   7  30
ATOM     30  O   UNL     1      54.172   1.236  11.153  0.00  0.00    +0.000 OA
BRANCH  30  34
ATOM     31  O   UNL     1      53.699   0.938  13.423  0.00  0.00    +0.000 OA
ATOM     32  O   UNL     1      55.640  -0.522  16.186  0.00  0.00    +0.000 OA
ATOM     33  O   UNL     1      53.445  -0.085  16.945  0.00  0.00    +0.000 OA
ATOM     34  C   UNL     1      54.399   0.404  12.297  0.00  0.00    +0.000 C 
ATOM     35  C   UNL     1      55.928   0.364  12.527  0.00  0.00    +0.000 C 
ATOM     36  C   UNL     1      55.414   0.228  14.987  0.00  0.00    +0.000 C 
ATOM     37  C   UNL     1      56.271  -0.332  13.851  0.00  0.00    +0.000 C 
ATOM     38  C   UNL     1      53.941   0.159  14.592  0.00  0.00    +0.000 C 
ATOM     39  C   UNL     1      53.124   0.666  15.776  0.00  0.00    +0.000 C 
ATOM     40  C   UNL     1      54.837  -0.006  17.251  0.00  0.00    +0.000 C 
ATOM     41  C   UNL     1      55.096  -0.854  18.483  0.00  0.00    +0.000 C 
BRANCH  35  42
ATOM     42  O   UNL     1      56.550  -0.329  11.431  0.00  0.00    +0.000 OA
ATOM     43  H   UNL     1      56.923   0.363  10.852  0.00  0.00    +0.000 HD
ENDBRANCH  35  42
BRANCH  37  44
ATOM     44  O   UNL     1      57.654  -0.121  14.179  0.00  0.00    +0.000 OA
ATOM     45  H   UNL     1      57.698   0.758  14.600  0.00  0.00    +0.000 HD
ENDBRANCH  37  44
ENDBRANCH  30  34
ENDBRANCH   7  30
TORSDOF 8
ENDMDL
MODEL 8
REMARK VINA RESULT:      -6.2      2.924      6.945
REMARK  Name = 
REMARK  11 active torsions:
REMARK  status: ('A' for Active; 'I' for Inactive)
REMARK    1  A    between atoms: O_1  and  C_16
REMARK    2  A    between atoms: O_1  and  C_22
REMARK    3  A    between atoms: O_6  and  C_24
REMARK    4  A    between atoms: O_8  and  C_26
REMARK    5  A    between atoms: O_11  and  C_36
REMARK    6  A    between atoms: O_11  and  C_41
REMARK    7  A    between atoms: O_12  and  C_37
REMARK    8  A    between atoms: O_12  and  C_42
REMARK    9  A    between atoms: O_13  and  C_39
REMARK   10  A    between atoms: C_17  and  C_23
REMARK   11  A    between atoms: C_35  and  C_40
REMARK                            x       y       z     vdW  Elec       q    Type
REMARK                         _______ _______ _______ _____ _____    ______ ____
ROOT
ATOM      1  O   UNL     1      52.404  -1.643   1.983  0.00  0.00    +0.000 OA
ATOM      2  O   UNL     1      51.507   0.364   1.331  0.00  0.00    +0.000 OA
ATOM      3  O   UNL     1      48.949  -0.432   9.557  0.00  0.00    +0.000 OA
ATOM      4  O   UNL     1      48.633   1.785   8.661  0.00  0.00    +0.000 OA
ATOM      5  C   UNL     1      51.871  -1.579   4.237  0.00  0.00    +0.000 C 
ATOM      6  C   UNL     1      50.992  -0.576   3.514  0.00  0.00    +0.000 C 
ATOM      7  C   UNL     1      51.147  -2.137   5.456  0.00  0.00    +0.000 C 
ATOM      8  C   UNL     1      50.828   0.698   4.342  0.00  0.00    +0.000 C 
ATOM      9  C   UNL     1      50.506  -1.014   6.269  0.00  0.00    +0.000 A 
ATOM     10  C   UNL     1      50.318   0.305   5.739  0.00  0.00    +0.000 A 
ATOM     11  C   UNL     1      52.215  -2.517   3.108  0.00  0.00    +0.000 C 
ATOM     12  C   UNL     1      51.660  -0.505   2.174  0.00  0.00    +0.000 C 
ATOM     13  C   UNL     1      50.052  -1.306   7.569  0.00  0.00    +0.000 A 
ATOM     14  C   UNL     1      49.684   1.293   6.520  0.00  0.00    +0.000 A 
ATOM     15  C   UNL     1      49.438  -0.308   8.294  0.00  0.00    +0.000 A 
ATOM     16  C   UNL     1      49.258   0.954   7.785  0.00  0.00    +0.000 A 
ATOM     17  C   UNL     1      48.441   0.899   9.784  0.00  0.00    +0.000 C 
ENDROOT
BRANCH   8  18
ATOM     18  C   UNL     1      52.061   1.604   4.385  0.00  0.00    +0.000 A 
ATOM     19  C   UNL     1      52.135   2.826   3.693  0.00  0.00    +0.000 A 
ATOM     20  C   UNL     1      53.170   1.215   5.156  0.00  0.00    +0.000 A 
ATOM     21  C   UNL     1      54.298   2.030   5.250  0.00  0.00    +0.000 A 
ATOM     22  C   UNL     1      53.267   3.652   3.755  0.00  0.00    +0.000 A 
ATOM     23  C   UNL     1      54.345   3.242   4.540  0.00  0.00    +0.000 A 
BRANCH  21  24
ATOM     24  O   UNL     1      55.422   1.754   5.993  0.00  0.00    +0.000 OA
ATOM     25  C   UNL     1      55.694   0.376   6.238  0.00  0.00    +0.000 C 
ENDBRANCH  21  24
BRANCH  22  26
ATOM     26  O   UNL     1      53.134   4.793   3.012  0.00  0.00    +0.000 OA
ATOM     27  C   UNL     1      54.056   5.011   1.953  0.00  0.00    +0.000 C 
ENDBRANCH  22  26
BRANCH  23  28
ATOM     28  O   UNL     1      55.483   3.999   4.666  0.00  0.00    +0.000 OA
ATOM     29  H   UNL     1      55.203   4.794   5.161  0.00  0.00    +0.000 HD
ENDBRANCH  23  28
ENDBRANCH   8  18
BRANCH   7  30
ATOM     30  O   UNL     1      50.084  -2.990   5.028  0.00  0.00    +0.000 OA
BRANCH  30  34
ATOM     31  O   UNL     1      51.009  -4.302   6.728  0.00  0.00    +0.000 OA
ATOM     32  O   UNL     1      52.076  -7.820   6.837  0.00  0.00    +0.000 OA
ATOM     33  O   UNL     1      52.167  -6.930   9.024  0.00  0.00    +0.000 OA
ATOM     34  C   UNL     1      50.176  -4.315   5.567  0.00  0.00    +0.000 C 
ATOM     35  C   UNL     1      50.747  -5.216   4.448  0.00  0.00    +0.000 C 
ATOM     36  C   UNL     1      51.891  -6.517   6.273  0.00  0.00    +0.000 C 
ATOM     37  C   UNL     1      51.080  -6.617   4.981  0.00  0.00    +0.000 C 
ATOM     38  C   UNL     1      51.160  -5.614   7.263  0.00  0.00    +0.000 C 
ATOM     39  C   UNL     1      51.971  -5.597   8.555  0.00  0.00    +0.000 C 
ATOM     40  C   UNL     1      52.831  -7.734   8.049  0.00  0.00    +0.000 C 
ATOM     41  C   UNL     1      52.970  -9.137   8.613  0.00  0.00    +0.000 C 
BRANCH  35  42
ATOM     42  O   UNL     1      49.785  -5.311   3.384  0.00  0.00    +0.000 OA
ATOM     43  H   UNL     1      49.019  -4.775   3.664  0.00  0.00    +0.000 HD
ENDBRANCH  35  42
BRANCH  37  44
ATOM     44  O   UNL     1      51.854  -7.344   4.014  0.00  0.00    +0.000 OA
ATOM     45  H   UNL     1      52.318  -6.671   3.481  0.00  0.00    +0.000 HD
ENDBRANCH  37  44
ENDBRANCH  30  34
ENDBRANCH   7  30
TORSDOF 8
ENDMDL
MODEL 9
REMARK VINA RESULT:      -5.9      2.683      7.491
REMARK  Name = 
REMARK  11 active torsions:
REMARK  status: ('A' for Active; 'I' for Inactive)
REMARK    1  A    between atoms: O_1  and  C_16
REMARK    2  A    between atoms: O_1  and  C_22
REMARK    3  A    between atoms: O_6  and  C_24
REMARK    4  A    between atoms: O_8  and  C_26
REMARK    5  A    between atoms: O_11  and  C_36
REMARK    6  A    between atoms: O_11  and  C_41
REMARK    7  A    between atoms: O_12  and  C_37
REMARK    8  A    between atoms: O_12  and  C_42
REMARK    9  A    between atoms: O_13  and  C_39
REMARK   10  A    between atoms: C_17  and  C_23
REMARK   11  A    between atoms: C_35  and  C_40
REMARK                            x       y       z     vdW  Elec       q    Type
REMARK                         _______ _______ _______ _____ _____    ______ ____
ROOT
ATOM      1  O   UNL     1      52.726   1.248   2.893  0.00  0.00    +0.000 OA
ATOM      2  O   UNL     1      51.853   3.367   2.969  0.00  0.00    +0.000 OA
ATOM      3  O   UNL     1      49.479  -0.086  10.537  0.00  0.00    +0.000 OA
ATOM      4  O   UNL     1      49.185   2.306  10.436  0.00  0.00    +0.000 OA
ATOM      5  C   UNL     1      52.249   0.567   5.055  0.00  0.00    +0.000 C 
ATOM      6  C   UNL     1      51.373   1.762   4.731  0.00  0.00    +0.000 C 
ATOM      7  C   UNL     1      51.544  -0.357   6.040  0.00  0.00    +0.000 C 
ATOM      8  C   UNL     1      51.253   2.691   5.939  0.00  0.00    +0.000 C 
ATOM      9  C   UNL     1      50.944   0.440   7.198  0.00  0.00    +0.000 A 
ATOM     10  C   UNL     1      50.770   1.861   7.141  0.00  0.00    +0.000 A 
ATOM     11  C   UNL     1      52.547   0.052   3.670  0.00  0.00    +0.000 C 
ATOM     12  C   UNL     1      52.009   2.266   3.471  0.00  0.00    +0.000 C 
ATOM     13  C   UNL     1      50.516  -0.263   8.341  0.00  0.00    +0.000 A 
ATOM     14  C   UNL     1      50.174   2.541   8.223  0.00  0.00    +0.000 A 
ATOM     15  C   UNL     1      49.939   0.445   9.373  0.00  0.00    +0.000 A 
ATOM     16  C   UNL     1      49.772   1.806   9.316  0.00  0.00    +0.000 A 
ATOM     17  C   UNL     1      49.003   1.100  11.207  0.00  0.00    +0.000 C 
ENDROOT
BRANCH   8  18
ATOM     18  C   UNL     1      52.505   3.517   6.243  0.00  0.00    +0.000 A 
ATOM     19  C   UNL     1      53.698   2.947   6.721  0.00  0.00    +0.000 A 
ATOM     20  C   UNL     1      52.478   4.906   6.029  0.00  0.00    +0.000 A 
ATOM     21  C   UNL     1      53.610   5.688   6.260  0.00  0.00    +0.000 A 
ATOM     22  C   UNL     1      54.842   3.716   6.980  0.00  0.00    +0.000 A 
ATOM     23  C   UNL     1      54.785   5.090   6.744  0.00  0.00    +0.000 A 
BRANCH  21  24
ATOM     24  O   UNL     1      53.694   7.047   6.061  0.00  0.00    +0.000 OA
ATOM     25  C   UNL     1      52.753   7.611   5.152  0.00  0.00    +0.000 C 
ENDBRANCH  21  24
BRANCH  22  26
ATOM     26  O   UNL     1      55.894   2.968   7.436  0.00  0.00    +0.000 OA
ATOM     27  C   UNL     1      55.825   1.558   7.284  0.00  0.00    +0.000 C 
ENDBRANCH  22  26
BRANCH  23  28
ATOM     28  O   UNL     1      55.864   5.910   6.959  0.00  0.00    +0.000 OA
ATOM     29  H   UNL     1      55.550   6.578   7.599  0.00  0.00    +0.000 HD
ENDBRANCH  23  28
ENDBRANCH   8  18
BRANCH   7  30
ATOM     30  O   UNL     1      50.454  -1.008   5.385  0.00  0.00    +0.000 OA
BRANCH  30  34
ATOM     31  O   UNL     1      51.628  -2.814   6.295  0.00  0.00    +0.000 OA
ATOM     32  O   UNL     1      52.188  -6.251   5.110  0.00  0.00    +0.000 OA
ATOM     33  O   UNL     1      53.010  -6.064   7.319  0.00  0.00    +0.000 OA
ATOM     34  C   UNL     1      50.510  -2.437   5.490  0.00  0.00    +0.000 C 
ATOM     35  C   UNL     1      50.615  -2.988   4.049  0.00  0.00    +0.000 C 
ATOM     36  C   UNL     1      52.034  -4.832   5.008  0.00  0.00    +0.000 C 
ATOM     37  C   UNL     1      50.888  -4.498   4.052  0.00  0.00    +0.000 C 
ATOM     38  C   UNL     1      51.741  -4.233   6.380  0.00  0.00    +0.000 C 
ATOM     39  C   UNL     1      52.875  -4.644   7.313  0.00  0.00    +0.000 C 
ATOM     40  C   UNL     1      53.256  -6.571   6.007  0.00  0.00    +0.000 C 
ATOM     41  C   UNL     1      53.353  -8.083   6.098  0.00  0.00    +0.000 C 
BRANCH  35  42
ATOM     42  O   UNL     1      49.390  -2.711   3.348  0.00  0.00    +0.000 OA
ATOM     43  H   UNL     1      49.523  -3.034   2.436  0.00  0.00    +0.000 HD
ENDBRANCH  35  42
BRANCH  37  44
ATOM     44  O   UNL     1      51.253  -4.939   2.734  0.00  0.00    +0.000 OA
ATOM     45  H   UNL     1      51.406  -4.128   2.213  0.00  0.00    +0.000 HD
ENDBRANCH  37  44
ENDBRANCH  30  34
ENDBRANCH   7  30
TORSDOF 8
ENDMDL
