MODEL 1
REMARK VINA RESULT:      -6.5      0.000      0.000
REMARK  Name = Foretinib.pdbqt.pdb
REMARK  11 active torsions:
REMARK  status: ('A' for Active; 'I' for Inactive)
REMARK    1  A    between atoms: C_2  and  N_31
REMARK    2  A    between atoms: C_7  and  O_8
REMARK    3  A    between atoms: O_8  and  C_9
REMARK    4  A    between atoms: C_17  and  O_19
REMARK    5  A    between atoms: C_18  and  O_29
REMARK    6  A    between atoms: O_19  and  C_20
REMARK    7  A    between atoms: C_21  and  C_22
REMARK    8  A    between atoms: C_22  and  N_23
REMARK    9  A    between atoms: C_32  and  C_35
REMARK   10  A    between atoms: C_35  and  C_38
REMARK   11  A    between atoms: N_40  and  C_42
REMARK                            x       y       z     vdW  Elec       q    Type
REMARK                         _______ _______ _______ _____ _____    ______ ____
ROOT
ATOM      1  F   UNL     1      32.804  14.162  24.155  0.00  0.00    +0.000 F 
ATOM      2  C   UNL     1      35.681  14.484  21.968  0.00  0.00    +0.000 A 
ATOM      3  C   UNL     1      34.615  14.822  22.802  0.00  0.00    +0.000 A 
ATOM      4  C   UNL     1      35.962  13.139  21.720  0.00  0.00    +0.000 A 
ATOM      5  C   UNL     1      33.845  13.819  23.383  0.00  0.00    +0.000 A 
ATOM      6  C   UNL     1      35.190  12.135  22.300  0.00  0.00    +0.000 A 
ATOM      7  C   UNL     1      34.143  12.475  23.154  0.00  0.00    +0.000 A 
ENDROOT
BRANCH   2   8
ATOM      8  N   UNL     1      36.499  15.447  21.348  0.00  0.00    +0.000 N 
ATOM      9  C   UNL     1      36.076  16.383  20.419  0.00  0.00    +0.000 C 
ATOM     10  O   UNL     1      34.940  16.501  19.976  0.00  0.00    +0.000 OA
ATOM     11  H   UNL     1      37.489  15.421  21.577  0.00  0.00    +0.000 HD
BRANCH   9  12
ATOM     12  C   UNL     1      37.162  17.277  19.896  0.00  0.00    +0.000 C 
ATOM     13  C   UNL     1      38.092  16.719  18.921  0.00  0.00    +0.000 C 
ATOM     14  C   UNL     1      38.529  16.990  20.315  0.00  0.00    +0.000 C 
BRANCH  12  15
ATOM     15  C   UNL     1      36.762  18.712  19.720  0.00  0.00    +0.000 C 
ATOM     16  O   UNL     1      37.039  19.277  18.668  0.00  0.00    +0.000 OA
ATOM     17  N   UNL     1      36.053  19.252  20.779  0.00  0.00    +0.000 N 
ATOM     18  H   UNL     1      35.845  18.648  21.569  0.00  0.00    +0.000 HD
BRANCH  17  19
ATOM     19  C   UNL     1      35.558  20.567  20.845  0.00  0.00    +0.000 A 
ATOM     20  C   UNL     1      34.198  20.763  20.596  0.00  0.00    +0.000 A 
ATOM     21  C   UNL     1      33.648  22.042  20.646  0.00  0.00    +0.000 A 
ATOM     22  C   UNL     1      34.469  23.123  20.947  0.00  0.00    +0.000 A 
ATOM     23  F   UNL     1      33.943  24.354  20.998  0.00  0.00    +0.000 F 
ATOM     24  C   UNL     1      35.824  22.947  21.200  0.00  0.00    +0.000 A 
ATOM     25  C   UNL     1      36.366  21.665  21.147  0.00  0.00    +0.000 A 
ENDBRANCH  17  19
ENDBRANCH  12  15
ENDBRANCH   9  12
ENDBRANCH   2   8
BRANCH   7  26
ATOM     26  O   UNL     1      33.376  11.448  23.646  0.00  0.00    +0.000 OA
BRANCH  26  27
ATOM     27  C   UNL     1      33.162  10.366  22.814  0.00  0.00    +0.000 A 
ATOM     28  C   UNL     1      33.768   9.145  23.148  0.00  0.00    +0.000 A 
ATOM     29  C   UNL     1      33.500   8.034  22.329  0.00  0.00    +0.000 A 
ATOM     30  C   UNL     1      34.625   9.006  24.251  0.00  0.00    +0.000 A 
ATOM     31  N   UNL     1      32.686   8.107  21.264  0.00  0.00    +0.000 NA
ATOM     32  C   UNL     1      34.103   6.827  22.650  0.00  0.00    +0.000 A 
ATOM     33  C   UNL     1      32.111   9.298  20.984  0.00  0.00    +0.000 A 
ATOM     34  C   UNL     1      32.303  10.447  21.724  0.00  0.00    +0.000 A 
ATOM     35  C   UNL     1      34.957   6.681  23.750  0.00  0.00    +0.000 A 
ATOM     36  C   UNL     1      35.224   7.784  24.563  0.00  0.00    +0.000 A 
BRANCH  36  37
ATOM     37  O   UNL     1      36.074   7.591  25.626  0.00  0.00    +0.000 OA
ATOM     38  C   UNL     1      35.496   7.721  26.896  0.00  0.00    +0.000 C 
ENDBRANCH  36  37
BRANCH  35  39
ATOM     39  O   UNL     1      35.566   5.493  24.079  0.00  0.00    +0.000 OA
BRANCH  39  40
ATOM     40  C   UNL     1      36.568   5.134  23.280  0.00  0.00    +0.000 C 
ATOM     41  C   UNL     1      37.713   4.727  22.346  0.00  0.00    +0.000 C 
BRANCH  41  42
ATOM     42  C   UNL     1      38.857   4.326  21.409  0.00  0.00    +0.000 C 
BRANCH  42  43
ATOM     43  N   UNL     1      39.943   3.945  20.517  0.00  0.00    +0.000 N 
ATOM     44  C   UNL     1      39.720   2.513  20.153  0.00  0.00    +0.000 C 
ATOM     45  C   UNL     1      39.292   1.906  18.777  0.00  0.00    +0.000 C 
ATOM     46  O   UNL     1      38.998   2.420  17.563  0.00  0.00    +0.000 OA
ATOM     47  C   UNL     1      39.193   3.713  17.892  0.00  0.00    +0.000 C 
ATOM     48  C   UNL     1      39.610   4.500  19.171  0.00  0.00    +0.000 C 
ENDBRANCH  42  43
ENDBRANCH  41  42
ENDBRANCH  39  40
ENDBRANCH  35  39
ENDBRANCH  26  27
ENDBRANCH   7  26
TORSDOF 11
ENDMDL
MODEL 2
REMARK VINA RESULT:      -6.3      4.467      9.172
REMARK  Name = Foretinib.pdbqt.pdb
REMARK  11 active torsions:
REMARK  status: ('A' for Active; 'I' for Inactive)
REMARK    1  A    between atoms: C_2  and  N_31
REMARK    2  A    between atoms: C_7  and  O_8
REMARK    3  A    between atoms: O_8  and  C_9
REMARK    4  A    between atoms: C_17  and  O_19
REMARK    5  A    between atoms: C_18  and  O_29
REMARK    6  A    between atoms: O_19  and  C_20
REMARK    7  A    between atoms: C_21  and  C_22
REMARK    8  A    between atoms: C_22  and  N_23
REMARK    9  A    between atoms: C_32  and  C_35
REMARK   10  A    between atoms: C_35  and  C_38
REMARK   11  A    between atoms: N_40  and  C_42
REMARK                            x       y       z     vdW  Elec       q    Type
REMARK                         _______ _______ _______ _____ _____    ______ ____
ROOT
ATOM      1  F   UNL     1      34.869  20.731  20.748  0.00  0.00    +0.000 F 
ATOM      2  C   UNL     1      38.165  22.245  20.824  0.00  0.00    +0.000 A 
ATOM      3  C   UNL     1      36.817  22.009  21.092  0.00  0.00    +0.000 A 
ATOM      4  C   UNL     1      38.858  21.389  19.965  0.00  0.00    +0.000 A 
ATOM      5  C   UNL     1      36.174  20.923  20.506  0.00  0.00    +0.000 A 
ATOM      6  C   UNL     1      38.213  20.302  19.377  0.00  0.00    +0.000 A 
ATOM      7  C   UNL     1      36.874  20.054  19.668  0.00  0.00    +0.000 A 
ENDROOT
BRANCH   2   8
ATOM      8  N   UNL     1      38.876  23.325  21.381  0.00  0.00    +0.000 N 
ATOM      9  C   UNL     1      38.756  24.650  20.996  0.00  0.00    +0.000 C 
ATOM     10  O   UNL     1      38.040  25.082  20.101  0.00  0.00    +0.000 OA
ATOM     11  H   UNL     1      39.560  23.100  22.098  0.00  0.00    +0.000 HD
BRANCH   9  12
ATOM     12  C   UNL     1      39.650  25.599  21.740  0.00  0.00    +0.000 C 
ATOM     13  C   UNL     1      39.202  26.979  21.889  0.00  0.00    +0.000 C 
ATOM     14  C   UNL     1      40.317  26.641  20.966  0.00  0.00    +0.000 C 
BRANCH  12  15
ATOM     15  C   UNL     1      40.391  24.989  22.892  0.00  0.00    +0.000 C 
ATOM     16  O   UNL     1      41.438  24.392  22.672  0.00  0.00    +0.000 OA
ATOM     17  N   UNL     1      39.821  25.216  24.134  0.00  0.00    +0.000 N 
ATOM     18  H   UNL     1      38.977  25.778  24.174  0.00  0.00    +0.000 HD
BRANCH  17  19
ATOM     19  C   UNL     1      40.334  24.761  25.362  0.00  0.00    +0.000 A 
ATOM     20  C   UNL     1      40.962  25.694  26.189  0.00  0.00    +0.000 A 
ATOM     21  C   UNL     1      41.490  25.305  27.418  0.00  0.00    +0.000 A 
ATOM     22  C   UNL     1      41.384  23.977  27.814  0.00  0.00    +0.000 A 
ATOM     23  F   UNL     1      41.888  23.600  28.996  0.00  0.00    +0.000 F 
ATOM     24  C   UNL     1      40.759  23.034  27.005  0.00  0.00    +0.000 A 
ATOM     25  C   UNL     1      40.235  23.431  25.778  0.00  0.00    +0.000 A 
ENDBRANCH  17  19
ENDBRANCH  12  15
ENDBRANCH   9  12
ENDBRANCH   2   8
BRANCH   7  26
ATOM     26  O   UNL     1      36.274  19.008  19.011  0.00  0.00    +0.000 OA
BRANCH  26  27
ATOM     27  C   UNL     1      36.442  17.746  19.547  0.00  0.00    +0.000 A 
ATOM     28  C   UNL     1      35.295  17.033  19.932  0.00  0.00    +0.000 A 
ATOM     29  C   UNL     1      35.470  15.728  20.424  0.00  0.00    +0.000 A 
ATOM     30  C   UNL     1      34.005  17.579  19.848  0.00  0.00    +0.000 A 
ATOM     31  N   UNL     1      36.679  15.153  20.522  0.00  0.00    +0.000 NA
ATOM     32  C   UNL     1      34.341  15.022  20.813  0.00  0.00    +0.000 A 
ATOM     33  C   UNL     1      37.757  15.868  20.128  0.00  0.00    +0.000 A 
ATOM     34  C   UNL     1      37.696  17.153  19.629  0.00  0.00    +0.000 A 
ATOM     35  C   UNL     1      33.051  15.560  20.729  0.00  0.00    +0.000 A 
ATOM     36  C   UNL     1      32.878  16.856  20.242  0.00  0.00    +0.000 A 
BRANCH  36  37
ATOM     37  O   UNL     1      31.593  17.341  20.187  0.00  0.00    +0.000 OA
ATOM     38  C   UNL     1      31.273  18.083  19.042  0.00  0.00    +0.000 C 
ENDBRANCH  36  37
BRANCH  35  39
ATOM     39  O   UNL     1      31.922  14.874  21.115  0.00  0.00    +0.000 OA
BRANCH  39  40
ATOM     40  C   UNL     1      32.137  13.633  21.544  0.00  0.00    +0.000 C 
ATOM     41  C   UNL     1      32.395  12.201  22.025  0.00  0.00    +0.000 C 
BRANCH  41  42
ATOM     42  C   UNL     1      32.660  10.770  22.505  0.00  0.00    +0.000 C 
BRANCH  42  43
ATOM     43  N   UNL     1      32.913   9.410  22.960  0.00  0.00    +0.000 N 
ATOM     44  C   UNL     1      33.977   8.849  22.073  0.00  0.00    +0.000 C 
ATOM     45  C   UNL     1      35.464   8.512  22.418  0.00  0.00    +0.000 C 
ATOM     46  O   UNL     1      36.227   8.608  23.529  0.00  0.00    +0.000 OA
ATOM     47  C   UNL     1      35.269   9.119  24.329  0.00  0.00    +0.000 C 
ATOM     48  C   UNL     1      33.769   9.517  24.180  0.00  0.00    +0.000 C 
ENDBRANCH  42  43
ENDBRANCH  41  42
ENDBRANCH  39  40
ENDBRANCH  35  39
ENDBRANCH  26  27
ENDBRANCH   7  26
TORSDOF 11
ENDMDL
MODEL 3
REMARK VINA RESULT:      -6.2     22.885     28.294
REMARK  Name = Foretinib.pdbqt.pdb
REMARK  11 active torsions:
REMARK  status: ('A' for Active; 'I' for Inactive)
REMARK    1  A    between atoms: C_2  and  N_31
REMARK    2  A    between atoms: C_7  and  O_8
REMARK    3  A    between atoms: O_8  and  C_9
REMARK    4  A    between atoms: C_17  and  O_19
REMARK    5  A    between atoms: C_18  and  O_29
REMARK    6  A    between atoms: O_19  and  C_20
REMARK    7  A    between atoms: C_21  and  C_22
REMARK    8  A    between atoms: C_22  and  N_23
REMARK    9  A    between atoms: C_32  and  C_35
REMARK   10  A    between atoms: C_35  and  C_38
REMARK   11  A    between atoms: N_40  and  C_42
REMARK                            x       y       z     vdW  Elec       q    Type
REMARK                         _______ _______ _______ _____ _____    ______ ____
ROOT
ATOM      1  F   UNL     1      49.914  -4.734   3.735  0.00  0.00    +0.000 F 
ATOM      2  C   UNL     1      50.318  -5.420   7.275  0.00  0.00    +0.000 A 
ATOM      3  C   UNL     1      50.132  -5.618   5.906  0.00  0.00    +0.000 A 
ATOM      4  C   UNL     1      50.493  -4.124   7.765  0.00  0.00    +0.000 A 
ATOM      5  C   UNL     1      50.128  -4.528   5.042  0.00  0.00    +0.000 A 
ATOM      6  C   UNL     1      50.487  -3.032   6.899  0.00  0.00    +0.000 A 
ATOM      7  C   UNL     1      50.329  -3.237   5.531  0.00  0.00    +0.000 A 
ENDROOT
BRANCH   2   8
ATOM      8  N   UNL     1      50.331  -6.477   8.204  0.00  0.00    +0.000 N 
ATOM      9  C   UNL     1      51.405  -7.318   8.448  0.00  0.00    +0.000 C 
ATOM     10  O   UNL     1      52.490  -7.291   7.882  0.00  0.00    +0.000 OA
ATOM     11  H   UNL     1      49.465  -6.656   8.704  0.00  0.00    +0.000 HD
BRANCH   9  12
ATOM     12  C   UNL     1      51.142  -8.380   9.476  0.00  0.00    +0.000 C 
ATOM     13  C   UNL     1      51.995  -8.405  10.659  0.00  0.00    +0.000 C 
ATOM     14  C   UNL     1      52.128  -9.446   9.608  0.00  0.00    +0.000 C 
BRANCH  12  15
ATOM     15  C   UNL     1      49.695  -8.726   9.665  0.00  0.00    +0.000 C 
ATOM     16  O   UNL     1      49.025  -9.017   8.681  0.00  0.00    +0.000 OA
ATOM     17  N   UNL     1      49.266  -8.731  10.981  0.00  0.00    +0.000 N 
ATOM     18  H   UNL     1      49.948  -8.523  11.704  0.00  0.00    +0.000 HD
BRANCH  17  19
ATOM     19  C   UNL     1      47.963  -9.036  11.413  0.00  0.00    +0.000 A 
ATOM     20  C   UNL     1      47.150  -7.977  11.825  0.00  0.00    +0.000 A 
ATOM     21  C   UNL     1      45.850  -8.215  12.264  0.00  0.00    +0.000 A 
ATOM     22  C   UNL     1      45.368  -9.519  12.287  0.00  0.00    +0.000 A 
ATOM     23  F   UNL     1      44.117  -9.750  12.707  0.00  0.00    +0.000 F 
ATOM     24  C   UNL     1      46.161 -10.585  11.879  0.00  0.00    +0.000 A 
ATOM     25  C   UNL     1      47.460 -10.338  11.442  0.00  0.00    +0.000 A 
ENDBRANCH  17  19
ENDBRANCH  12  15
ENDBRANCH   9  12
ENDBRANCH   2   8
BRANCH   7  26
ATOM     26  O   UNL     1      50.267  -2.120   4.733  0.00  0.00    +0.000 OA
BRANCH  26  27
ATOM     27  C   UNL     1      51.342  -1.255   4.775  0.00  0.00    +0.000 A 
ATOM     28  C   UNL     1      51.225  -0.091   5.551  0.00  0.00    +0.000 A 
ATOM     29  C   UNL     1      52.343   0.757   5.634  0.00  0.00    +0.000 A 
ATOM     30  C   UNL     1      50.043   0.247   6.228  0.00  0.00    +0.000 A 
ATOM     31  N   UNL     1      53.501   0.482   5.012  0.00  0.00    +0.000 NA
ATOM     32  C   UNL     1      52.231   1.912   6.393  0.00  0.00    +0.000 A 
ATOM     33  C   UNL     1      53.577  -0.656   4.285  0.00  0.00    +0.000 A 
ATOM     34  C   UNL     1      52.543  -1.557   4.141  0.00  0.00    +0.000 A 
ATOM     35  C   UNL     1      51.055   2.254   7.073  0.00  0.00    +0.000 A 
ATOM     36  C   UNL     1      49.944   1.413   6.989  0.00  0.00    +0.000 A 
BRANCH  36  37
ATOM     37  O   UNL     1      48.812   1.797   7.668  0.00  0.00    +0.000 OA
ATOM     38  C   UNL     1      48.568   1.122   8.872  0.00  0.00    +0.000 C 
ENDBRANCH  36  37
BRANCH  35  39
ATOM     39  O   UNL     1      50.925   3.398   7.826  0.00  0.00    +0.000 OA
BRANCH  39  40
ATOM     40  C   UNL     1      51.587   4.455   7.363  0.00  0.00    +0.000 C 
ATOM     41  C   UNL     1      52.335   5.682   6.830  0.00  0.00    +0.000 C 
BRANCH  41  42
ATOM     42  C   UNL     1      53.080   6.913   6.302  0.00  0.00    +0.000 C 
BRANCH  42  43
ATOM     43  N   UNL     1      53.788   8.083   5.801  0.00  0.00    +0.000 N 
ATOM     44  C   UNL     1      55.009   7.581   5.101  0.00  0.00    +0.000 C 
ATOM     45  C   UNL     1      55.331   7.580   3.571  0.00  0.00    +0.000 C 
ATOM     46  O   UNL     1      54.676   7.987   2.462  0.00  0.00    +0.000 OA
ATOM     47  C   UNL     1      53.571   8.435   3.092  0.00  0.00    +0.000 C 
ATOM     48  C   UNL     1      53.072   8.524   4.567  0.00  0.00    +0.000 C 
ENDBRANCH  42  43
ENDBRANCH  41  42
ENDBRANCH  39  40
ENDBRANCH  35  39
ENDBRANCH  26  27
ENDBRANCH   7  26
TORSDOF 11
ENDMDL
MODEL 4
REMARK VINA RESULT:      -5.9      4.884      9.273
REMARK  Name = Foretinib.pdbqt.pdb
REMARK  11 active torsions:
REMARK  status: ('A' for Active; 'I' for Inactive)
REMARK    1  A    between atoms: C_2  and  N_31
REMARK    2  A    between atoms: C_7  and  O_8
REMARK    3  A    between atoms: O_8  and  C_9
REMARK    4  A    between atoms: C_17  and  O_19
REMARK    5  A    between atoms: C_18  and  O_29
REMARK    6  A    between atoms: O_19  and  C_20
REMARK    7  A    between atoms: C_21  and  C_22
REMARK    8  A    between atoms: C_22  and  N_23
REMARK    9  A    between atoms: C_32  and  C_35
REMARK   10  A    between atoms: C_35  and  C_38
REMARK   11  A    between atoms: N_40  and  C_42
REMARK                            x       y       z     vdW  Elec       q    Type
REMARK                         _______ _______ _______ _____ _____    ______ ____
ROOT
ATOM      1  F   UNL     1      34.637  20.973  19.577  0.00  0.00    +0.000 F 
ATOM      2  C   UNL     1      38.108  21.979  19.905  0.00  0.00    +0.000 A 
ATOM      3  C   UNL     1      36.714  22.028  19.925  0.00  0.00    +0.000 A 
ATOM      4  C   UNL     1      38.751  20.795  19.535  0.00  0.00    +0.000 A 
ATOM      5  C   UNL     1      35.976  20.898  19.584  0.00  0.00    +0.000 A 
ATOM      6  C   UNL     1      38.011  19.665  19.192  0.00  0.00    +0.000 A 
ATOM      7  C   UNL     1      36.620  19.709  19.240  0.00  0.00    +0.000 A 
ENDROOT
BRANCH   2   8
ATOM      8  N   UNL     1      38.915  23.083  20.237  0.00  0.00    +0.000 N 
ATOM      9  C   UNL     1      39.251  23.475  21.522  0.00  0.00    +0.000 C 
ATOM     10  O   UNL     1      38.881  22.943  22.561  0.00  0.00    +0.000 OA
ATOM     11  H   UNL     1      39.241  23.659  19.466  0.00  0.00    +0.000 HD
BRANCH   9  12
ATOM     12  C   UNL     1      40.107  24.706  21.595  0.00  0.00    +0.000 C 
ATOM     13  C   UNL     1      40.596  25.117  22.906  0.00  0.00    +0.000 C 
ATOM     14  C   UNL     1      39.529  25.891  22.220  0.00  0.00    +0.000 C 
BRANCH  12  15
ATOM     15  C   UNL     1      41.028  24.899  20.427  0.00  0.00    +0.000 C 
ATOM     16  O   UNL     1      40.655  25.596  19.490  0.00  0.00    +0.000 OA
ATOM     17  N   UNL     1      42.264  24.291  20.556  0.00  0.00    +0.000 N 
ATOM     18  H   UNL     1      42.459  23.787  21.417  0.00  0.00    +0.000 HD
BRANCH  17  19
ATOM     19  C   UNL     1      43.301  24.338  19.606  0.00  0.00    +0.000 A 
ATOM     20  C   UNL     1      44.419  25.119  19.904  0.00  0.00    +0.000 A 
ATOM     21  C   UNL     1      45.479  25.207  19.003  0.00  0.00    +0.000 A 
ATOM     22  C   UNL     1      45.411  24.506  17.804  0.00  0.00    +0.000 A 
ATOM     23  F   UNL     1      46.429  24.586  16.937  0.00  0.00    +0.000 F 
ATOM     24  C   UNL     1      44.307  23.722  17.492  0.00  0.00    +0.000 A 
ATOM     25  C   UNL     1      43.252  23.641  18.397  0.00  0.00    +0.000 A 
ENDBRANCH  17  19
ENDBRANCH  12  15
ENDBRANCH   9  12
ENDBRANCH   2   8
BRANCH   7  26
ATOM     26  O   UNL     1      35.943  18.587  18.829  0.00  0.00    +0.000 OA
BRANCH  26  27
ATOM     27  C   UNL     1      36.131  17.433  19.564  0.00  0.00    +0.000 A 
ATOM     28  C   UNL     1      34.994  16.724  19.983  0.00  0.00    +0.000 A 
ATOM     29  C   UNL     1      35.193  15.520  20.681  0.00  0.00    +0.000 A 
ATOM     30  C   UNL     1      33.689  17.178  19.736  0.00  0.00    +0.000 A 
ATOM     31  N   UNL     1      36.417  15.035  20.941  0.00  0.00    +0.000 NA
ATOM     32  C   UNL     1      34.073  14.819  21.104  0.00  0.00    +0.000 A 
ATOM     33  C   UNL     1      37.486  15.741  20.509  0.00  0.00    +0.000 A 
ATOM     34  C   UNL     1      37.402  16.929  19.813  0.00  0.00    +0.000 A 
ATOM     35  C   UNL     1      32.768  15.266  20.859  0.00  0.00    +0.000 A 
ATOM     36  C   UNL     1      32.572  16.462  20.167  0.00  0.00    +0.000 A 
BRANCH  36  37
ATOM     37  O   UNL     1      31.272  16.860  19.959  0.00  0.00    +0.000 OA
ATOM     38  C   UNL     1      31.032  17.539  18.757  0.00  0.00    +0.000 C 
ENDBRANCH  36  37
BRANCH  35  39
ATOM     39  O   UNL     1      31.648  14.585  21.276  0.00  0.00    +0.000 OA
BRANCH  39  40
ATOM     40  C   UNL     1      31.778  13.262  21.319  0.00  0.00    +0.000 C 
ATOM     41  C   UNL     1      31.914  11.736  21.357  0.00  0.00    +0.000 C 
BRANCH  41  42
ATOM     42  C   UNL     1      32.051  10.209  21.388  0.00  0.00    +0.000 C 
BRANCH  42  43
ATOM     43  N   UNL     1      32.181   8.760  21.418  0.00  0.00    +0.000 N 
ATOM     44  C   UNL     1      33.568   8.462  21.891  0.00  0.00    +0.000 C 
ATOM     45  C   UNL     1      34.029   7.847  23.252  0.00  0.00    +0.000 C 
ATOM     46  O   UNL     1      33.394   7.422  24.366  0.00  0.00    +0.000 OA
ATOM     47  C   UNL     1      32.143   7.695  23.943  0.00  0.00    +0.000 C 
ATOM     48  C   UNL     1      31.492   8.291  22.658  0.00  0.00    +0.000 C 
ENDBRANCH  42  43
ENDBRANCH  41  42
ENDBRANCH  39  40
ENDBRANCH  35  39
ENDBRANCH  26  27
ENDBRANCH   7  26
TORSDOF 11
ENDMDL
MODEL 5
REMARK VINA RESULT:      -5.9      3.288      3.753
REMARK  Name = Foretinib.pdbqt.pdb
REMARK  11 active torsions:
REMARK  status: ('A' for Active; 'I' for Inactive)
REMARK    1  A    between atoms: C_2  and  N_31
REMARK    2  A    between atoms: C_7  and  O_8
REMARK    3  A    between atoms: O_8  and  C_9
REMARK    4  A    between atoms: C_17  and  O_19
REMARK    5  A    between atoms: C_18  and  O_29
REMARK    6  A    between atoms: O_19  and  C_20
REMARK    7  A    between atoms: C_21  and  C_22
REMARK    8  A    between atoms: C_22  and  N_23
REMARK    9  A    between atoms: C_32  and  C_35
REMARK   10  A    between atoms: C_35  and  C_38
REMARK   11  A    between atoms: N_40  and  C_42
REMARK                            x       y       z     vdW  Elec       q    Type
REMARK                         _______ _______ _______ _____ _____    ______ ____
ROOT
ATOM      1  F   UNL     1      32.363  12.953  24.517  0.00  0.00    +0.000 F 
ATOM      2  C   UNL     1      35.350  13.984  22.734  0.00  0.00    +0.000 A 
ATOM      3  C   UNL     1      34.122  14.043  23.393  0.00  0.00    +0.000 A 
ATOM      4  C   UNL     1      36.002  12.756  22.600  0.00  0.00    +0.000 A 
ATOM      5  C   UNL     1      33.560  12.882  23.916  0.00  0.00    +0.000 A 
ATOM      6  C   UNL     1      35.437  11.594  23.122  0.00  0.00    +0.000 A 
ATOM      7  C   UNL     1      34.224  11.661  23.804  0.00  0.00    +0.000 A 
ENDROOT
BRANCH   2   8
ATOM      8  N   UNL     1      35.974  15.118  22.181  0.00  0.00    +0.000 N 
ATOM      9  C   UNL     1      35.700  15.659  20.936  0.00  0.00    +0.000 C 
ATOM     10  O   UNL     1      34.898  15.225  20.119  0.00  0.00    +0.000 OA
ATOM     11  H   UNL     1      36.714  15.545  22.731  0.00  0.00    +0.000 HD
BRANCH   9  12
ATOM     12  C   UNL     1      36.530  16.858  20.582  0.00  0.00    +0.000 C 
ATOM     13  C   UNL     1      37.187  16.868  19.279  0.00  0.00    +0.000 C 
ATOM     14  C   UNL     1      37.977  16.681  20.524  0.00  0.00    +0.000 C 
BRANCH  12  15
ATOM     15  C   UNL     1      35.996  18.163  21.092  0.00  0.00    +0.000 C 
ATOM     16  O   UNL     1      35.502  18.202  22.213  0.00  0.00    +0.000 OA
ATOM     17  N   UNL     1      36.169  19.236  20.234  0.00  0.00    +0.000 N 
ATOM     18  H   UNL     1      36.649  19.069  19.355  0.00  0.00    +0.000 HD
BRANCH  17  19
ATOM     19  C   UNL     1      35.768  20.560  20.491  0.00  0.00    +0.000 A 
ATOM     20  C   UNL     1      36.738  21.457  20.942  0.00  0.00    +0.000 A 
ATOM     21  C   UNL     1      36.403  22.781  21.215  0.00  0.00    +0.000 A 
ATOM     22  C   UNL     1      35.090  23.202  21.031  0.00  0.00    +0.000 A 
ATOM     23  F   UNL     1      34.765  24.475  21.290  0.00  0.00    +0.000 F 
ATOM     24  C   UNL     1      34.112  22.323  20.581  0.00  0.00    +0.000 A 
ATOM     25  C   UNL     1      34.455  21.001  20.312  0.00  0.00    +0.000 A 
ENDBRANCH  17  19
ENDBRANCH  12  15
ENDBRANCH   9  12
ENDBRANCH   2   8
BRANCH   7  26
ATOM     26  O   UNL     1      33.684  10.476  24.240  0.00  0.00    +0.000 OA
BRANCH  26  27
ATOM     27  C   UNL     1      33.276   9.575  23.276  0.00  0.00    +0.000 A 
ATOM     28  C   UNL     1      33.628   8.227  23.439  0.00  0.00    +0.000 A 
ATOM     29  C   UNL     1      33.161   7.307  22.485  0.00  0.00    +0.000 A 
ATOM     30  C   UNL     1      34.425   7.780  24.505  0.00  0.00    +0.000 A 
ATOM     31  N   UNL     1      32.392   7.676  21.448  0.00  0.00    +0.000 NA
ATOM     32  C   UNL     1      33.513   5.974  22.637  0.00  0.00    +0.000 A 
ATOM     33  C   UNL     1      32.063   8.982  21.334  0.00  0.00    +0.000 A 
ATOM     34  C   UNL     1      32.465   9.964  22.216  0.00  0.00    +0.000 A 
ATOM     35  C   UNL     1      34.306   5.521  23.699  0.00  0.00    +0.000 A 
ATOM     36  C   UNL     1      34.770   6.435  24.646  0.00  0.00    +0.000 A 
BRANCH  36  37
ATOM     37  O   UNL     1      35.551   5.942  25.665  0.00  0.00    +0.000 OA
ATOM     38  C   UNL     1      35.018   6.070  26.954  0.00  0.00    +0.000 C 
ENDBRANCH  36  37
BRANCH  35  39
ATOM     39  O   UNL     1      34.667   4.204  23.862  0.00  0.00    +0.000 OA
BRANCH  39  40
ATOM     40  C   UNL     1      34.197   3.373  22.935  0.00  0.00    +0.000 C 
ATOM     41  C   UNL     1      33.672   2.411  21.863  0.00  0.00    +0.000 C 
BRANCH  41  42
ATOM     42  C   UNL     1      33.151   1.445  20.794  0.00  0.00    +0.000 C 
BRANCH  42  43
ATOM     43  N   UNL     1      32.657   0.525  19.779  0.00  0.00    +0.000 N 
ATOM     44  C   UNL     1      31.633  -0.339  20.442  0.00  0.00    +0.000 C 
ATOM     45  C   UNL     1      30.083  -0.357  20.236  0.00  0.00    +0.000 C 
ATOM     46  O   UNL     1      29.219   0.340  19.467  0.00  0.00    +0.000 OA
ATOM     47  C   UNL     1      30.141   1.124  18.872  0.00  0.00    +0.000 C 
ATOM     48  C   UNL     1      31.690   1.292  18.938  0.00  0.00    +0.000 C 
ENDBRANCH  42  43
ENDBRANCH  41  42
ENDBRANCH  39  40
ENDBRANCH  35  39
ENDBRANCH  26  27
ENDBRANCH   7  26
TORSDOF 11
ENDMDL
MODEL 6
REMARK VINA RESULT:      -5.9     15.305     17.350
REMARK  Name = Foretinib.pdbqt.pdb
REMARK  11 active torsions:
REMARK  status: ('A' for Active; 'I' for Inactive)
REMARK    1  A    between atoms: C_2  and  N_31
REMARK    2  A    between atoms: C_7  and  O_8
REMARK    3  A    between atoms: O_8  and  C_9
REMARK    4  A    between atoms: C_17  and  O_19
REMARK    5  A    between atoms: C_18  and  O_29
REMARK    6  A    between atoms: O_19  and  C_20
REMARK    7  A    between atoms: C_21  and  C_22
REMARK    8  A    between atoms: C_22  and  N_23
REMARK    9  A    between atoms: C_32  and  C_35
REMARK   10  A    between atoms: C_35  and  C_38
REMARK   11  A    between atoms: N_40  and  C_42
REMARK                            x       y       z     vdW  Elec       q    Type
REMARK                         _______ _______ _______ _____ _____    ______ ____
ROOT
ATOM      1  F   UNL     1      47.616  24.304  21.518  0.00  0.00    +0.000 F 
ATOM      2  C   UNL     1      46.397  23.849  18.131  0.00  0.00    +0.000 A 
ATOM      3  C   UNL     1      46.546  24.359  19.421  0.00  0.00    +0.000 A 
ATOM      4  C   UNL     1      47.215  22.800  17.706  0.00  0.00    +0.000 A 
ATOM      5  C   UNL     1      47.510  23.824  20.270  0.00  0.00    +0.000 A 
ATOM      6  C   UNL     1      48.179  22.263  18.558  0.00  0.00    +0.000 A 
ATOM      7  C   UNL     1      48.343  22.793  19.836  0.00  0.00    +0.000 A 
ENDROOT
BRANCH   2   8
ATOM      8  N   UNL     1      45.443  24.341  17.221  0.00  0.00    +0.000 N 
ATOM      9  C   UNL     1      44.102  23.996  17.198  0.00  0.00    +0.000 C 
ATOM     10  O   UNL     1      43.547  23.196  17.941  0.00  0.00    +0.000 OA
ATOM     11  H   UNL     1      45.783  24.972  16.500  0.00  0.00    +0.000 HD
BRANCH   9  12
ATOM     12  C   UNL     1      43.309  24.651  16.105  0.00  0.00    +0.000 C 
ATOM     13  C   UNL     1      43.180  26.104  16.137  0.00  0.00    +0.000 C 
ATOM     14  C   UNL     1      42.021  25.233  16.465  0.00  0.00    +0.000 C 
BRANCH  12  15
ATOM     15  C   UNL     1      43.442  24.004  14.759  0.00  0.00    +0.000 C 
ATOM     16  O   UNL     1      44.523  23.524  14.438  0.00  0.00    +0.000 OA
ATOM     17  N   UNL     1      42.276  23.970  14.013  0.00  0.00    +0.000 N 
ATOM     18  H   UNL     1      41.435  24.358  14.429  0.00  0.00    +0.000 HD
BRANCH  17  19
ATOM     19  C   UNL     1      42.143  23.406  12.731  0.00  0.00    +0.000 A 
ATOM     20  C   UNL     1      42.882  23.975  11.692  0.00  0.00    +0.000 A 
ATOM     21  C   UNL     1      42.793  23.462  10.400  0.00  0.00    +0.000 A 
ATOM     22  C   UNL     1      41.961  22.375  10.156  0.00  0.00    +0.000 A 
ATOM     23  F   UNL     1      41.876  21.878   8.915  0.00  0.00    +0.000 F 
ATOM     24  C   UNL     1      41.220  21.794  11.178  0.00  0.00    +0.000 A 
ATOM     25  C   UNL     1      41.314  22.314  12.467  0.00  0.00    +0.000 A 
ENDBRANCH  17  19
ENDBRANCH  12  15
ENDBRANCH   9  12
ENDBRANCH   2   8
BRANCH   7  26
ATOM     26  O   UNL     1      49.263  22.184  20.654  0.00  0.00    +0.000 OA
BRANCH  26  27
ATOM     27  C   UNL     1      49.210  20.807  20.748  0.00  0.00    +0.000 A 
ATOM     28  C   UNL     1      50.180  20.059  20.062  0.00  0.00    +0.000 A 
ATOM     29  C   UNL     1      50.154  18.662  20.208  0.00  0.00    +0.000 A 
ATOM     30  C   UNL     1      51.153  20.656  19.245  0.00  0.00    +0.000 A 
ATOM     31  N   UNL     1      49.251  18.037  20.980  0.00  0.00    +0.000 NA
ATOM     32  C   UNL     1      51.106  17.917  19.528  0.00  0.00    +0.000 A 
ATOM     33  C   UNL     1      48.341  18.794  21.634  0.00  0.00    +0.000 A 
ATOM     34  C   UNL     1      48.281  20.170  21.563  0.00  0.00    +0.000 A 
ATOM     35  C   UNL     1      52.081  18.507  18.712  0.00  0.00    +0.000 A 
ATOM     36  C   UNL     1      52.105  19.894  18.567  0.00  0.00    +0.000 A 
BRANCH  36  37
ATOM     37  O   UNL     1      53.076  20.423  17.750  0.00  0.00    +0.000 OA
ATOM     38  C   UNL     1      52.622  21.302  16.757  0.00  0.00    +0.000 C 
ENDBRANCH  36  37
BRANCH  35  39
ATOM     39  O   UNL     1      53.028  17.783  18.027  0.00  0.00    +0.000 OA
BRANCH  39  40
ATOM     40  C   UNL     1      52.703  17.474  16.774  0.00  0.00    +0.000 C 
ATOM     41  C   UNL     1      52.344  17.111  15.329  0.00  0.00    +0.000 C 
BRANCH  41  42
ATOM     42  C   UNL     1      51.987  16.741  13.885  0.00  0.00    +0.000 C 
BRANCH  42  43
ATOM     43  N   UNL     1      51.648  16.391  12.513  0.00  0.00    +0.000 N 
ATOM     44  C   UNL     1      50.560  17.323  12.087  0.00  0.00    +0.000 C 
ATOM     45  C   UNL     1      50.620  18.492  11.051  0.00  0.00    +0.000 C 
ATOM     46  O   UNL     1      51.585  19.016  10.265  0.00  0.00    +0.000 OA
ATOM     47  C   UNL     1      52.569  18.180  10.652  0.00  0.00    +0.000 C 
ATOM     48  C   UNL     1      52.708  16.984  11.643  0.00  0.00    +0.000 C 
ENDBRANCH  42  43
ENDBRANCH  41  42
ENDBRANCH  39  40
ENDBRANCH  35  39
ENDBRANCH  26  27
ENDBRANCH   7  26
TORSDOF 11
ENDMDL
MODEL 7
REMARK VINA RESULT:      -5.9      8.046     11.413
REMARK  Name = Foretinib.pdbqt.pdb
REMARK  11 active torsions:
REMARK  status: ('A' for Active; 'I' for Inactive)
REMARK    1  A    between atoms: C_2  and  N_31
REMARK    2  A    between atoms: C_7  and  O_8
REMARK    3  A    between atoms: O_8  and  C_9
REMARK    4  A    between atoms: C_17  and  O_19
REMARK    5  A    between atoms: C_18  and  O_29
REMARK    6  A    between atoms: O_19  and  C_20
REMARK    7  A    between atoms: C_21  and  C_22
REMARK    8  A    between atoms: C_22  and  N_23
REMARK    9  A    between atoms: C_32  and  C_35
REMARK   10  A    between atoms: C_35  and  C_38
REMARK   11  A    between atoms: N_40  and  C_42
REMARK                            x       y       z     vdW  Elec       q    Type
REMARK                         _______ _______ _______ _____ _____    ______ ____
ROOT
ATOM      1  F   UNL     1      28.805   6.166  25.120  0.00  0.00    +0.000 F 
ATOM      2  C   UNL     1      31.726   7.127  23.193  0.00  0.00    +0.000 A 
ATOM      3  C   UNL     1      30.823   7.014  24.251  0.00  0.00    +0.000 A 
ATOM      4  C   UNL     1      31.468   6.461  21.993  0.00  0.00    +0.000 A 
ATOM      5  C   UNL     1      29.678   6.236  24.104  0.00  0.00    +0.000 A 
ATOM      6  C   UNL     1      30.320   5.684  21.847  0.00  0.00    +0.000 A 
ATOM      7  C   UNL     1      29.435   5.551  22.914  0.00  0.00    +0.000 A 
ENDROOT
BRANCH   2   8
ATOM      8  N   UNL     1      32.901   7.896  23.273  0.00  0.00    +0.000 N 
ATOM      9  C   UNL     1      33.045   9.194  22.809  0.00  0.00    +0.000 C 
ATOM     10  O   UNL     1      32.189   9.858  22.239  0.00  0.00    +0.000 OA
ATOM     11  H   UNL     1      33.719   7.441  23.669  0.00  0.00    +0.000 HD
BRANCH   9  12
ATOM     12  C   UNL     1      34.416   9.774  22.999  0.00  0.00    +0.000 C 
ATOM     13  C   UNL     1      35.553   9.010  22.497  0.00  0.00    +0.000 C 
ATOM     14  C   UNL     1      35.298   9.117  23.957  0.00  0.00    +0.000 C 
BRANCH  12  15
ATOM     15  C   UNL     1      34.487  11.267  22.879  0.00  0.00    +0.000 C 
ATOM     16  O   UNL     1      34.390  11.946  23.895  0.00  0.00    +0.000 OA
ATOM     17  N   UNL     1      34.713  11.737  21.597  0.00  0.00    +0.000 N 
ATOM     18  H   UNL     1      34.829  11.055  20.854  0.00  0.00    +0.000 HD
BRANCH  17  19
ATOM     19  C   UNL     1      34.832  13.091  21.233  0.00  0.00    +0.000 A 
ATOM     20  C   UNL     1      36.115  13.587  20.989  0.00  0.00    +0.000 A 
ATOM     21  C   UNL     1      36.299  14.919  20.625  0.00  0.00    +0.000 A 
ATOM     22  C   UNL     1      35.191  15.750  20.505  0.00  0.00    +0.000 A 
ATOM     23  F   UNL     1      35.364  17.031  20.153  0.00  0.00    +0.000 F 
ATOM     24  C   UNL     1      33.907  15.273  20.741  0.00  0.00    +0.000 A 
ATOM     25  C   UNL     1      33.732  13.941  21.106  0.00  0.00    +0.000 A 
ENDBRANCH  17  19
ENDBRANCH  12  15
ENDBRANCH   9  12
ENDBRANCH   2   8
BRANCH   7  26
ATOM     26  O   UNL     1      28.290   4.826  22.692  0.00  0.00    +0.000 OA
BRANCH  26  27
ATOM     27  C   UNL     1      27.314   5.412  21.909  0.00  0.00    +0.000 A 
ATOM     28  C   UNL     1      26.941   4.763  20.722  0.00  0.00    +0.000 A 
ATOM     29  C   UNL     1      25.908   5.334  19.959  0.00  0.00    +0.000 A 
ATOM     30  C   UNL     1      27.563   3.585  20.279  0.00  0.00    +0.000 A 
ATOM     31  N   UNL     1      25.273   6.456  20.336  0.00  0.00    +0.000 NA
ATOM     32  C   UNL     1      25.540   4.701  18.781  0.00  0.00    +0.000 A 
ATOM     33  C   UNL     1      25.653   7.043  21.493  0.00  0.00    +0.000 A 
ATOM     34  C   UNL     1      26.651   6.564  22.316  0.00  0.00    +0.000 A 
ATOM     35  C   UNL     1      26.156   3.525  18.335  0.00  0.00    +0.000 A 
ATOM     36  C   UNL     1      27.182   2.959  19.092  0.00  0.00    +0.000 A 
BRANCH  36  37
ATOM     37  O   UNL     1      27.759   1.809  18.607  0.00  0.00    +0.000 OA
ATOM     38  C   UNL     1      28.252   0.922  19.575  0.00  0.00    +0.000 C 
ENDBRANCH  36  37
BRANCH  35  39
ATOM     39  O   UNL     1      25.806   2.888  17.167  0.00  0.00    +0.000 OA
BRANCH  39  40
ATOM     40  C   UNL     1      24.639   3.263  16.649  0.00  0.00    +0.000 C 
ATOM     41  C   UNL     1      23.287   3.688  16.067  0.00  0.00    +0.000 C 
BRANCH  41  42
ATOM     42  C   UNL     1      21.933   4.115  15.490  0.00  0.00    +0.000 C 
BRANCH  42  43
ATOM     43  N   UNL     1      20.647   4.521  14.941  0.00  0.00    +0.000 N 
ATOM     44  C   UNL     1      20.862   5.840  14.271  0.00  0.00    +0.000 C 
ATOM     45  C   UNL     1      20.849   6.179  12.745  0.00  0.00    +0.000 C 
ATOM     46  O   UNL     1      20.663   5.463  11.615  0.00  0.00    +0.000 OA
ATOM     47  C   UNL     1      20.475   4.271  12.217  0.00  0.00    +0.000 C 
ATOM     48  C   UNL     1      20.450   3.740  13.683  0.00  0.00    +0.000 C 
ENDBRANCH  42  43
ENDBRANCH  41  42
ENDBRANCH  39  40
ENDBRANCH  35  39
ENDBRANCH  26  27
ENDBRANCH   7  26
TORSDOF 11
ENDMDL
MODEL 8
REMARK VINA RESULT:      -5.7     14.978     16.836
REMARK  Name = Foretinib.pdbqt.pdb
REMARK  11 active torsions:
REMARK  status: ('A' for Active; 'I' for Inactive)
REMARK    1  A    between atoms: C_2  and  N_31
REMARK    2  A    between atoms: C_7  and  O_8
REMARK    3  A    between atoms: O_8  and  C_9
REMARK    4  A    between atoms: C_17  and  O_19
REMARK    5  A    between atoms: C_18  and  O_29
REMARK    6  A    between atoms: O_19  and  C_20
REMARK    7  A    between atoms: C_21  and  C_22
REMARK    8  A    between atoms: C_22  and  N_23
REMARK    9  A    between atoms: C_32  and  C_35
REMARK   10  A    between atoms: C_35  and  C_38
REMARK   11  A    between atoms: N_40  and  C_42
REMARK                            x       y       z     vdW  Elec       q    Type
REMARK                         _______ _______ _______ _____ _____    ______ ____
ROOT
ATOM      1  F   UNL     1      47.753  24.278  21.606  0.00  0.00    +0.000 F 
ATOM      2  C   UNL     1      46.558  23.834  18.209  0.00  0.00    +0.000 A 
ATOM      3  C   UNL     1      46.687  24.329  19.507  0.00  0.00    +0.000 A 
ATOM      4  C   UNL     1      47.413  22.821  17.770  0.00  0.00    +0.000 A 
ATOM      5  C   UNL     1      47.666  23.814  20.350  0.00  0.00    +0.000 A 
ATOM      6  C   UNL     1      48.392  22.304  18.616  0.00  0.00    +0.000 A 
ATOM      7  C   UNL     1      48.536  22.819  19.902  0.00  0.00    +0.000 A 
ENDROOT
BRANCH   2   8
ATOM      8  N   UNL     1      45.589  24.308  17.305  0.00  0.00    +0.000 N 
ATOM      9  C   UNL     1      44.259  23.923  17.277  0.00  0.00    +0.000 C 
ATOM     10  O   UNL     1      43.728  23.100  18.012  0.00  0.00    +0.000 OA
ATOM     11  H   UNL     1      45.910  24.956  16.590  0.00  0.00    +0.000 HD
BRANCH   9  12
ATOM     12  C   UNL     1      43.447  24.567  16.192  0.00  0.00    +0.000 C 
ATOM     13  C   UNL     1      43.269  26.014  16.243  0.00  0.00    +0.000 C 
ATOM     14  C   UNL     1      42.139  25.100  16.557  0.00  0.00    +0.000 C 
BRANCH  12  15
ATOM     15  C   UNL     1      43.603  23.942  14.837  0.00  0.00    +0.000 C 
ATOM     16  O   UNL     1      44.637  23.335  14.583  0.00  0.00    +0.000 OA
ATOM     17  N   UNL     1      42.505  24.078  14.005  0.00  0.00    +0.000 N 
ATOM     18  H   UNL     1      41.690  24.561  14.369  0.00  0.00    +0.000 HD
BRANCH  17  19
ATOM     19  C   UNL     1      42.405  23.569  12.697  0.00  0.00    +0.000 A 
ATOM     20  C   UNL     1      41.523  22.508  12.479  0.00  0.00    +0.000 A 
ATOM     21  C   UNL     1      41.379  21.961  11.206  0.00  0.00    +0.000 A 
ATOM     22  C   UNL     1      42.122  22.483  10.153  0.00  0.00    +0.000 A 
ATOM     23  F   UNL     1      41.984  21.960   8.928  0.00  0.00    +0.000 F 
ATOM     24  C   UNL     1      43.003  23.540  10.351  0.00  0.00    +0.000 A 
ATOM     25  C   UNL     1      43.141  24.080  11.627  0.00  0.00    +0.000 A 
ENDBRANCH  17  19
ENDBRANCH  12  15
ENDBRANCH   9  12
ENDBRANCH   2   8
BRANCH   7  26
ATOM     26  O   UNL     1      49.474  22.229  20.712  0.00  0.00    +0.000 OA
BRANCH  26  27
ATOM     27  C   UNL     1      49.314  20.885  20.988  0.00  0.00    +0.000 A 
ATOM     28  C   UNL     1      50.283  19.991  20.505  0.00  0.00    +0.000 A 
ATOM     29  C   UNL     1      50.144  18.633  20.838  0.00  0.00    +0.000 A 
ATOM     30  C   UNL     1      51.361  20.407  19.708  0.00  0.00    +0.000 A 
ATOM     31  N   UNL     1      49.137  18.179  21.600  0.00  0.00    +0.000 NA
ATOM     32  C   UNL     1      51.094  17.744  20.357  0.00  0.00    +0.000 A 
ATOM     33  C   UNL     1      48.232  19.074  22.057  0.00  0.00    +0.000 A 
ATOM     34  C   UNL     1      48.277  20.427  21.793  0.00  0.00    +0.000 A 
ATOM     35  C   UNL     1      52.173  18.152  19.563  0.00  0.00    +0.000 A 
ATOM     36  C   UNL     1      52.309  19.501  19.232  0.00  0.00    +0.000 A 
BRANCH  36  37
ATOM     37  O   UNL     1      53.381  19.850  18.444  0.00  0.00    +0.000 OA
ATOM     38  C   UNL     1      53.069  20.254  17.139  0.00  0.00    +0.000 C 
ENDBRANCH  36  37
BRANCH  35  39
ATOM     39  O   UNL     1      53.120  17.283  19.074  0.00  0.00    +0.000 OA
BRANCH  39  40
ATOM     40  C   UNL     1      53.353  16.217  19.836  0.00  0.00    +0.000 C 
ATOM     41  C   UNL     1      53.629  15.000  20.726  0.00  0.00    +0.000 C 
BRANCH  41  42
ATOM     42  C   UNL     1      53.902  13.787  21.622  0.00  0.00    +0.000 C 
BRANCH  42  43
ATOM     43  N   UNL     1      54.163  12.634  22.471  0.00  0.00    +0.000 N 
ATOM     44  C   UNL     1      54.712  13.162  23.758  0.00  0.00    +0.000 C 
ATOM     45  C   UNL     1      54.044  13.191  25.171  0.00  0.00    +0.000 C 
ATOM     46  O   UNL     1      52.851  12.794  25.666  0.00  0.00    +0.000 OA
ATOM     47  C   UNL     1      52.353  12.322  24.505  0.00  0.00    +0.000 C 
ATOM     48  C   UNL     1      52.846  12.204  23.031  0.00  0.00    +0.000 C 
ENDBRANCH  42  43
ENDBRANCH  41  42
ENDBRANCH  39  40
ENDBRANCH  35  39
ENDBRANCH  26  27
ENDBRANCH   7  26
TORSDOF 11
ENDMDL
MODEL 9
REMARK VINA RESULT:      -5.7     17.646     21.505
REMARK  Name = Foretinib.pdbqt.pdb
REMARK  11 active torsions:
REMARK  status: ('A' for Active; 'I' for Inactive)
REMARK    1  A    between atoms: C_2  and  N_31
REMARK    2  A    between atoms: C_7  and  O_8
REMARK    3  A    between atoms: O_8  and  C_9
REMARK    4  A    between atoms: C_17  and  O_19
REMARK    5  A    between atoms: C_18  and  O_29
REMARK    6  A    between atoms: O_19  and  C_20
REMARK    7  A    between atoms: C_21  and  C_22
REMARK    8  A    between atoms: C_22  and  N_23
REMARK    9  A    between atoms: C_32  and  C_35
REMARK   10  A    between atoms: C_35  and  C_38
REMARK   11  A    between atoms: N_40  and  C_42
REMARK                            x       y       z     vdW  Elec       q    Type
REMARK                         _______ _______ _______ _____ _____    ______ ____
ROOT
ATOM      1  F   UNL     1      21.068   3.113  10.840  0.00  0.00    +0.000 F 
ATOM      2  C   UNL     1      20.836   5.283   7.942  0.00  0.00    +0.000 A 
ATOM      3  C   UNL     1      21.151   4.188   8.747  0.00  0.00    +0.000 A 
ATOM      4  C   UNL     1      20.100   6.343   8.478  0.00  0.00    +0.000 A 
ATOM      5  C   UNL     1      20.727   4.158  10.072  0.00  0.00    +0.000 A 
ATOM      6  C   UNL     1      19.678   6.312   9.806  0.00  0.00    +0.000 A 
ATOM      7  C   UNL     1      19.971   5.205  10.598  0.00  0.00    +0.000 A 
ENDROOT
BRANCH   2   8
ATOM      8  N   UNL     1      21.233   5.380   6.596  0.00  0.00    +0.000 N 
ATOM      9  C   UNL     1      20.449   5.054   5.501  0.00  0.00    +0.000 C 
ATOM     10  O   UNL     1      19.308   4.611   5.534  0.00  0.00    +0.000 OA
ATOM     11  H   UNL     1      22.189   5.676   6.422  0.00  0.00    +0.000 HD
BRANCH   9  12
ATOM     12  C   UNL     1      21.128   5.228   4.175  0.00  0.00    +0.000 C 
ATOM     13  C   UNL     1      21.562   6.571   3.804  0.00  0.00    +0.000 C 
ATOM     14  C   UNL     1      20.396   5.939   3.132  0.00  0.00    +0.000 C 
BRANCH  12  15
ATOM     15  C   UNL     1      22.010   4.086   3.767  0.00  0.00    +0.000 C 
ATOM     16  O   UNL     1      23.073   3.921   4.355  0.00  0.00    +0.000 OA
ATOM     17  N   UNL     1      21.491   3.279   2.769  0.00  0.00    +0.000 N 
ATOM     18  H   UNL     1      20.568   3.502   2.409  0.00  0.00    +0.000 HD
BRANCH  17  19
ATOM     19  C   UNL     1      22.120   2.143   2.228  0.00  0.00    +0.000 A 
ATOM     20  C   UNL     1      23.105   2.345   1.259  0.00  0.00    +0.000 A 
ATOM     21  C   UNL     1      23.764   1.260   0.685  0.00  0.00    +0.000 A 
ATOM     22  C   UNL     1      23.432  -0.028   1.089  0.00  0.00    +0.000 A 
ATOM     23  F   UNL     1      24.066  -1.073   0.541  0.00  0.00    +0.000 F 
ATOM     24  C   UNL     1      22.456  -0.249   2.055  0.00  0.00    +0.000 A 
ATOM     25  C   UNL     1      21.802   0.842   2.622  0.00  0.00    +0.000 A 
ENDBRANCH  17  19
ENDBRANCH  12  15
ENDBRANCH   9  12
ENDBRANCH   2   8
BRANCH   7  26
ATOM     26  O   UNL     1      19.586   5.258  11.916  0.00  0.00    +0.000 OA
BRANCH  26  27
ATOM     27  C   UNL     1      20.496   5.770  12.819  0.00  0.00    +0.000 A 
ATOM     28  C   UNL     1      21.032   4.900  13.782  0.00  0.00    +0.000 A 
ATOM     29  C   UNL     1      22.000   5.413  14.662  0.00  0.00    +0.000 A 
ATOM     30  C   UNL     1      20.631   3.559  13.893  0.00  0.00    +0.000 A 
ATOM     31  N   UNL     1      22.426   6.685  14.600  0.00  0.00    +0.000 NA
ATOM     32  C   UNL     1      22.528   4.560  15.621  0.00  0.00    +0.000 A 
ATOM     33  C   UNL     1      21.894   7.487  13.650  0.00  0.00    +0.000 A 
ATOM     34  C   UNL     1      20.943   7.084  12.736  0.00  0.00    +0.000 A 
ATOM     35  C   UNL     1      22.133   3.221  15.735  0.00  0.00    +0.000 A 
ATOM     36  C   UNL     1      21.171   2.712  14.862  0.00  0.00    +0.000 A 
BRANCH  36  37
ATOM     37  O   UNL     1      20.813   1.394  15.020  0.00  0.00    +0.000 OA
ATOM     38  C   UNL     1      21.104   0.552  13.938  0.00  0.00    +0.000 C 
ENDBRANCH  36  37
BRANCH  35  39
ATOM     39  O   UNL     1      22.643   2.364  16.682  0.00  0.00    +0.000 OA
BRANCH  39  40
ATOM     40  C   UNL     1      23.900   1.980  16.476  0.00  0.00    +0.000 C 
ATOM     41  C   UNL     1      25.347   1.527  16.251  0.00  0.00    +0.000 C 
BRANCH  41  42
ATOM     42  C   UNL     1      26.792   1.068  16.028  0.00  0.00    +0.000 C 
BRANCH  42  43
ATOM     43  N   UNL     1      28.164   0.630  15.816  0.00  0.00    +0.000 N 
ATOM     44  C   UNL     1      28.161  -0.862  15.914  0.00  0.00    +0.000 C 
ATOM     45  C   UNL     1      28.372  -1.919  14.783  0.00  0.00    +0.000 C 
ATOM     46  O   UNL     1      28.601  -1.855  13.453  0.00  0.00    +0.000 OA
ATOM     47  C   UNL     1      28.599  -0.509  13.362  0.00  0.00    +0.000 C 
ATOM     48  C   UNL     1      28.412   0.687  14.344  0.00  0.00    +0.000 C 
ENDBRANCH  42  43
ENDBRANCH  41  42
ENDBRANCH  39  40
ENDBRANCH  35  39
ENDBRANCH  26  27
ENDBRANCH   7  26
TORSDOF 11
ENDMDL
