MODEL 1
REMARK VINA RESULT:      -5.5      0.000      0.000
REMARK  Name = 
REMARK  7 active torsions:
REMARK  status: ('A' for Active; 'I' for Inactive)
REMARK    1  A    between atoms: S_1  and  O_3
REMARK    2  A    between atoms: S_1  and  O_6
REMARK    3  A    between atoms: O_3  and  C_9
REMARK    4  A    between atoms: O_4  and  C_10
REMARK    5  A    between atoms: O_5  and  C_11
REMARK    6  A    between atoms: C_12  and  C_14
REMARK    7  A    between atoms: C_13  and  C_15
REMARK                            x       y       z     vdW  Elec       q    Type
REMARK                         _______ _______ _______ _____ _____    ______ ____
ROOT
ATOM      1  O   UNL     1      42.246  -3.111  15.130  0.00  0.00    +0.000 OA
ATOM      2  C   UNL     1      42.089  -0.886  14.111  0.00  0.00    +0.000 C 
ATOM      3  C   UNL     1      42.615  -0.269  15.415  0.00  0.00    +0.000 C 
ATOM      4  C   UNL     1      42.298  -1.168  16.618  0.00  0.00    +0.000 C 
ATOM      5  C   UNL     1      42.612  -2.329  13.986  0.00  0.00    +0.000 C 
ATOM      6  C   UNL     1      42.788  -2.599  16.355  0.00  0.00    +0.000 C 
ATOM      7  C   UNL     1      42.050  -3.035  12.758  0.00  0.00    +0.000 C 
ATOM      8  C   UNL     1      42.371  -3.547  17.474  0.00  0.00    +0.000 C 
ENDROOT
BRANCH   3   9
ATOM      9  O   UNL     1      42.068   1.030  15.682  0.00  0.00    +0.000 OA
ATOM     10  H   UNL     1      42.215   1.253  16.625  0.00  0.00    +0.000 HD
ENDBRANCH   3   9
BRANCH   4  11
ATOM     11  O   UNL     1      42.926  -0.617  17.780  0.00  0.00    +0.000 OA
ATOM     12  H   UNL     1      43.410  -1.366  18.184  0.00  0.00    +0.000 HD
ENDBRANCH   4  11
BRANCH   2  13
ATOM     13  O   UNL     1      40.660  -0.894  14.130  0.00  0.00    +0.000 OA
BRANCH  13  14
ATOM     14  S   UNL     1      39.867   0.109  13.135  0.00  0.00    +0.000 S 
ATOM     15  O   UNL     1      38.606  -0.501  12.787  0.00  0.00    +0.000 OA
ATOM     16  O   UNL     1      39.965   1.456  13.653  0.00  0.00    +0.000 OA
BRANCH  14  17
ATOM     17  O   UNL     1      40.766   0.027  11.803  0.00  0.00    +0.000 OA
ATOM     18  H   UNL     1      40.238  -0.452  11.130  0.00  0.00    +0.000 HD
ENDBRANCH  14  17
ENDBRANCH  13  14
ENDBRANCH   2  13
TORSDOF 5
ENDMDL
MODEL 2
REMARK VINA RESULT:      -5.4      2.168      3.636
REMARK  Name = 
REMARK  7 active torsions:
REMARK  status: ('A' for Active; 'I' for Inactive)
REMARK    1  A    between atoms: S_1  and  O_3
REMARK    2  A    between atoms: S_1  and  O_6
REMARK    3  A    between atoms: O_3  and  C_9
REMARK    4  A    between atoms: O_4  and  C_10
REMARK    5  A    between atoms: O_5  and  C_11
REMARK    6  A    between atoms: C_12  and  C_14
REMARK    7  A    between atoms: C_13  and  C_15
REMARK                            x       y       z     vdW  Elec       q    Type
REMARK                         _______ _______ _______ _____ _____    ______ ____
ROOT
ATOM      1  O   UNL     1      41.201  -0.773  16.194  0.00  0.00    +0.000 OA
ATOM      2  C   UNL     1      41.874  -0.783  13.836  0.00  0.00    +0.000 C 
ATOM      3  C   UNL     1      40.987   0.447  13.594  0.00  0.00    +0.000 C 
ATOM      4  C   UNL     1      39.841   0.511  14.613  0.00  0.00    +0.000 C 
ATOM      5  C   UNL     1      42.327  -0.799  15.308  0.00  0.00    +0.000 C 
ATOM      6  C   UNL     1      40.395   0.405  16.041  0.00  0.00    +0.000 C 
ATOM      7  C   UNL     1      43.136  -2.047  15.642  0.00  0.00    +0.000 C 
ATOM      8  C   UNL     1      39.274   0.331  17.071  0.00  0.00    +0.000 C 
ENDROOT
BRANCH   3   9
ATOM      9  O   UNL     1      40.407   0.471  12.281  0.00  0.00    +0.000 OA
ATOM     10  H   UNL     1      39.465   0.730  12.351  0.00  0.00    +0.000 HD
ENDBRANCH   3   9
BRANCH   4  11
ATOM     11  O   UNL     1      39.131   1.740  14.429  0.00  0.00    +0.000 OA
ATOM     12  H   UNL     1      38.400   1.707  15.079  0.00  0.00    +0.000 HD
ENDBRANCH   4  11
BRANCH   2  13
ATOM     13  O   UNL     1      41.132  -1.970  13.550  0.00  0.00    +0.000 OA
BRANCH  13  14
ATOM     14  S   UNL     1      41.292  -2.650  12.088  0.00  0.00    +0.000 S 
ATOM     15  O   UNL     1      42.223  -1.857  11.320  0.00  0.00    +0.000 OA
ATOM     16  O   UNL     1      41.437  -4.081  12.250  0.00  0.00    +0.000 OA
BRANCH  14  17
ATOM     17  O   UNL     1      39.849  -2.371  11.436  0.00  0.00    +0.000 OA
ATOM     18  H   UNL     1      39.294  -1.961  12.132  0.00  0.00    +0.000 HD
ENDBRANCH  14  17
ENDBRANCH  13  14
ENDBRANCH   2  13
TORSDOF 5
ENDMDL
MODEL 3
REMARK VINA RESULT:      -5.4      1.696      2.246
REMARK  Name = 
REMARK  7 active torsions:
REMARK  status: ('A' for Active; 'I' for Inactive)
REMARK    1  A    between atoms: S_1  and  O_3
REMARK    2  A    between atoms: S_1  and  O_6
REMARK    3  A    between atoms: O_3  and  C_9
REMARK    4  A    between atoms: O_4  and  C_10
REMARK    5  A    between atoms: O_5  and  C_11
REMARK    6  A    between atoms: C_12  and  C_14
REMARK    7  A    between atoms: C_13  and  C_15
REMARK                            x       y       z     vdW  Elec       q    Type
REMARK                         _______ _______ _______ _____ _____    ______ ____
ROOT
ATOM      1  O   UNL     1      41.194  -2.976  16.083  0.00  0.00    +0.000 OA
ATOM      2  C   UNL     1      40.931  -2.196  13.774  0.00  0.00    +0.000 C 
ATOM      3  C   UNL     1      42.432  -2.421  13.543  0.00  0.00    +0.000 C 
ATOM      4  C   UNL     1      43.213  -2.325  14.862  0.00  0.00    +0.000 C 
ATOM      5  C   UNL     1      40.439  -3.151  14.877  0.00  0.00    +0.000 C 
ATOM      6  C   UNL     1      42.591  -3.253  15.914  0.00  0.00    +0.000 C 
ATOM      7  C   UNL     1      38.974  -2.916  15.224  0.00  0.00    +0.000 C 
ATOM      8  C   UNL     1      43.260  -3.084  17.274  0.00  0.00    +0.000 C 
ENDROOT
BRANCH   3   9
ATOM      9  O   UNL     1      43.007  -1.479  12.625  0.00  0.00    +0.000 OA
ATOM     10  H   UNL     1      43.449  -0.766  13.131  0.00  0.00    +0.000 HD
ENDBRANCH   3   9
BRANCH   4  11
ATOM     11  O   UNL     1      44.578  -2.676  14.612  0.00  0.00    +0.000 OA
ATOM     12  H   UNL     1      44.637  -3.628  14.830  0.00  0.00    +0.000 HD
ENDBRANCH   4  11
BRANCH   2  13
ATOM     13  O   UNL     1      40.707  -0.844  14.175  0.00  0.00    +0.000 OA
BRANCH  13  14
ATOM     14  S   UNL     1      39.902   0.139  13.169  0.00  0.00    +0.000 S 
ATOM     15  O   UNL     1      38.660  -0.502  12.807  0.00  0.00    +0.000 OA
ATOM     16  O   UNL     1      39.959   1.489  13.686  0.00  0.00    +0.000 OA
BRANCH  14  17
ATOM     17  O   UNL     1      40.818   0.078  11.848  0.00  0.00    +0.000 OA
ATOM     18  H   UNL     1      41.612  -0.449  12.074  0.00  0.00    +0.000 HD
ENDBRANCH  14  17
ENDBRANCH  13  14
ENDBRANCH   2  13
TORSDOF 5
ENDMDL
MODEL 4
REMARK VINA RESULT:      -5.1      2.857      3.957
REMARK  Name = 
REMARK  7 active torsions:
REMARK  status: ('A' for Active; 'I' for Inactive)
REMARK    1  A    between atoms: S_1  and  O_3
REMARK    2  A    between atoms: S_1  and  O_6
REMARK    3  A    between atoms: O_3  and  C_9
REMARK    4  A    between atoms: O_4  and  C_10
REMARK    5  A    between atoms: O_5  and  C_11
REMARK    6  A    between atoms: C_12  and  C_14
REMARK    7  A    between atoms: C_13  and  C_15
REMARK                            x       y       z     vdW  Elec       q    Type
REMARK                         _______ _______ _______ _____ _____    ______ ____
ROOT
ATOM      1  O   UNL     1      40.310   0.230  17.778  0.00  0.00    +0.000 OA
ATOM      2  C   UNL     1      40.670   1.014  15.482  0.00  0.00    +0.000 C 
ATOM      3  C   UNL     1      39.983   2.338  15.844  0.00  0.00    +0.000 C 
ATOM      4  C   UNL     1      39.002   2.151  17.010  0.00  0.00    +0.000 C 
ATOM      5  C   UNL     1      41.295   0.405  16.751  0.00  0.00    +0.000 C 
ATOM      6  C   UNL     1      39.705   1.464  18.189  0.00  0.00    +0.000 C 
ATOM      7  C   UNL     1      41.914  -0.962  16.482  0.00  0.00    +0.000 C 
ATOM      8  C   UNL     1      38.727   1.143  19.313  0.00  0.00    +0.000 C 
ENDROOT
BRANCH   3   9
ATOM      9  O   UNL     1      39.255   2.911  14.747  0.00  0.00    +0.000 OA
ATOM     10  H   UNL     1      38.387   2.463  14.669  0.00  0.00    +0.000 HD
ENDBRANCH   3   9
BRANCH   4  11
ATOM     11  O   UNL     1      38.495   3.434  17.393  0.00  0.00    +0.000 OA
ATOM     12  H   UNL     1      39.270   3.912  17.755  0.00  0.00    +0.000 HD
ENDBRANCH   4  11
BRANCH   2  13
ATOM     13  O   UNL     1      39.706   0.108  14.941  0.00  0.00    +0.000 OA
BRANCH  13  14
ATOM     14  S   UNL     1      39.837  -0.322  13.384  0.00  0.00    +0.000 S 
ATOM     15  O   UNL     1      40.927  -1.262  13.265  0.00  0.00    +0.000 OA
ATOM     16  O   UNL     1      38.516  -0.591  12.859  0.00  0.00    +0.000 OA
BRANCH  14  17
ATOM     17  O   UNL     1      40.368   1.039  12.711  0.00  0.00    +0.000 OA
ATOM     18  H   UNL     1      40.185   0.974  11.751  0.00  0.00    +0.000 HD
ENDBRANCH  14  17
ENDBRANCH  13  14
ENDBRANCH   2  13
TORSDOF 5
ENDMDL
MODEL 5
REMARK VINA RESULT:      -5.1     20.378     21.912
REMARK  Name = 
REMARK  7 active torsions:
REMARK  status: ('A' for Active; 'I' for Inactive)
REMARK    1  A    between atoms: S_1  and  O_3
REMARK    2  A    between atoms: S_1  and  O_6
REMARK    3  A    between atoms: O_3  and  C_9
REMARK    4  A    between atoms: O_4  and  C_10
REMARK    5  A    between atoms: O_5  and  C_11
REMARK    6  A    between atoms: C_12  and  C_14
REMARK    7  A    between atoms: C_13  and  C_15
REMARK                            x       y       z     vdW  Elec       q    Type
REMARK                         _______ _______ _______ _____ _____    ______ ____
ROOT
ATOM      1  O   UNL     1      36.263  17.546  19.500  0.00  0.00    +0.000 OA
ATOM      2  C   UNL     1      36.806  19.924  19.253  0.00  0.00    +0.000 C 
ATOM      3  C   UNL     1      38.270  19.546  18.987  0.00  0.00    +0.000 C 
ATOM      4  C   UNL     1      38.618  18.199  19.635  0.00  0.00    +0.000 C 
ATOM      5  C   UNL     1      35.896  18.757  18.827  0.00  0.00    +0.000 C 
ATOM      6  C   UNL     1      37.604  17.128  19.209  0.00  0.00    +0.000 C 
ATOM      7  C   UNL     1      34.431  19.028  19.151  0.00  0.00    +0.000 C 
ATOM      8  C   UNL     1      37.842  15.811  19.938  0.00  0.00    +0.000 C 
ENDROOT
BRANCH   3   9
ATOM      9  O   UNL     1      39.201  20.522  19.480  0.00  0.00    +0.000 OA
ATOM     10  H   UNL     1      39.721  20.877  18.729  0.00  0.00    +0.000 HD
ENDBRANCH   3   9
BRANCH   4  11
ATOM     11  O   UNL     1      39.945  17.831  19.243  0.00  0.00    +0.000 OA
ATOM     12  H   UNL     1      40.104  16.967  19.675  0.00  0.00    +0.000 HD
ENDBRANCH   4  11
BRANCH   2  13
ATOM     13  O   UNL     1      36.626  20.189  20.646  0.00  0.00    +0.000 OA
BRANCH  13  14
ATOM     14  S   UNL     1      36.296  21.706  21.109  0.00  0.00    +0.000 S 
ATOM     15  O   UNL     1      35.913  22.463  19.941  0.00  0.00    +0.000 OA
ATOM     16  O   UNL     1      35.488  21.663  22.309  0.00  0.00    +0.000 OA
BRANCH  14  17
ATOM     17  O   UNL     1      37.754  22.249  21.516  0.00  0.00    +0.000 OA
ATOM     18  H   UNL     1      37.619  23.050  22.065  0.00  0.00    +0.000 HD
ENDBRANCH  14  17
ENDBRANCH  13  14
ENDBRANCH   2  13
TORSDOF 5
ENDMDL
MODEL 6
REMARK VINA RESULT:      -5.0      2.280      3.086
REMARK  Name = 
REMARK  7 active torsions:
REMARK  status: ('A' for Active; 'I' for Inactive)
REMARK    1  A    between atoms: S_1  and  O_3
REMARK    2  A    between atoms: S_1  and  O_6
REMARK    3  A    between atoms: O_3  and  C_9
REMARK    4  A    between atoms: O_4  and  C_10
REMARK    5  A    between atoms: O_5  and  C_11
REMARK    6  A    between atoms: C_12  and  C_14
REMARK    7  A    between atoms: C_13  and  C_15
REMARK                            x       y       z     vdW  Elec       q    Type
REMARK                         _______ _______ _______ _____ _____    ______ ____
ROOT
ATOM      1  O   UNL     1      39.322  -0.606  15.908  0.00  0.00    +0.000 OA
ATOM      2  C   UNL     1      40.949  -1.884  14.593  0.00  0.00    +0.000 C 
ATOM      3  C   UNL     1      42.058  -1.432  15.554  0.00  0.00    +0.000 C 
ATOM      4  C   UNL     1      41.696  -0.100  16.226  0.00  0.00    +0.000 C 
ATOM      5  C   UNL     1      39.603  -1.892  15.340  0.00  0.00    +0.000 C 
ATOM      6  C   UNL     1      40.305  -0.191  16.868  0.00  0.00    +0.000 C 
ATOM      7  C   UNL     1      38.440  -2.241  14.418  0.00  0.00    +0.000 C 
ATOM      8  C   UNL     1      39.859   1.154  17.428  0.00  0.00    +0.000 C 
ENDROOT
BRANCH   3   9
ATOM      9  O   UNL     1      43.329  -1.266  14.907  0.00  0.00    +0.000 OA
ATOM     10  H   UNL     1      43.913  -0.728  15.481  0.00  0.00    +0.000 HD
ENDBRANCH   3   9
BRANCH   4  11
ATOM     11  O   UNL     1      42.694   0.204  17.207  0.00  0.00    +0.000 OA
ATOM     12  H   UNL     1      42.306   0.924  17.744  0.00  0.00    +0.000 HD
ENDBRANCH   4  11
BRANCH   2  13
ATOM     13  O   UNL     1      40.879  -0.982  13.487  0.00  0.00    +0.000 OA
BRANCH  13  14
ATOM     14  S   UNL     1      41.296  -1.525  12.018  0.00  0.00    +0.000 S 
ATOM     15  O   UNL     1      42.606  -2.124  12.112  0.00  0.00    +0.000 OA
ATOM     16  O   UNL     1      40.165  -2.213  11.434  0.00  0.00    +0.000 OA
BRANCH  14  17
ATOM     17  O   UNL     1      41.508  -0.151  11.209  0.00  0.00    +0.000 OA
ATOM     18  H   UNL     1      42.341  -0.243  10.701  0.00  0.00    +0.000 HD
ENDBRANCH  14  17
ENDBRANCH  13  14
ENDBRANCH   2  13
TORSDOF 5
ENDMDL
MODEL 7
REMARK VINA RESULT:      -4.8     18.585     20.070
REMARK  Name = 
REMARK  7 active torsions:
REMARK  status: ('A' for Active; 'I' for Inactive)
REMARK    1  A    between atoms: S_1  and  O_3
REMARK    2  A    between atoms: S_1  and  O_6
REMARK    3  A    between atoms: O_3  and  C_9
REMARK    4  A    between atoms: O_4  and  C_10
REMARK    5  A    between atoms: O_5  and  C_11
REMARK    6  A    between atoms: C_12  and  C_14
REMARK    7  A    between atoms: C_13  and  C_15
REMARK                            x       y       z     vdW  Elec       q    Type
REMARK                         _______ _______ _______ _____ _____    ______ ____
ROOT
ATOM      1  O   UNL     1      37.015  15.220  20.124  0.00  0.00    +0.000 OA
ATOM      2  C   UNL     1      36.774  17.555  20.831  0.00  0.00    +0.000 C 
ATOM      3  C   UNL     1      35.876  17.095  21.989  0.00  0.00    +0.000 C 
ATOM      4  C   UNL     1      35.186  15.765  21.657  0.00  0.00    +0.000 C 
ATOM      5  C   UNL     1      37.736  16.414  20.453  0.00  0.00    +0.000 C 
ATOM      6  C   UNL     1      36.224  14.725  21.214  0.00  0.00    +0.000 C 
ATOM      7  C   UNL     1      38.595  16.769  19.245  0.00  0.00    +0.000 C 
ATOM      8  C   UNL     1      35.560  13.434  20.750  0.00  0.00    +0.000 C 
ENDROOT
BRANCH   3   9
ATOM      9  O   UNL     1      34.854  18.048  22.320  0.00  0.00    +0.000 OA
ATOM     10  H   UNL     1      33.976  17.647  22.153  0.00  0.00    +0.000 HD
ENDBRANCH   3   9
BRANCH   4  11
ATOM     11  O   UNL     1      34.474  15.317  22.815  0.00  0.00    +0.000 OA
ATOM     12  H   UNL     1      33.545  15.587  22.659  0.00  0.00    +0.000 HD
ENDBRANCH   4  11
BRANCH   2  13
ATOM     13  O   UNL     1      35.964  17.893  19.704  0.00  0.00    +0.000 OA
BRANCH  13  14
ATOM     14  S   UNL     1      35.886  19.445  19.245  0.00  0.00    +0.000 S 
ATOM     15  O   UNL     1      37.119  19.782  18.574  0.00  0.00    +0.000 OA
ATOM     16  O   UNL     1      34.587  19.696  18.658  0.00  0.00    +0.000 OA
BRANCH  14  17
ATOM     17  O   UNL     1      35.943  20.209  20.659  0.00  0.00    +0.000 OA
ATOM     18  H   UNL     1      36.367  19.598  21.298  0.00  0.00    +0.000 HD
ENDBRANCH  14  17
ENDBRANCH  13  14
ENDBRANCH   2  13
TORSDOF 5
ENDMDL
MODEL 8
REMARK VINA RESULT:      -4.1     17.365     19.661
REMARK  Name = 
REMARK  7 active torsions:
REMARK  status: ('A' for Active; 'I' for Inactive)
REMARK    1  A    between atoms: S_1  and  O_3
REMARK    2  A    between atoms: S_1  and  O_6
REMARK    3  A    between atoms: O_3  and  C_9
REMARK    4  A    between atoms: O_4  and  C_10
REMARK    5  A    between atoms: O_5  and  C_11
REMARK    6  A    between atoms: C_12  and  C_14
REMARK    7  A    between atoms: C_13  and  C_15
REMARK                            x       y       z     vdW  Elec       q    Type
REMARK                         _______ _______ _______ _____ _____    ______ ____
ROOT
ATOM      1  O   UNL     1      32.129  -3.262   0.329  0.00  0.00    +0.000 OA
ATOM      2  C   UNL     1      30.780  -3.744  -1.660  0.00  0.00    +0.000 C 
ATOM      3  C   UNL     1      29.509  -3.639  -0.805  0.00  0.00    +0.000 C 
ATOM      4  C   UNL     1      29.807  -3.959   0.667  0.00  0.00    +0.000 C 
ATOM      5  C   UNL     1      31.887  -2.879  -1.031  0.00  0.00    +0.000 C 
ATOM      6  C   UNL     1      30.977  -3.102   1.169  0.00  0.00    +0.000 C 
ATOM      7  C   UNL     1      33.209  -3.011  -1.779  0.00  0.00    +0.000 C 
ATOM      8  C   UNL     1      31.385  -3.490   2.586  0.00  0.00    +0.000 C 
ENDROOT
BRANCH   3   9
ATOM      9  O   UNL     1      28.463  -4.520  -1.242  0.00  0.00    +0.000 OA
ATOM     10  H   UNL     1      28.783  -5.042  -2.007  0.00  0.00    +0.000 HD
ENDBRANCH   3   9
BRANCH   4  11
ATOM     11  O   UNL     1      28.625  -3.715   1.437  0.00  0.00    +0.000 OA
ATOM     12  H   UNL     1      28.855  -2.958   2.015  0.00  0.00    +0.000 HD
ENDBRANCH   4  11
BRANCH   2  13
ATOM     13  O   UNL     1      31.207  -5.106  -1.715  0.00  0.00    +0.000 OA
BRANCH  13  14
ATOM     14  S   UNL     1      31.118  -5.889  -3.131  0.00  0.00    +0.000 S 
ATOM     15  O   UNL     1      30.932  -4.912  -4.177  0.00  0.00    +0.000 OA
ATOM     16  O   UNL     1      32.160  -6.893  -3.178  0.00  0.00    +0.000 OA
BRANCH  14  17
ATOM     17  O   UNL     1      29.707  -6.650  -2.996  0.00  0.00    +0.000 OA
ATOM     18  H   UNL     1      29.455  -6.948  -3.895  0.00  0.00    +0.000 HD
ENDBRANCH  14  17
ENDBRANCH  13  14
ENDBRANCH   2  13
TORSDOF 5
ENDMDL
MODEL 9
REMARK VINA RESULT:      -4.1     19.384     20.927
REMARK  Name = 
REMARK  7 active torsions:
REMARK  status: ('A' for Active; 'I' for Inactive)
REMARK    1  A    between atoms: S_1  and  O_3
REMARK    2  A    between atoms: S_1  and  O_6
REMARK    3  A    between atoms: O_3  and  C_9
REMARK    4  A    between atoms: O_4  and  C_10
REMARK    5  A    between atoms: O_5  and  C_11
REMARK    6  A    between atoms: C_12  and  C_14
REMARK    7  A    between atoms: C_13  and  C_15
REMARK                            x       y       z     vdW  Elec       q    Type
REMARK                         _______ _______ _______ _____ _____    ______ ____
ROOT
ATOM      1  O   UNL     1      34.459  17.767  20.797  0.00  0.00    +0.000 OA
ATOM      2  C   UNL     1      36.290  18.293  19.253  0.00  0.00    +0.000 C 
ATOM      3  C   UNL     1      36.843  16.874  19.451  0.00  0.00    +0.000 C 
ATOM      4  C   UNL     1      36.420  16.301  20.811  0.00  0.00    +0.000 C 
ATOM      5  C   UNL     1      34.770  18.282  19.496  0.00  0.00    +0.000 C 
ATOM      6  C   UNL     1      34.899  16.414  20.983  0.00  0.00    +0.000 C 
ATOM      7  C   UNL     1      34.169  19.680  19.409  0.00  0.00    +0.000 C 
ATOM      8  C   UNL     1      34.460  15.977  22.376  0.00  0.00    +0.000 C 
ENDROOT
BRANCH   3   9
ATOM      9  O   UNL     1      38.276  16.814  19.377  0.00  0.00    +0.000 OA
ATOM     10  H   UNL     1      38.648  17.675  19.659  0.00  0.00    +0.000 HD
ENDBRANCH   3   9
BRANCH   4  11
ATOM     11  O   UNL     1      36.843  14.936  20.885  0.00  0.00    +0.000 OA
ATOM     12  H   UNL     1      37.812  14.966  20.746  0.00  0.00    +0.000 HD
ENDBRANCH   4  11
BRANCH   2  13
ATOM     13  O   UNL     1      36.918  19.182  20.179  0.00  0.00    +0.000 OA
BRANCH  13  14
ATOM     14  S   UNL     1      37.947  20.295  19.606  0.00  0.00    +0.000 S 
ATOM     15  O   UNL     1      37.897  21.448  20.474  0.00  0.00    +0.000 OA
ATOM     16  O   UNL     1      39.188  19.644  19.247  0.00  0.00    +0.000 OA
BRANCH  14  17
ATOM     17  O   UNL     1      37.217  20.749  18.247  0.00  0.00    +0.000 OA
ATOM     18  H   UNL     1      37.021  21.705  18.331  0.00  0.00    +0.000 HD
ENDBRANCH  14  17
ENDBRANCH  13  14
ENDBRANCH   2  13
TORSDOF 5
ENDMDL
