MODEL 1
REMARK VINA RESULT:      -6.7      0.000      0.000
REMARK  Name = Fulvestrant.pdbqt.pdb
REMARK  12 active torsions:
REMARK  status: ('A' for Active; 'I' for Inactive)
REMARK    1  A    between atoms: C_6  and  O_40
REMARK    2  A    between atoms: C_8  and  C_19
REMARK    3  A    between atoms: C_18  and  O_42
REMARK    4  A    between atoms: C_20  and  C_21
REMARK    5  A    between atoms: C_22  and  C_23
REMARK    6  A    between atoms: C_23  and  C_24
REMARK    7  A    between atoms: C_25  and  C_26
REMARK    8  A    between atoms: C_27  and  S_28
REMARK    9  A    between atoms: S_28  and  C_30
REMARK   10  A    between atoms: C_30  and  C_31
REMARK   11  A    between atoms: C_32  and  C_33
REMARK   12  A    between atoms: C_33  and  C_36
REMARK                            x       y       z     vdW  Elec       q    Type
REMARK                         _______ _______ _______ _____ _____    ______ ____
ROOT
ATOM      1  C   UNL     1      41.398  -1.818  14.419  0.00  0.00    +0.000 C 
ATOM      2  C   UNL     1      40.775  -2.078  12.963  0.00  0.00    +0.000 C 
ATOM      3  C   UNL     1      42.116  -2.866  15.215  0.00  0.00    +0.000 A 
ATOM      4  C   UNL     1      42.670  -4.142  14.549  0.00  0.00    +0.000 A 
ATOM      5  C   UNL     1      41.462  -3.254  12.441  0.00  0.00    +0.000 C 
ATOM      6  C   UNL     1      41.120  -0.777  12.204  0.00  0.00    +0.000 C 
ATOM      7  C   UNL     1      41.883  -0.471  14.423  0.00  0.00    +0.000 C 
ATOM      8  C   UNL     1      42.346  -2.722  16.677  0.00  0.00    +0.000 A 
ATOM      9  C   UNL     1      42.339  -4.229  13.176  0.00  0.00    +0.000 C 
ATOM     10  C   UNL     1      41.739   0.167  13.066  0.00  0.00    +0.000 C 
ATOM     11  C   UNL     1      39.240  -2.241  13.102  0.00  0.00    +0.000 C 
ATOM     12  C   UNL     1      43.426  -5.194  15.287  0.00  0.00    +0.000 A 
ATOM     13  C   UNL     1      43.087  -3.816  17.187  0.00  0.00    +0.000 A 
ATOM     14  C   UNL     1      43.644  -5.015  16.674  0.00  0.00    +0.000 A 
ATOM     15  C   UNL     1      43.924  -6.341  14.673  0.00  0.00    +0.000 A 
ATOM     16  C   UNL     1      44.334  -5.942  17.439  0.00  0.00    +0.000 A 
ATOM     17  C   UNL     1      44.622  -7.284  15.430  0.00  0.00    +0.000 A 
ATOM     18  C   UNL     1      44.818  -7.078  16.797  0.00  0.00    +0.000 A 
ENDROOT
BRANCH   8  19
ATOM     19  C   UNL     1      41.739  -1.721  17.473  0.00  0.00    +0.000 C 
ATOM     20  C   UNL     1      41.074  -0.653  18.346  0.00  0.00    +0.000 C 
BRANCH  20  21
ATOM     21  C   UNL     1      40.397   0.394  19.236  0.00  0.00    +0.000 C 
ATOM     22  C   UNL     1      39.737   1.464  20.111  0.00  0.00    +0.000 C 
BRANCH  22  23
ATOM     23  C   UNL     1      39.098   2.557  20.972  0.00  0.00    +0.000 C 
BRANCH  23  24
ATOM     24  C   UNL     1      38.454   3.627  21.860  0.00  0.00    +0.000 C 
ATOM     25  C   UNL     1      37.821   4.721  22.725  0.00  0.00    +0.000 C 
BRANCH  25  26
ATOM     26  C   UNL     1      37.202   5.841  23.568  0.00  0.00    +0.000 C 
ATOM     27  C   UNL     1      36.556   6.936  24.423  0.00  0.00    +0.000 C 
BRANCH  27  28
ATOM     28  S   UNL     1      35.788   8.173  25.412  0.00  0.00    +0.000 S 
ATOM     29  O   UNL     1      37.110   8.672  25.915  0.00  0.00    +0.000 OA
BRANCH  28  30
ATOM     30  C   UNL     1      35.763   9.360  24.112  0.00  0.00    +0.000 C 
BRANCH  30  31
ATOM     31  C   UNL     1      35.725  10.406  22.992  0.00  0.00    +0.000 C 
ATOM     32  C   UNL     1      35.707  11.453  21.874  0.00  0.00    +0.000 C 
BRANCH  32  33
ATOM     33  C   UNL     1      35.698  12.457  20.805  0.00  0.00    +0.000 C 
ATOM     34  F   UNL     1      34.535  12.318  20.109  0.00  0.00    +0.000 F 
ATOM     35  F   UNL     1      36.696  12.143  19.932  0.00  0.00    +0.000 F 
BRANCH  33  36
ATOM     36  C   UNL     1      35.857  13.891  21.320  0.00  0.00    +0.000 C 
ATOM     37  F   UNL     1      36.299  13.925  22.603  0.00  0.00    +0.000 F 
ATOM     38  F   UNL     1      34.689  14.579  21.287  0.00  0.00    +0.000 F 
ATOM     39  F   UNL     1      36.749  14.597  20.578  0.00  0.00    +0.000 F 
ENDBRANCH  33  36
ENDBRANCH  32  33
ENDBRANCH  30  31
ENDBRANCH  28  30
ENDBRANCH  27  28
ENDBRANCH  25  26
ENDBRANCH  23  24
ENDBRANCH  22  23
ENDBRANCH  20  21
ENDBRANCH   8  19
BRANCH   6  40
ATOM     40  O   UNL     1      41.266  -0.729  10.834  0.00  0.00    +0.000 OA
ATOM     41  H   UNL     1      41.853  -1.435  10.508  0.00  0.00    +0.000 HD
ENDBRANCH   6  40
BRANCH  18  42
ATOM     42  O   UNL     1      45.506  -8.029  17.497  0.00  0.00    +0.000 OA
ATOM     43  H   UNL     1      46.241  -7.595  17.965  0.00  0.00    +0.000 HD
ENDBRANCH  18  42
TORSDOF 12
ENDMDL
MODEL 2
REMARK VINA RESULT:      -6.5     20.801     24.897
REMARK  Name = Fulvestrant.pdbqt.pdb
REMARK  12 active torsions:
REMARK  status: ('A' for Active; 'I' for Inactive)
REMARK    1  A    between atoms: C_6  and  O_40
REMARK    2  A    between atoms: C_8  and  C_19
REMARK    3  A    between atoms: C_18  and  O_42
REMARK    4  A    between atoms: C_20  and  C_21
REMARK    5  A    between atoms: C_22  and  C_23
REMARK    6  A    between atoms: C_23  and  C_24
REMARK    7  A    between atoms: C_25  and  C_26
REMARK    8  A    between atoms: C_27  and  S_28
REMARK    9  A    between atoms: S_28  and  C_30
REMARK   10  A    between atoms: C_30  and  C_31
REMARK   11  A    between atoms: C_32  and  C_33
REMARK   12  A    between atoms: C_33  and  C_36
REMARK                            x       y       z     vdW  Elec       q    Type
REMARK                         _______ _______ _______ _____ _____    ______ ____
ROOT
ATOM      1  C   UNL     1      35.999  18.379  -0.688  0.00  0.00    +0.000 C 
ATOM      2  C   UNL     1      37.013  18.280  -1.928  0.00  0.00    +0.000 C 
ATOM      3  C   UNL     1      36.293  19.140   0.569  0.00  0.00    +0.000 A 
ATOM      4  C   UNL     1      37.399  20.216   0.618  0.00  0.00    +0.000 A 
ATOM      5  C   UNL     1      37.928  19.407  -1.782  0.00  0.00    +0.000 C 
ATOM      6  C   UNL     1      36.077  18.403  -3.150  0.00  0.00    +0.000 C 
ATOM      7  C   UNL     1      34.678  18.410  -1.241  0.00  0.00    +0.000 C 
ATOM      8  C   UNL     1      35.527  18.914   1.823  0.00  0.00    +0.000 A 
ATOM      9  C   UNL     1      38.122  20.308  -0.595  0.00  0.00    +0.000 C 
ATOM     10  C   UNL     1      34.715  18.448  -2.747  0.00  0.00    +0.000 C 
ATOM     11  C   UNL     1      37.699  16.891  -1.899  0.00  0.00    +0.000 C 
ATOM     12  C   UNL     1      37.703  21.029   1.829  0.00  0.00    +0.000 A 
ATOM     13  C   UNL     1      35.960  19.787   2.850  0.00  0.00    +0.000 A 
ATOM     14  C   UNL     1      36.941  20.800   3.000  0.00  0.00    +0.000 A 
ATOM     15  C   UNL     1      38.702  21.998   1.859  0.00  0.00    +0.000 A 
ATOM     16  C   UNL     1      37.157  21.508   4.171  0.00  0.00    +0.000 A 
ATOM     17  C   UNL     1      38.931  22.720   3.032  0.00  0.00    +0.000 A 
ATOM     18  C   UNL     1      38.163  22.469   4.170  0.00  0.00    +0.000 A 
ENDROOT
BRANCH   8  19
ATOM     19  C   UNL     1      34.624  17.840   2.008  0.00  0.00    +0.000 C 
ATOM     20  C   UNL     1      33.661  16.667   2.220  0.00  0.00    +0.000 C 
BRANCH  20  21
ATOM     21  C   UNL     1      32.720  15.481   2.446  0.00  0.00    +0.000 C 
ATOM     22  C   UNL     1      31.797  14.284   2.696  0.00  0.00    +0.000 C 
BRANCH  22  23
ATOM     23  C   UNL     1      30.896  13.076   2.970  0.00  0.00    +0.000 C 
BRANCH  23  24
ATOM     24  C   UNL     1      30.012  11.863   3.275  0.00  0.00    +0.000 C 
ATOM     25  C   UNL     1      29.104  10.671   3.597  0.00  0.00    +0.000 C 
BRANCH  25  26
ATOM     26  C   UNL     1      28.175   9.501   3.938  0.00  0.00    +0.000 C 
ATOM     27  C   UNL     1      27.219   8.356   4.285  0.00  0.00    +0.000 C 
BRANCH  27  28
ATOM     28  S   UNL     1      26.097   7.063   4.694  0.00  0.00    +0.000 S 
ATOM     29  O   UNL     1      27.094   6.406   5.602  0.00  0.00    +0.000 OA
BRANCH  28  30
ATOM     30  C   UNL     1      25.376   7.957   6.029  0.00  0.00    +0.000 C 
BRANCH  30  31
ATOM     31  C   UNL     1      24.768   8.748   7.193  0.00  0.00    +0.000 C 
ATOM     32  C   UNL     1      24.164   9.556   8.347  0.00  0.00    +0.000 C 
BRANCH  32  33
ATOM     33  C   UNL     1      23.590  10.336   9.446  0.00  0.00    +0.000 C 
ATOM     34  F   UNL     1      24.013  11.625   9.312  0.00  0.00    +0.000 F 
ATOM     35  F   UNL     1      24.136   9.882  10.609  0.00  0.00    +0.000 F 
BRANCH  33  36
ATOM     36  C   UNL     1      22.060  10.269   9.502  0.00  0.00    +0.000 C 
ATOM     37  F   UNL     1      21.597  10.269  10.779  0.00  0.00    +0.000 F 
ATOM     38  F   UNL     1      21.574   9.152   8.907  0.00  0.00    +0.000 F 
ATOM     39  F   UNL     1      21.486  11.329   8.877  0.00  0.00    +0.000 F 
ENDBRANCH  33  36
ENDBRANCH  32  33
ENDBRANCH  30  31
ENDBRANCH  28  30
ENDBRANCH  27  28
ENDBRANCH  25  26
ENDBRANCH  23  24
ENDBRANCH  22  23
ENDBRANCH  20  21
ENDBRANCH   8  19
BRANCH   6  40
ATOM     40  O   UNL     1      36.500  18.890  -4.369  0.00  0.00    +0.000 OA
ATOM     41  H   UNL     1      37.468  18.987  -4.402  0.00  0.00    +0.000 HD
ENDBRANCH   6  40
BRANCH  18  42
ATOM     42  O   UNL     1      38.424  23.200   5.295  0.00  0.00    +0.000 OA
ATOM     43  H   UNL     1      37.592  23.318   5.785  0.00  0.00    +0.000 HD
ENDBRANCH  18  42
TORSDOF 12
ENDMDL
MODEL 3
REMARK VINA RESULT:      -6.0      6.718      8.630
REMARK  Name = Fulvestrant.pdbqt.pdb
REMARK  12 active torsions:
REMARK  status: ('A' for Active; 'I' for Inactive)
REMARK    1  A    between atoms: C_6  and  O_40
REMARK    2  A    between atoms: C_8  and  C_19
REMARK    3  A    between atoms: C_18  and  O_42
REMARK    4  A    between atoms: C_20  and  C_21
REMARK    5  A    between atoms: C_22  and  C_23
REMARK    6  A    between atoms: C_23  and  C_24
REMARK    7  A    between atoms: C_25  and  C_26
REMARK    8  A    between atoms: C_27  and  S_28
REMARK    9  A    between atoms: S_28  and  C_30
REMARK   10  A    between atoms: C_30  and  C_31
REMARK   11  A    between atoms: C_32  and  C_33
REMARK   12  A    between atoms: C_33  and  C_36
REMARK                            x       y       z     vdW  Elec       q    Type
REMARK                         _______ _______ _______ _____ _____    ______ ____
ROOT
ATOM      1  C   UNL     1      43.255  -4.516  17.644  0.00  0.00    +0.000 C 
ATOM      2  C   UNL     1      43.724  -6.024  17.362  0.00  0.00    +0.000 C 
ATOM      3  C   UNL     1      42.974  -3.516  16.564  0.00  0.00    +0.000 A 
ATOM      4  C   UNL     1      42.714  -3.958  15.108  0.00  0.00    +0.000 A 
ATOM      5  C   UNL     1      43.330  -6.312  15.987  0.00  0.00    +0.000 C 
ATOM      6  C   UNL     1      42.930  -6.834  18.412  0.00  0.00    +0.000 C 
ATOM      7  C   UNL     1      42.418  -4.557  18.806  0.00  0.00    +0.000 C 
ATOM      8  C   UNL     1      42.912  -2.056  16.839  0.00  0.00    +0.000 A 
ATOM      9  C   UNL     1      42.868  -5.353  14.926  0.00  0.00    +0.000 C 
ATOM     10  C   UNL     1      42.193  -5.973  19.269  0.00  0.00    +0.000 C 
ATOM     11  C   UNL     1      45.247  -6.129  17.627  0.00  0.00    +0.000 C 
ATOM     12  C   UNL     1      42.389  -3.009  14.006  0.00  0.00    +0.000 A 
ATOM     13  C   UNL     1      42.582  -1.330  15.669  0.00  0.00    +0.000 A 
ATOM     14  C   UNL     1      42.319  -1.628  14.308  0.00  0.00    +0.000 A 
ATOM     15  C   UNL     1      42.154  -3.421  12.696  0.00  0.00    +0.000 A 
ATOM     16  C   UNL     1      42.026  -0.676  13.345  0.00  0.00    +0.000 A 
ATOM     17  C   UNL     1      41.856  -2.473  11.715  0.00  0.00    +0.000 A 
ATOM     18  C   UNL     1      41.796  -1.118  12.046  0.00  0.00    +0.000 A 
ENDROOT
BRANCH   8  19
ATOM     19  C   UNL     1      43.316  -1.471  18.062  0.00  0.00    +0.000 C 
ATOM     20  C   UNL     1      43.741  -0.851  19.397  0.00  0.00    +0.000 C 
BRANCH  20  21
ATOM     21  C   UNL     1      44.147  -0.249  20.746  0.00  0.00    +0.000 C 
ATOM     22  C   UNL     1      44.523   0.361  22.099  0.00  0.00    +0.000 C 
BRANCH  22  23
ATOM     23  C   UNL     1      44.866   0.984  23.456  0.00  0.00    +0.000 C 
BRANCH  23  24
ATOM     24  C   UNL     1      45.242   1.589  24.813  0.00  0.00    +0.000 C 
ATOM     25  C   UNL     1      45.584   2.188  26.180  0.00  0.00    +0.000 C 
BRANCH  25  26
ATOM     26  C   UNL     1      45.893   2.782  27.558  0.00  0.00    +0.000 C 
ATOM     27  C   UNL     1      46.182   3.407  28.927  0.00  0.00    +0.000 C 
BRANCH  27  28
ATOM     28  S   UNL     1      46.500   4.155  30.488  0.00  0.00    +0.000 S 
ATOM     29  O   UNL     1      47.972   4.238  30.213  0.00  0.00    +0.000 OA
BRANCH  28  30
ATOM     30  C   UNL     1      46.232   5.789  29.889  0.00  0.00    +0.000 C 
BRANCH  30  31
ATOM     31  C   UNL     1      45.976   7.204  29.359  0.00  0.00    +0.000 C 
ATOM     32  C   UNL     1      45.731   8.627  28.844  0.00  0.00    +0.000 C 
BRANCH  32  33
ATOM     33  C   UNL     1      45.500   9.990  28.359  0.00  0.00    +0.000 C 
ATOM     34  F   UNL     1      46.611  10.387  27.677  0.00  0.00    +0.000 F 
ATOM     35  F   UNL     1      45.417  10.809  29.445  0.00  0.00    +0.000 F 
BRANCH  33  36
ATOM     36  C   UNL     1      44.249  10.119  27.485  0.00  0.00    +0.000 C 
ATOM     37  F   UNL     1      44.501  10.789  26.331  0.00  0.00    +0.000 F 
ATOM     38  F   UNL     1      43.249  10.783  28.115  0.00  0.00    +0.000 F 
ATOM     39  F   UNL     1      43.753   8.905  27.132  0.00  0.00    +0.000 F 
ENDBRANCH  33  36
ENDBRANCH  32  33
ENDBRANCH  30  31
ENDBRANCH  28  30
ENDBRANCH  27  28
ENDBRANCH  25  26
ENDBRANCH  23  24
ENDBRANCH  22  23
ENDBRANCH  20  21
ENDBRANCH   8  19
BRANCH   6  40
ATOM     40  O   UNL     1      42.592  -8.159  18.233  0.00  0.00    +0.000 OA
ATOM     41  H   UNL     1      43.014  -8.732  18.897  0.00  0.00    +0.000 HD
ENDBRANCH   6  40
BRANCH  18  42
ATOM     42  O   UNL     1      41.503  -0.227  11.052  0.00  0.00    +0.000 OA
ATOM     43  H   UNL     1      41.343   0.643  11.457  0.00  0.00    +0.000 HD
ENDBRANCH  18  42
TORSDOF 12
ENDMDL
MODEL 4
REMARK VINA RESULT:      -5.8     22.631     27.227
REMARK  Name = Fulvestrant.pdbqt.pdb
REMARK  12 active torsions:
REMARK  status: ('A' for Active; 'I' for Inactive)
REMARK    1  A    between atoms: C_6  and  O_40
REMARK    2  A    between atoms: C_8  and  C_19
REMARK    3  A    between atoms: C_18  and  O_42
REMARK    4  A    between atoms: C_20  and  C_21
REMARK    5  A    between atoms: C_22  and  C_23
REMARK    6  A    between atoms: C_23  and  C_24
REMARK    7  A    between atoms: C_25  and  C_26
REMARK    8  A    between atoms: C_27  and  S_28
REMARK    9  A    between atoms: S_28  and  C_30
REMARK   10  A    between atoms: C_30  and  C_31
REMARK   11  A    between atoms: C_32  and  C_33
REMARK   12  A    between atoms: C_33  and  C_36
REMARK                            x       y       z     vdW  Elec       q    Type
REMARK                         _______ _______ _______ _____ _____    ______ ____
ROOT
ATOM      1  C   UNL     1      36.344  23.087   3.000  0.00  0.00    +0.000 C 
ATOM      2  C   UNL     1      35.850  24.600   2.800  0.00  0.00    +0.000 C 
ATOM      3  C   UNL     1      37.666  22.572   2.519  0.00  0.00    +0.000 A 
ATOM      4  C   UNL     1      38.820  23.532   2.161  0.00  0.00    +0.000 A 
ATOM      5  C   UNL     1      37.058  25.383   2.561  0.00  0.00    +0.000 C 
ATOM      6  C   UNL     1      35.166  24.921   4.147  0.00  0.00    +0.000 C 
ATOM      7  C   UNL     1      35.836  22.654   4.268  0.00  0.00    +0.000 C 
ATOM      8  C   UNL     1      37.941  21.117   2.378  0.00  0.00    +0.000 A 
ATOM      9  C   UNL     1      38.445  24.893   2.251  0.00  0.00    +0.000 C 
ATOM     10  C   UNL     1      35.134  23.776   4.988  0.00  0.00    +0.000 C 
ATOM     11  C   UNL     1      34.822  24.638   1.640  0.00  0.00    +0.000 C 
ATOM     12  C   UNL     1      40.166  23.071   1.717  0.00  0.00    +0.000 A 
ATOM     13  C   UNL     1      39.272  20.888   1.956  0.00  0.00    +0.000 A 
ATOM     14  C   UNL     1      40.399  21.679   1.613  0.00  0.00    +0.000 A 
ATOM     15  C   UNL     1      41.200  23.948   1.400  0.00  0.00    +0.000 A 
ATOM     16  C   UNL     1      41.618  21.162   1.206  0.00  0.00    +0.000 A 
ATOM     17  C   UNL     1      42.435  23.442   0.989  0.00  0.00    +0.000 A 
ATOM     18  C   UNL     1      42.632  22.063   0.896  0.00  0.00    +0.000 A 
ENDROOT
BRANCH   8  19
ATOM     19  C   UNL     1      36.943  20.118   2.472  0.00  0.00    +0.000 C 
ATOM     20  C   UNL     1      35.863  19.038   2.596  0.00  0.00    +0.000 C 
BRANCH  20  21
ATOM     21  C   UNL     1      34.787  17.960   2.749  0.00  0.00    +0.000 C 
ATOM     22  C   UNL     1      33.732  16.862   2.914  0.00  0.00    +0.000 C 
BRANCH  22  23
ATOM     23  C   UNL     1      32.701  15.742   3.089  0.00  0.00    +0.000 C 
BRANCH  23  24
ATOM     24  C   UNL     1      31.691  14.607   3.290  0.00  0.00    +0.000 C 
ATOM     25  C   UNL     1      30.708  13.452   3.501  0.00  0.00    +0.000 C 
BRANCH  25  26
ATOM     26  C   UNL     1      29.752  12.275   3.720  0.00  0.00    +0.000 C 
ATOM     27  C   UNL     1      28.768  11.122   3.943  0.00  0.00    +0.000 C 
BRANCH  27  28
ATOM     28  S   UNL     1      27.613   9.821   4.207  0.00  0.00    +0.000 S 
ATOM     29  O   UNL     1      26.513  10.583   3.529  0.00  0.00    +0.000 OA
BRANCH  28  30
ATOM     30  C   UNL     1      28.039   8.986   2.717  0.00  0.00    +0.000 C 
BRANCH  30  31
ATOM     31  C   UNL     1      28.398   8.275   1.407  0.00  0.00    +0.000 C 
ATOM     32  C   UNL     1      28.767   7.579   0.092  0.00  0.00    +0.000 C 
BRANCH  32  33
ATOM     33  C   UNL     1      29.125   6.921  -1.167  0.00  0.00    +0.000 C 
ATOM     34  F   UNL     1      29.482   5.637  -0.884  0.00  0.00    +0.000 F 
ATOM     35  F   UNL     1      30.249   7.524  -1.647  0.00  0.00    +0.000 F 
BRANCH  33  36
ATOM     36  C   UNL     1      28.003   6.957  -2.210  0.00  0.00    +0.000 C 
ATOM     37  F   UNL     1      26.775   7.016  -1.634  0.00  0.00    +0.000 F 
ATOM     38  F   UNL     1      28.011   5.861  -3.009  0.00  0.00    +0.000 F 
ATOM     39  F   UNL     1      28.106   8.038  -3.025  0.00  0.00    +0.000 F 
ENDBRANCH  33  36
ENDBRANCH  32  33
ENDBRANCH  30  31
ENDBRANCH  28  30
ENDBRANCH  27  28
ENDBRANCH  25  26
ENDBRANCH  23  24
ENDBRANCH  22  23
ENDBRANCH  20  21
ENDBRANCH   8  19
BRANCH   6  40
ATOM     40  O   UNL     1      35.063  26.203   4.645  0.00  0.00    +0.000 OA
ATOM     41  H   UNL     1      35.824  26.753   4.389  0.00  0.00    +0.000 HD
ENDBRANCH   6  40
BRANCH  18  42
ATOM     42  O   UNL     1      43.856  21.616   0.488  0.00  0.00    +0.000 OA
ATOM     43  H   UNL     1      43.813  20.648   0.390  0.00  0.00    +0.000 HD
ENDBRANCH  18  42
TORSDOF 12
ENDMDL
MODEL 5
REMARK VINA RESULT:      -5.7     24.445     28.633
REMARK  Name = Fulvestrant.pdbqt.pdb
REMARK  12 active torsions:
REMARK  status: ('A' for Active; 'I' for Inactive)
REMARK    1  A    between atoms: C_6  and  O_40
REMARK    2  A    between atoms: C_8  and  C_19
REMARK    3  A    between atoms: C_18  and  O_42
REMARK    4  A    between atoms: C_20  and  C_21
REMARK    5  A    between atoms: C_22  and  C_23
REMARK    6  A    between atoms: C_23  and  C_24
REMARK    7  A    between atoms: C_25  and  C_26
REMARK    8  A    between atoms: C_27  and  S_28
REMARK    9  A    between atoms: S_28  and  C_30
REMARK   10  A    between atoms: C_30  and  C_31
REMARK   11  A    between atoms: C_32  and  C_33
REMARK   12  A    between atoms: C_33  and  C_36
REMARK                            x       y       z     vdW  Elec       q    Type
REMARK                         _______ _______ _______ _____ _____    ______ ____
ROOT
ATOM      1  C   UNL     1      47.108   0.079 -12.508  0.00  0.00    +0.000 C 
ATOM      2  C   UNL     1      47.492  -0.522 -13.945  0.00  0.00    +0.000 C 
ATOM      3  C   UNL     1      47.960  -0.079 -11.285  0.00  0.00    +0.000 A 
ATOM      4  C   UNL     1      49.449  -0.471 -11.387  0.00  0.00    +0.000 A 
ATOM      5  C   UNL     1      48.932  -0.752 -13.907  0.00  0.00    +0.000 C 
ATOM      6  C   UNL     1      47.075   0.607 -14.913  0.00  0.00    +0.000 C 
ATOM      7  C   UNL     1      46.442   1.325 -12.749  0.00  0.00    +0.000 C 
ATOM      8  C   UNL     1      47.423   0.149  -9.917  0.00  0.00    +0.000 A 
ATOM      9  C   UNL     1      49.851  -0.741 -12.717  0.00  0.00    +0.000 C 
ATOM     10  C   UNL     1      46.437   1.667 -14.216  0.00  0.00    +0.000 C 
ATOM     11  C   UNL     1      46.646  -1.797 -14.191  0.00  0.00    +0.000 C 
ATOM     12  C   UNL     1      50.349  -0.601 -10.207  0.00  0.00    +0.000 A 
ATOM     13  C   UNL     1      48.434  -0.014  -8.939  0.00  0.00    +0.000 A 
ATOM     14  C   UNL     1      49.810  -0.358  -8.921  0.00  0.00    +0.000 A 
ATOM     15  C   UNL     1      51.692  -0.953 -10.314  0.00  0.00    +0.000 A 
ATOM     16  C   UNL     1      50.573  -0.459  -7.769  0.00  0.00    +0.000 A 
ATOM     17  C   UNL     1      52.474  -1.058  -9.162  0.00  0.00    +0.000 A 
ATOM     18  C   UNL     1      51.911  -0.813  -7.908  0.00  0.00    +0.000 A 
ENDROOT
BRANCH   8  19
ATOM     19  C   UNL     1      46.047   0.318  -9.632  0.00  0.00    +0.000 C 
ATOM     20  C   UNL     1      44.557   0.518  -9.338  0.00  0.00    +0.000 C 
BRANCH  20  21
ATOM     21  C   UNL     1      43.068   0.742  -9.061  0.00  0.00    +0.000 C 
ATOM     22  C   UNL     1      41.578   0.988  -8.806  0.00  0.00    +0.000 C 
BRANCH  22  23
ATOM     23  C   UNL     1      40.089   1.261  -8.573  0.00  0.00    +0.000 C 
BRANCH  23  24
ATOM     24  C   UNL     1      38.599   1.510  -8.313  0.00  0.00    +0.000 C 
ATOM     25  C   UNL     1      37.108   1.773  -8.087  0.00  0.00    +0.000 C 
BRANCH  25  26
ATOM     26  C   UNL     1      35.614   2.053  -7.891  0.00  0.00    +0.000 C 
ATOM     27  C   UNL     1      34.128   2.343  -7.659  0.00  0.00    +0.000 C 
BRANCH  27  28
ATOM     28  S   UNL     1      32.426   2.680  -7.360  0.00  0.00    +0.000 S 
ATOM     29  O   UNL     1      31.987   1.639  -8.346  0.00  0.00    +0.000 OA
BRANCH  28  30
ATOM     30  C   UNL     1      32.319   1.545  -6.018  0.00  0.00    +0.000 C 
BRANCH  30  31
ATOM     31  C   UNL     1      32.243   0.570  -4.838  0.00  0.00    +0.000 C 
ATOM     32  C   UNL     1      32.175  -0.419  -3.669  0.00  0.00    +0.000 C 
BRANCH  32  33
ATOM     33  C   UNL     1      32.113  -1.371  -2.557  0.00  0.00    +0.000 C 
ATOM     34  F   UNL     1      31.184  -0.918  -1.668  0.00  0.00    +0.000 F 
ATOM     35  F   UNL     1      33.308  -1.326  -1.904  0.00  0.00    +0.000 F 
BRANCH  33  36
ATOM     36  C   UNL     1      31.790  -2.801  -3.001  0.00  0.00    +0.000 C 
ATOM     37  F   UNL     1      30.593  -3.225  -2.519  0.00  0.00    +0.000 F 
ATOM     38  F   UNL     1      32.722  -3.691  -2.579  0.00  0.00    +0.000 F 
ATOM     39  F   UNL     1      31.728  -2.908  -4.353  0.00  0.00    +0.000 F 
ENDBRANCH  33  36
ENDBRANCH  32  33
ENDBRANCH  30  31
ENDBRANCH  28  30
ENDBRANCH  27  28
ENDBRANCH  25  26
ENDBRANCH  23  24
ENDBRANCH  22  23
ENDBRANCH  20  21
ENDBRANCH   8  19
BRANCH   6  40
ATOM     40  O   UNL     1      47.664   0.786 -16.147  0.00  0.00    +0.000 OA
ATOM     41  H   UNL     1      48.551   1.180 -16.071  0.00  0.00    +0.000 HD
ENDBRANCH   6  40
BRANCH  18  42
ATOM     42  O   UNL     1      52.715  -0.928  -6.809  0.00  0.00    +0.000 OA
ATOM     43  H   UNL     1      52.266  -0.509  -6.055  0.00  0.00    +0.000 HD
ENDBRANCH  18  42
TORSDOF 12
ENDMDL
MODEL 6
REMARK VINA RESULT:      -5.5     14.480     21.289
REMARK  Name = Fulvestrant.pdbqt.pdb
REMARK  12 active torsions:
REMARK  status: ('A' for Active; 'I' for Inactive)
REMARK    1  A    between atoms: C_6  and  O_40
REMARK    2  A    between atoms: C_8  and  C_19
REMARK    3  A    between atoms: C_18  and  O_42
REMARK    4  A    between atoms: C_20  and  C_21
REMARK    5  A    between atoms: C_22  and  C_23
REMARK    6  A    between atoms: C_23  and  C_24
REMARK    7  A    between atoms: C_25  and  C_26
REMARK    8  A    between atoms: C_27  and  S_28
REMARK    9  A    between atoms: S_28  and  C_30
REMARK   10  A    between atoms: C_30  and  C_31
REMARK   11  A    between atoms: C_32  and  C_33
REMARK   12  A    between atoms: C_33  and  C_36
REMARK                            x       y       z     vdW  Elec       q    Type
REMARK                         _______ _______ _______ _____ _____    ______ ____
ROOT
ATOM      1  C   UNL     1      44.771  -3.666  17.051  0.00  0.00    +0.000 C 
ATOM      2  C   UNL     1      44.515  -3.528  18.629  0.00  0.00    +0.000 C 
ATOM      3  C   UNL     1      43.906  -3.025  16.008  0.00  0.00    +0.000 A 
ATOM      4  C   UNL     1      42.954  -1.862  16.357  0.00  0.00    +0.000 A 
ATOM      5  C   UNL     1      43.681  -2.343  18.793  0.00  0.00    +0.000 C 
ATOM      6  C   UNL     1      45.942  -3.360  19.196  0.00  0.00    +0.000 C 
ATOM      7  C   UNL     1      46.192  -3.700  16.867  0.00  0.00    +0.000 C 
ATOM      8  C   UNL     1      43.931  -3.462  14.587  0.00  0.00    +0.000 A 
ATOM      9  C   UNL     1      42.941  -1.566  17.741  0.00  0.00    +0.000 C 
ATOM     10  C   UNL     1      46.917  -3.490  18.171  0.00  0.00    +0.000 C 
ATOM     11  C   UNL     1      43.871  -4.841  19.144  0.00  0.00    +0.000 C 
ATOM     12  C   UNL     1      42.104  -1.164  15.352  0.00  0.00    +0.000 A 
ATOM     13  C   UNL     1      43.064  -2.671  13.795  0.00  0.00    +0.000 A 
ATOM     14  C   UNL     1      42.168  -1.593  14.005  0.00  0.00    +0.000 A 
ATOM     15  C   UNL     1      41.251  -0.112  15.680  0.00  0.00    +0.000 A 
ATOM     16  C   UNL     1      41.411  -1.003  13.005  0.00  0.00    +0.000 A 
ATOM     17  C   UNL     1      40.482   0.492  14.684  0.00  0.00    +0.000 A 
ATOM     18  C   UNL     1      40.568   0.044  13.364  0.00  0.00    +0.000 A 
ENDROOT
BRANCH   8  19
ATOM     19  C   UNL     1      44.590  -4.631  14.137  0.00  0.00    +0.000 C 
ATOM     20  C   UNL     1      45.306  -5.887  13.631  0.00  0.00    +0.000 C 
BRANCH  20  21
ATOM     21  C   UNL     1      46.024  -7.130  13.098  0.00  0.00    +0.000 C 
ATOM     22  C   UNL     1      46.742  -8.361  12.536  0.00  0.00    +0.000 C 
BRANCH  22  23
ATOM     23  C   UNL     1      47.460  -9.577  11.943  0.00  0.00    +0.000 C 
BRANCH  23  24
ATOM     24  C   UNL     1      48.147 -10.814  11.354  0.00  0.00    +0.000 C 
ATOM     25  C   UNL     1      48.827 -12.037  10.732  0.00  0.00    +0.000 C 
BRANCH  25  26
ATOM     26  C   UNL     1      49.498 -13.250  10.078  0.00  0.00    +0.000 C 
ATOM     27  C   UNL     1      50.169 -14.479   9.458  0.00  0.00    +0.000 C 
BRANCH  27  28
ATOM     28  S   UNL     1      50.944 -15.905   8.777  0.00  0.00    +0.000 S 
ATOM     29  O   UNL     1      49.895 -16.816   9.343  0.00  0.00    +0.000 OA
BRANCH  28  30
ATOM     30  C   UNL     1      50.092 -15.775   7.241  0.00  0.00    +0.000 C 
BRANCH  30  31
ATOM     31  C   UNL     1      49.352 -15.638   5.906  0.00  0.00    +0.000 C 
ATOM     32  C   UNL     1      48.604 -15.484   4.577  0.00  0.00    +0.000 C 
BRANCH  32  33
ATOM     33  C   UNL     1      47.885 -15.330   3.309  0.00  0.00    +0.000 C 
ATOM     34  F   UNL     1      47.698 -16.571   2.779  0.00  0.00    +0.000 F 
ATOM     35  F   UNL     1      48.705 -14.673   2.442  0.00  0.00    +0.000 F 
BRANCH  33  36
ATOM     36  C   UNL     1      46.549 -14.594   3.457  0.00  0.00    +0.000 C 
ATOM     37  F   UNL     1      46.250 -13.856   2.356  0.00  0.00    +0.000 F 
ATOM     38  F   UNL     1      46.546 -13.745   4.514  0.00  0.00    +0.000 F 
ATOM     39  F   UNL     1      45.517 -15.456   3.643  0.00  0.00    +0.000 F 
ENDBRANCH  33  36
ENDBRANCH  32  33
ENDBRANCH  30  31
ENDBRANCH  28  30
ENDBRANCH  27  28
ENDBRANCH  25  26
ENDBRANCH  23  24
ENDBRANCH  22  23
ENDBRANCH  20  21
ENDBRANCH   8  19
BRANCH   6  40
ATOM     40  O   UNL     1      46.202  -2.701  20.379  0.00  0.00    +0.000 OA
ATOM     41  H   UNL     1      47.154  -2.687  20.584  0.00  0.00    +0.000 HD
ENDBRANCH   6  40
BRANCH  18  42
ATOM     42  O   UNL     1      39.796   0.666  12.424  0.00  0.00    +0.000 OA
ATOM     43  H   UNL     1      40.351   0.854  11.646  0.00  0.00    +0.000 HD
ENDBRANCH  18  42
TORSDOF 12
ENDMDL
MODEL 7
REMARK VINA RESULT:      -5.5      7.973     10.589
REMARK  Name = Fulvestrant.pdbqt.pdb
REMARK  12 active torsions:
REMARK  status: ('A' for Active; 'I' for Inactive)
REMARK    1  A    between atoms: C_6  and  O_40
REMARK    2  A    between atoms: C_8  and  C_19
REMARK    3  A    between atoms: C_18  and  O_42
REMARK    4  A    between atoms: C_20  and  C_21
REMARK    5  A    between atoms: C_22  and  C_23
REMARK    6  A    between atoms: C_23  and  C_24
REMARK    7  A    between atoms: C_25  and  C_26
REMARK    8  A    between atoms: C_27  and  S_28
REMARK    9  A    between atoms: S_28  and  C_30
REMARK   10  A    between atoms: C_30  and  C_31
REMARK   11  A    between atoms: C_32  and  C_33
REMARK   12  A    between atoms: C_33  and  C_36
REMARK                            x       y       z     vdW  Elec       q    Type
REMARK                         _______ _______ _______ _____ _____    ______ ____
ROOT
ATOM      1  C   UNL     1      31.370  -4.405  15.034  0.00  0.00    +0.000 C 
ATOM      2  C   UNL     1      32.393  -5.614  14.780  0.00  0.00    +0.000 C 
ATOM      3  C   UNL     1      30.520  -3.794  13.960  0.00  0.00    +0.000 A 
ATOM      4  C   UNL     1      30.254  -4.531  12.630  0.00  0.00    +0.000 A 
ATOM      5  C   UNL     1      31.954  -6.253  13.545  0.00  0.00    +0.000 C 
ATOM      6  C   UNL     1      32.200  -6.497  16.033  0.00  0.00    +0.000 C 
ATOM      7  C   UNL     1      30.823  -4.597  16.344  0.00  0.00    +0.000 C 
ATOM      8  C   UNL     1      29.878  -2.464  14.126  0.00  0.00    +0.000 A 
ATOM      9  C   UNL     1      30.964  -5.750  12.531  0.00  0.00    +0.000 C 
ATOM     10  C   UNL     1      31.307  -5.887  16.954  0.00  0.00    +0.000 C 
ATOM     11  C   UNL     1      33.834  -5.043  14.728  0.00  0.00    +0.000 C 
ATOM     12  C   UNL     1      29.384  -3.987  11.549  0.00  0.00    +0.000 A 
ATOM     13  C   UNL     1      29.090  -2.134  12.997  0.00  0.00    +0.000 A 
ATOM     14  C   UNL     1      28.773  -2.727  11.748  0.00  0.00    +0.000 A 
ATOM     15  C   UNL     1      29.150  -4.663  10.354  0.00  0.00    +0.000 A 
ATOM     16  C   UNL     1      27.952  -2.145  10.796  0.00  0.00    +0.000 A 
ATOM     17  C   UNL     1      28.324  -4.090   9.385  0.00  0.00    +0.000 A 
ATOM     18  C   UNL     1      27.737  -2.844   9.612  0.00  0.00    +0.000 A 
ENDROOT
BRANCH   8  19
ATOM     19  C   UNL     1      30.174  -1.576  15.188  0.00  0.00    +0.000 C 
ATOM     20  C   UNL     1      30.497  -0.633  16.351  0.00  0.00    +0.000 C 
BRANCH  20  21
ATOM     21  C   UNL     1      30.821   0.287  17.531  0.00  0.00    +0.000 C 
ATOM     22  C   UNL     1      31.116   1.203  18.724  0.00  0.00    +0.000 C 
BRANCH  22  23
ATOM     23  C   UNL     1      31.377   2.115  19.926  0.00  0.00    +0.000 C 
BRANCH  23  24
ATOM     24  C   UNL     1      31.656   3.051  21.106  0.00  0.00    +0.000 C 
ATOM     25  C   UNL     1      31.956   4.006  22.265  0.00  0.00    +0.000 C 
BRANCH  25  26
ATOM     26  C   UNL     1      32.280   4.979  23.404  0.00  0.00    +0.000 C 
ATOM     27  C   UNL     1      32.582   5.931  24.566  0.00  0.00    +0.000 C 
BRANCH  27  28
ATOM     28  S   UNL     1      32.906   7.007  25.920  0.00  0.00    +0.000 S 
ATOM     29  O   UNL     1      34.349   6.600  25.973  0.00  0.00    +0.000 OA
BRANCH  28  30
ATOM     30  C   UNL     1      33.267   8.386  24.886  0.00  0.00    +0.000 C 
BRANCH  30  31
ATOM     31  C   UNL     1      33.564   9.579  23.970  0.00  0.00    +0.000 C 
ATOM     32  C   UNL     1      33.850  10.764  23.041  0.00  0.00    +0.000 C 
BRANCH  32  33
ATOM     33  C   UNL     1      34.118  11.892  22.146  0.00  0.00    +0.000 C 
ATOM     34  F   UNL     1      33.702  13.030  22.769  0.00  0.00    +0.000 F 
ATOM     35  F   UNL     1      33.320  11.753  21.050  0.00  0.00    +0.000 F 
BRANCH  33  36
ATOM     36  C   UNL     1      35.590  12.003  21.735  0.00  0.00    +0.000 C 
ATOM     37  F   UNL     1      35.730  12.375  20.437  0.00  0.00    +0.000 F 
ATOM     38  F   UNL     1      36.253  10.829  21.882  0.00  0.00    +0.000 F 
ATOM     39  F   UNL     1      36.253  12.924  22.480  0.00  0.00    +0.000 F 
ENDBRANCH  33  36
ENDBRANCH  32  33
ENDBRANCH  30  31
ENDBRANCH  28  30
ENDBRANCH  27  28
ENDBRANCH  25  26
ENDBRANCH  23  24
ENDBRANCH  22  23
ENDBRANCH  20  21
ENDBRANCH   8  19
BRANCH   6  40
ATOM     40  O   UNL     1      32.444  -7.854  16.033  0.00  0.00    +0.000 OA
ATOM     41  H   UNL     1      32.602  -8.194  15.134  0.00  0.00    +0.000 HD
ENDBRANCH   6  40
BRANCH  18  42
ATOM     42  O   UNL     1      26.938  -2.323   8.635  0.00  0.00    +0.000 OA
ATOM     43  H   UNL     1      26.146  -2.883   8.554  0.00  0.00    +0.000 HD
ENDBRANCH  18  42
TORSDOF 12
ENDMDL
MODEL 8
REMARK VINA RESULT:      -5.4     18.315     20.710
REMARK  Name = Fulvestrant.pdbqt.pdb
REMARK  12 active torsions:
REMARK  status: ('A' for Active; 'I' for Inactive)
REMARK    1  A    between atoms: C_6  and  O_40
REMARK    2  A    between atoms: C_8  and  C_19
REMARK    3  A    between atoms: C_18  and  O_42
REMARK    4  A    between atoms: C_20  and  C_21
REMARK    5  A    between atoms: C_22  and  C_23
REMARK    6  A    between atoms: C_23  and  C_24
REMARK    7  A    between atoms: C_25  and  C_26
REMARK    8  A    between atoms: C_27  and  S_28
REMARK    9  A    between atoms: S_28  and  C_30
REMARK   10  A    between atoms: C_30  and  C_31
REMARK   11  A    between atoms: C_32  and  C_33
REMARK   12  A    between atoms: C_33  and  C_36
REMARK                            x       y       z     vdW  Elec       q    Type
REMARK                         _______ _______ _______ _____ _____    ______ ____
ROOT
ATOM      1  C   UNL     1      54.345  15.977  19.101  0.00  0.00    +0.000 C 
ATOM      2  C   UNL     1      55.378  15.355  18.044  0.00  0.00    +0.000 C 
ATOM      3  C   UNL     1      53.711  15.189  20.208  0.00  0.00    +0.000 A 
ATOM      4  C   UNL     1      54.299  13.841  20.673  0.00  0.00    +0.000 A 
ATOM      5  C   UNL     1      55.905  14.145  18.667  0.00  0.00    +0.000 C 
ATOM      6  C   UNL     1      56.431  16.475  17.890  0.00  0.00    +0.000 C 
ATOM      7  C   UNL     1      54.767  17.324  19.344  0.00  0.00    +0.000 C 
ATOM      8  C   UNL     1      52.500  15.671  20.924  0.00  0.00    +0.000 A 
ATOM      9  C   UNL     1      55.401  13.426  19.888  0.00  0.00    +0.000 C 
ATOM     10  C   UNL     1      56.056  17.631  18.627  0.00  0.00    +0.000 C 
ATOM     11  C   UNL     1      54.635  15.113  16.705  0.00  0.00    +0.000 C 
ATOM     12  C   UNL     1      53.733  13.039  21.795  0.00  0.00    +0.000 A 
ATOM     13  C   UNL     1      52.127  14.776  21.955  0.00  0.00    +0.000 A 
ATOM     14  C   UNL     1      52.591  13.537  22.466  0.00  0.00    +0.000 A 
ATOM     15  C   UNL     1      54.275  11.824  22.207  0.00  0.00    +0.000 A 
ATOM     16  C   UNL     1      51.997  12.857  23.518  0.00  0.00    +0.000 A 
ATOM     17  C   UNL     1      53.688  11.128  23.265  0.00  0.00    +0.000 A 
ATOM     18  C   UNL     1      52.562  11.646  23.906  0.00  0.00    +0.000 A 
ENDROOT
BRANCH   8  19
ATOM     19  C   UNL     1      51.725  16.777  20.498  0.00  0.00    +0.000 C 
ATOM     20  C   UNL     1      50.876  17.961  20.025  0.00  0.00    +0.000 C 
BRANCH  20  21
ATOM     21  C   UNL     1      50.014  19.126  19.532  0.00  0.00    +0.000 C 
ATOM     22  C   UNL     1      49.128  20.271  19.032  0.00  0.00    +0.000 C 
BRANCH  22  23
ATOM     23  C   UNL     1      48.219  21.393  18.521  0.00  0.00    +0.000 C 
BRANCH  23  24
ATOM     24  C   UNL     1      47.282  22.500  18.026  0.00  0.00    +0.000 C 
ATOM     25  C   UNL     1      46.373  23.623  17.516  0.00  0.00    +0.000 C 
BRANCH  25  26
ATOM     26  C   UNL     1      45.493  24.764  16.996  0.00  0.00    +0.000 C 
ATOM     27  C   UNL     1      44.633  25.905  16.444  0.00  0.00    +0.000 C 
BRANCH  27  28
ATOM     28  S   UNL     1      43.668  27.220  15.783  0.00  0.00    +0.000 S 
ATOM     29  O   UNL     1      44.658  27.472  14.684  0.00  0.00    +0.000 OA
BRANCH  28  30
ATOM     30  C   UNL     1      42.709  26.154  14.761  0.00  0.00    +0.000 C 
BRANCH  30  31
ATOM     31  C   UNL     1      41.868  25.246  13.857  0.00  0.00    +0.000 C 
ATOM     32  C   UNL     1      41.039  24.322  12.958  0.00  0.00    +0.000 C 
BRANCH  32  33
ATOM     33  C   UNL     1      40.252  23.431  12.101  0.00  0.00    +0.000 C 
ATOM     34  F   UNL     1      40.236  23.963  10.846  0.00  0.00    +0.000 F 
ATOM     35  F   UNL     1      38.962  23.466  12.538  0.00  0.00    +0.000 F 
BRANCH  33  36
ATOM     36  C   UNL     1      40.779  21.993  12.075  0.00  0.00    +0.000 C 
ATOM     37  F   UNL     1      41.167  21.615  10.830  0.00  0.00    +0.000 F 
ATOM     38  F   UNL     1      39.846  21.098  12.485  0.00  0.00    +0.000 F 
ATOM     39  F   UNL     1      41.857  21.836  12.886  0.00  0.00    +0.000 F 
ENDBRANCH  33  36
ENDBRANCH  32  33
ENDBRANCH  30  31
ENDBRANCH  28  30
ENDBRANCH  27  28
ENDBRANCH  25  26
ENDBRANCH  23  24
ENDBRANCH  22  23
ENDBRANCH  20  21
ENDBRANCH   8  19
BRANCH   6  40
ATOM     40  O   UNL     1      57.737  16.227  17.525  0.00  0.00    +0.000 OA
ATOM     41  H   UNL     1      58.369  16.637  18.143  0.00  0.00    +0.000 HD
ENDBRANCH   6  40
BRANCH  18  42
ATOM     42  O   UNL     1      52.022  10.929  24.936  0.00  0.00    +0.000 OA
ATOM     43  H   UNL     1      51.364  10.312  24.569  0.00  0.00    +0.000 HD
ENDBRANCH  18  42
TORSDOF 12
ENDMDL
MODEL 9
REMARK VINA RESULT:      -5.2     18.055     23.473
REMARK  Name = Fulvestrant.pdbqt.pdb
REMARK  12 active torsions:
REMARK  status: ('A' for Active; 'I' for Inactive)
REMARK    1  A    between atoms: C_6  and  O_40
REMARK    2  A    between atoms: C_8  and  C_19
REMARK    3  A    between atoms: C_18  and  O_42
REMARK    4  A    between atoms: C_20  and  C_21
REMARK    5  A    between atoms: C_22  and  C_23
REMARK    6  A    between atoms: C_23  and  C_24
REMARK    7  A    between atoms: C_25  and  C_26
REMARK    8  A    between atoms: C_27  and  S_28
REMARK    9  A    between atoms: S_28  and  C_30
REMARK   10  A    between atoms: C_30  and  C_31
REMARK   11  A    between atoms: C_32  and  C_33
REMARK   12  A    between atoms: C_33  and  C_36
REMARK                            x       y       z     vdW  Elec       q    Type
REMARK                         _______ _______ _______ _____ _____    ______ ____
ROOT
ATOM      1  C   UNL     1      27.498  -2.359  -1.395  0.00  0.00    +0.000 C 
ATOM      2  C   UNL     1      26.267  -2.773  -2.336  0.00  0.00    +0.000 C 
ATOM      3  C   UNL     1      28.740  -1.688  -1.897  0.00  0.00    +0.000 A 
ATOM      4  C   UNL     1      28.772  -0.976  -3.266  0.00  0.00    +0.000 A 
ATOM      5  C   UNL     1      26.393  -1.955  -3.537  0.00  0.00    +0.000 C 
ATOM      6  C   UNL     1      25.037  -2.413  -1.473  0.00  0.00    +0.000 C 
ATOM      7  C   UNL     1      26.938  -1.961  -0.138  0.00  0.00    +0.000 C 
ATOM      8  C   UNL     1      29.995  -1.656  -1.100  0.00  0.00    +0.000 A 
ATOM      9  C   UNL     1      27.562  -1.123  -3.984  0.00  0.00    +0.000 C 
ATOM     10  C   UNL     1      25.432  -1.968  -0.183  0.00  0.00    +0.000 C 
ATOM     11  C   UNL     1      26.328  -4.301  -2.592  0.00  0.00    +0.000 C 
ATOM     12  C   UNL     1      29.967  -0.259  -3.793  0.00  0.00    +0.000 A 
ATOM     13  C   UNL     1      31.005  -0.922  -1.767  0.00  0.00    +0.000 A 
ATOM     14  C   UNL     1      31.138  -0.233  -2.999  0.00  0.00    +0.000 A 
ATOM     15  C   UNL     1      29.982   0.382  -5.030  0.00  0.00    +0.000 A 
ATOM     16  C   UNL     1      32.296   0.408  -3.412  0.00  0.00    +0.000 A 
ATOM     17  C   UNL     1      31.140   1.032  -5.459  0.00  0.00    +0.000 A 
ATOM     18  C   UNL     1      32.279   1.039  -4.652  0.00  0.00    +0.000 A 
ENDROOT
BRANCH   8  19
ATOM     19  C   UNL     1      30.198  -2.420   0.075  0.00  0.00    +0.000 C 
ATOM     20  C   UNL     1      30.421  -3.264   1.334  0.00  0.00    +0.000 C 
BRANCH  20  21
ATOM     21  C   UNL     1      30.648  -4.131   2.575  0.00  0.00    +0.000 C 
ATOM     22  C   UNL     1      30.857  -5.022   3.803  0.00  0.00    +0.000 C 
BRANCH  22  23
ATOM     23  C   UNL     1      31.047  -5.937   5.017  0.00  0.00    +0.000 C 
BRANCH  23  24
ATOM     24  C   UNL     1      31.203  -6.847   6.240  0.00  0.00    +0.000 C 
ATOM     25  C   UNL     1      31.376  -7.731   7.478  0.00  0.00    +0.000 C 
BRANCH  25  26
ATOM     26  C   UNL     1      31.571  -8.590   8.732  0.00  0.00    +0.000 C 
ATOM     27  C   UNL     1      31.773  -9.479   9.963  0.00  0.00    +0.000 C 
BRANCH  27  28
ATOM     28  S   UNL     1      32.009 -10.527  11.358  0.00  0.00    +0.000 S 
ATOM     29  O   UNL     1      31.879 -11.765  10.521  0.00  0.00    +0.000 OA
BRANCH  28  30
ATOM     30  C   UNL     1      33.763 -10.530  11.202  0.00  0.00    +0.000 C 
BRANCH  30  31
ATOM     31  C   UNL     1      35.291 -10.552  11.081  0.00  0.00    +0.000 C 
ATOM     32  C   UNL     1      36.819 -10.589  10.972  0.00  0.00    +0.000 C 
BRANCH  32  33
ATOM     33  C   UNL     1      38.281 -10.630  10.876  0.00  0.00    +0.000 C 
ATOM     34  F   UNL     1      38.790 -10.378  12.115  0.00  0.00    +0.000 F 
ATOM     35  F   UNL     1      38.676  -9.589  10.091  0.00  0.00    +0.000 F 
BRANCH  33  36
ATOM     36  C   UNL     1      38.815 -11.957  10.327  0.00  0.00    +0.000 C 
ATOM     37  F   UNL     1      40.026 -12.274  10.853  0.00  0.00    +0.000 F 
ATOM     38  F   UNL     1      38.965 -11.930   8.980  0.00  0.00    +0.000 F 
ATOM     39  F   UNL     1      37.982 -12.991  10.609  0.00  0.00    +0.000 F 
ENDBRANCH  33  36
ENDBRANCH  32  33
ENDBRANCH  30  31
ENDBRANCH  28  30
ENDBRANCH  27  28
ENDBRANCH  25  26
ENDBRANCH  23  24
ENDBRANCH  22  23
ENDBRANCH  20  21
ENDBRANCH   8  19
BRANCH   6  40
ATOM     40  O   UNL     1      23.810  -2.095  -2.017  0.00  0.00    +0.000 OA
ATOM     41  H   UNL     1      23.277  -1.550  -1.412  0.00  0.00    +0.000 HD
ENDBRANCH   6  40
BRANCH  18  42
ATOM     42  O   UNL     1      33.389   1.687  -5.114  0.00  0.00    +0.000 OA
ATOM     43  H   UNL     1      33.486   2.521  -4.621  0.00  0.00    +0.000 HD
ENDBRANCH  18  42
TORSDOF 12
ENDMDL
