MODEL 1
REMARK VINA RESULT:      -6.1      0.000      0.000
REMARK  Name = Gefitinib.pdbqt.pdb
REMARK  6 active torsions:
REMARK  status: ('A' for Active; 'I' for Inactive)
REMARK    1  A    between atoms: C_3  and  O_11
REMARK    2  A    between atoms: C_6  and  O_21
REMARK    3  A    between atoms: O_11  and  C_12
REMARK    4  A    between atoms: C_13  and  C_14
REMARK    5  A    between atoms: C_14  and  N_15
REMARK    6  A    between atoms: N_23  and  C_25
REMARK                            x       y       z     vdW  Elec       q    Type
REMARK                         _______ _______ _______ _____ _____    ______ ____
ROOT
ATOM      1  N   UNL     1      27.802   3.814  -5.222  0.00  0.00    +0.000 NA
ATOM      2  N   UNL     1      29.181   2.045  -4.419  0.00  0.00    +0.000 NA
ATOM      3  C   UNL     1      29.000   6.283  -2.095  0.00  0.00    +0.000 A 
ATOM      4  C   UNL     1      29.127   4.136  -3.258  0.00  0.00    +0.000 A 
ATOM      5  C   UNL     1      29.510   4.989  -2.208  0.00  0.00    +0.000 A 
ATOM      6  C   UNL     1      28.092   6.736  -3.053  0.00  0.00    +0.000 A 
ATOM      7  C   UNL     1      28.210   4.583  -4.212  0.00  0.00    +0.000 A 
ATOM      8  C   UNL     1      27.715   5.875  -4.091  0.00  0.00    +0.000 A 
ATOM      9  C   UNL     1      29.605   2.827  -3.413  0.00  0.00    +0.000 A 
ATOM     10  C   UNL     1      28.302   2.574  -5.278  0.00  0.00    +0.000 A 
ATOM     11  N   UNL     1      30.521   2.312  -2.461  0.00  0.00    +0.000 N 
ATOM     12  H   UNL     1      31.261   2.979  -2.268  0.00  0.00    +0.000 HD
ENDROOT
BRANCH  11  13
ATOM     13  C   UNL     1      30.963   0.978  -2.316  0.00  0.00    +0.000 A 
ATOM     14  C   UNL     1      30.093   0.034  -1.756  0.00  0.00    +0.000 A 
ATOM     15  C   UNL     1      30.445  -1.312  -1.688  0.00  0.00    +0.000 A 
ATOM     16 CL   UNL     1      29.351  -2.418  -0.960  0.00  0.00    +0.000 Cl
ATOM     17  C   UNL     1      31.663  -1.735  -2.208  0.00  0.00    +0.000 A 
ATOM     18  F   UNL     1      32.019  -3.027  -2.153  0.00  0.00    +0.000 F 
ATOM     19  C   UNL     1      32.527  -0.825  -2.803  0.00  0.00    +0.000 A 
ATOM     20  C   UNL     1      32.163   0.518  -2.868  0.00  0.00    +0.000 A 
ENDBRANCH  11  13
BRANCH   6  21
ATOM     21  O   UNL     1      27.613   8.016  -2.904  0.00  0.00    +0.000 OA
ATOM     22  C   UNL     1      26.899   8.528  -3.995  0.00  0.00    +0.000 C 
ENDBRANCH   6  21
BRANCH   3  23
ATOM     23  O   UNL     1      29.349   7.146  -1.085  0.00  0.00    +0.000 OA
BRANCH  23  24
ATOM     24  C   UNL     1      28.539   7.123  -0.029  0.00  0.00    +0.000 C 
ATOM     25  C   UNL     1      27.600   7.113   1.182  0.00  0.00    +0.000 C 
BRANCH  25  26
ATOM     26  C   UNL     1      26.646   7.132   2.382  0.00  0.00    +0.000 C 
BRANCH  26  27
ATOM     27  N   UNL     1      25.749   7.141   3.528  0.00  0.00    +0.000 N 
ATOM     28  C   UNL     1      26.574   7.523   4.714  0.00  0.00    +0.000 C 
ATOM     29  C   UNL     1      26.548   8.850   5.540  0.00  0.00    +0.000 C 
ATOM     30  O   UNL     1      25.843  10.001   5.467  0.00  0.00    +0.000 OA
ATOM     31  C   UNL     1      25.099   9.657   4.396  0.00  0.00    +0.000 C 
ATOM     32  C   UNL     1      24.977   8.418   3.459  0.00  0.00    +0.000 C 
ENDBRANCH  26  27
ENDBRANCH  25  26
ENDBRANCH  23  24
ENDBRANCH   3  23
TORSDOF 6
ENDMDL
MODEL 2
REMARK VINA RESULT:      -6.0     23.390     24.548
REMARK  Name = Gefitinib.pdbqt.pdb
REMARK  6 active torsions:
REMARK  status: ('A' for Active; 'I' for Inactive)
REMARK    1  A    between atoms: C_3  and  O_11
REMARK    2  A    between atoms: C_6  and  O_21
REMARK    3  A    between atoms: O_11  and  C_12
REMARK    4  A    between atoms: C_13  and  C_14
REMARK    5  A    between atoms: C_14  and  N_15
REMARK    6  A    between atoms: N_23  and  C_25
REMARK                            x       y       z     vdW  Elec       q    Type
REMARK                         _______ _______ _______ _____ _____    ______ ____
ROOT
ATOM      1  N   UNL     1      54.427   4.439   2.569  0.00  0.00    +0.000 NA
ATOM      2  N   UNL     1      53.393   2.450   3.377  0.00  0.00    +0.000 NA
ATOM      3  C   UNL     1      52.478   6.723   5.448  0.00  0.00    +0.000 A 
ATOM      4  C   UNL     1      52.934   4.546   4.435  0.00  0.00    +0.000 A 
ATOM      5  C   UNL     1      52.284   5.342   5.393  0.00  0.00    +0.000 A 
ATOM      6  C   UNL     1      53.343   7.320   4.530  0.00  0.00    +0.000 A 
ATOM      7  C   UNL     1      53.793   5.142   3.508  0.00  0.00    +0.000 A 
ATOM      8  C   UNL     1      53.980   6.516   3.578  0.00  0.00    +0.000 A 
ATOM      9  C   UNL     1      52.769   3.158   4.332  0.00  0.00    +0.000 A 
ATOM     10  C   UNL     1      54.194   3.121   2.541  0.00  0.00    +0.000 A 
ATOM     11  N   UNL     1      51.892   2.501   5.233  0.00  0.00    +0.000 N 
ATOM     12  H   UNL     1      52.052   2.808   6.188  0.00  0.00    +0.000 HD
ENDROOT
BRANCH  11  13
ATOM     13  C   UNL     1      51.432   1.166   5.178  0.00  0.00    +0.000 A 
ATOM     14  C   UNL     1      50.759   0.729   4.032  0.00  0.00    +0.000 A 
ATOM     15  C   UNL     1      50.379  -0.604   3.888  0.00  0.00    +0.000 A 
ATOM     16 CL   UNL     1      49.526  -1.074   2.474  0.00  0.00    +0.000 Cl
ATOM     17  C   UNL     1      50.696  -1.524   4.881  0.00  0.00    +0.000 A 
ATOM     18  F   UNL     1      50.339  -2.811   4.762  0.00  0.00    +0.000 F 
ATOM     19  C   UNL     1      51.398  -1.123   6.011  0.00  0.00    +0.000 A 
ATOM     20  C   UNL     1      51.775   0.212   6.142  0.00  0.00    +0.000 A 
ENDBRANCH  11  13
BRANCH   6  21
ATOM     21  O   UNL     1      53.504   8.682   4.619  0.00  0.00    +0.000 OA
ATOM     22  C   UNL     1      52.893   9.433   3.608  0.00  0.00    +0.000 C 
ENDBRANCH   6  21
BRANCH   3  23
ATOM     23  O   UNL     1      51.861   7.535   6.369  0.00  0.00    +0.000 OA
BRANCH  23  24
ATOM     24  C   UNL     1      51.408   6.905   7.451  0.00  0.00    +0.000 C 
ATOM     25  C   UNL     1      50.870   6.179   8.689  0.00  0.00    +0.000 C 
BRANCH  25  26
ATOM     26  C   UNL     1      50.302   5.448   9.910  0.00  0.00    +0.000 C 
BRANCH  26  27
ATOM     27  N   UNL     1      49.751   4.748  11.062  0.00  0.00    +0.000 N 
ATOM     28  C   UNL     1      49.379   3.379  10.593  0.00  0.00    +0.000 C 
ATOM     29  C   UNL     1      50.051   2.009  10.935  0.00  0.00    +0.000 C 
ATOM     30  O   UNL     1      51.103   1.631  11.695  0.00  0.00    +0.000 OA
ATOM     31  C   UNL     1      51.439   2.866  12.118  0.00  0.00    +0.000 C 
ATOM     32  C   UNL     1      50.911   4.316  11.897  0.00  0.00    +0.000 C 
ENDBRANCH  26  27
ENDBRANCH  25  26
ENDBRANCH  23  24
ENDBRANCH   3  23
TORSDOF 6
ENDMDL
MODEL 3
REMARK VINA RESULT:      -5.7     20.402     24.289
REMARK  Name = Gefitinib.pdbqt.pdb
REMARK  6 active torsions:
REMARK  status: ('A' for Active; 'I' for Inactive)
REMARK    1  A    between atoms: C_3  and  O_11
REMARK    2  A    between atoms: C_6  and  O_21
REMARK    3  A    between atoms: O_11  and  C_12
REMARK    4  A    between atoms: C_13  and  C_14
REMARK    5  A    between atoms: C_14  and  N_15
REMARK    6  A    between atoms: N_23  and  C_25
REMARK                            x       y       z     vdW  Elec       q    Type
REMARK                         _______ _______ _______ _____ _____    ______ ____
ROOT
ATOM      1  N   UNL     1      36.521  15.284  21.443  0.00  0.00    +0.000 NA
ATOM      2  N   UNL     1      34.996  13.544  22.011  0.00  0.00    +0.000 NA
ATOM      3  C   UNL     1      33.690  17.079  18.980  0.00  0.00    +0.000 A 
ATOM      4  C   UNL     1      34.313  15.289  20.523  0.00  0.00    +0.000 A 
ATOM      5  C   UNL     1      33.378  15.913  19.680  0.00  0.00    +0.000 A 
ATOM      6  C   UNL     1      34.960  17.636  19.129  0.00  0.00    +0.000 A 
ATOM      7  C   UNL     1      35.590  15.838  20.666  0.00  0.00    +0.000 A 
ATOM      8  C   UNL     1      35.884  17.002  19.968  0.00  0.00    +0.000 A 
ATOM      9  C   UNL     1      34.054  14.114  21.243  0.00  0.00    +0.000 A 
ATOM     10  C   UNL     1      36.185  14.155  22.078  0.00  0.00    +0.000 A 
ATOM     11  N   UNL     1      32.782  13.499  21.119  0.00  0.00    +0.000 N 
ATOM     12  H   UNL     1      32.035  14.182  21.201  0.00  0.00    +0.000 HD
ENDROOT
BRANCH  11  13
ATOM     13  C   UNL     1      32.385  12.226  21.586  0.00  0.00    +0.000 A 
ATOM     14  C   UNL     1      31.482  12.148  22.653  0.00  0.00    +0.000 A 
ATOM     15  C   UNL     1      30.981  10.920  23.079  0.00  0.00    +0.000 A 
ATOM     16 CL   UNL     1      29.902  10.885  24.415  0.00  0.00    +0.000 Cl
ATOM     17  C   UNL     1      31.357   9.754  22.422  0.00  0.00    +0.000 A 
ATOM     18  F   UNL     1      30.886   8.563  22.818  0.00  0.00    +0.000 F 
ATOM     19  C   UNL     1      32.221   9.808  21.336  0.00  0.00    +0.000 A 
ATOM     20  C   UNL     1      32.713  11.042  20.916  0.00  0.00    +0.000 A 
ENDBRANCH  11  13
BRANCH   6  21
ATOM     21  O   UNL     1      35.226  18.784  18.421  0.00  0.00    +0.000 OA
ATOM     22  C   UNL     1      35.845  19.812  19.142  0.00  0.00    +0.000 C 
ENDBRANCH   6  21
BRANCH   3  23
ATOM     23  O   UNL     1      32.803  17.718  18.147  0.00  0.00    +0.000 OA
BRANCH  23  24
ATOM     24  C   UNL     1      31.623  17.116  18.024  0.00  0.00    +0.000 C 
ATOM     25  C   UNL     1      30.255  16.437  17.889  0.00  0.00    +0.000 C 
BRANCH  25  26
ATOM     26  C   UNL     1      28.873  15.788  17.765  0.00  0.00    +0.000 C 
BRANCH  26  27
ATOM     27  N   UNL     1      27.565  15.158  17.645  0.00  0.00    +0.000 N 
ATOM     28  C   UNL     1      27.234  15.136  16.188  0.00  0.00    +0.000 C 
ATOM     29  C   UNL     1      27.161  13.912  15.217  0.00  0.00    +0.000 C 
ATOM     30  O   UNL     1      27.361  12.582  15.350  0.00  0.00    +0.000 OA
ATOM     31  C   UNL     1      27.661  12.602  16.664  0.00  0.00    +0.000 C 
ATOM     32  C   UNL     1      27.784  13.686  17.777  0.00  0.00    +0.000 C 
ENDBRANCH  26  27
ENDBRANCH  25  26
ENDBRANCH  23  24
ENDBRANCH   3  23
TORSDOF 6
ENDMDL
MODEL 4
REMARK VINA RESULT:      -5.6     23.562     25.801
REMARK  Name = Gefitinib.pdbqt.pdb
REMARK  6 active torsions:
REMARK  status: ('A' for Active; 'I' for Inactive)
REMARK    1  A    between atoms: C_3  and  O_11
REMARK    2  A    between atoms: C_6  and  O_21
REMARK    3  A    between atoms: O_11  and  C_12
REMARK    4  A    between atoms: C_13  and  C_14
REMARK    5  A    between atoms: C_14  and  N_15
REMARK    6  A    between atoms: N_23  and  C_25
REMARK                            x       y       z     vdW  Elec       q    Type
REMARK                         _______ _______ _______ _____ _____    ______ ____
ROOT
ATOM      1  N   UNL     1      46.578  -4.398  20.126  0.00  0.00    +0.000 NA
ATOM      2  N   UNL     1      45.275  -4.324  18.132  0.00  0.00    +0.000 NA
ATOM      3  C   UNL     1      45.213  -0.636  21.261  0.00  0.00    +0.000 A 
ATOM      4  C   UNL     1      45.208  -2.492  19.669  0.00  0.00    +0.000 A 
ATOM      5  C   UNL     1      44.769  -1.219  20.073  0.00  0.00    +0.000 A 
ATOM      6  C   UNL     1      46.112  -1.340  22.063  0.00  0.00    +0.000 A 
ATOM      7  C   UNL     1      46.117  -3.194  20.465  0.00  0.00    +0.000 A 
ATOM      8  C   UNL     1      46.546  -2.604  21.646  0.00  0.00    +0.000 A 
ATOM      9  C   UNL     1      44.799  -3.119  18.484  0.00  0.00    +0.000 A 
ATOM     10  C   UNL     1      46.140  -4.909  18.968  0.00  0.00    +0.000 A 
ATOM     11  N   UNL     1      43.895  -2.443  17.625  0.00  0.00    +0.000 N 
ATOM     12  H   UNL     1      43.119  -2.048  18.149  0.00  0.00    +0.000 HD
ENDROOT
BRANCH  11  13
ATOM     13  C   UNL     1      43.517  -2.797  16.311  0.00  0.00    +0.000 A 
ATOM     14  C   UNL     1      42.176  -2.660  15.932  0.00  0.00    +0.000 A 
ATOM     15  C   UNL     1      41.776  -2.897  14.619  0.00  0.00    +0.000 A 
ATOM     16 CL   UNL     1      40.111  -2.746  14.221  0.00  0.00    +0.000 Cl
ATOM     17  C   UNL     1      42.720  -3.247  13.660  0.00  0.00    +0.000 A 
ATOM     18  F   UNL     1      42.353  -3.479  12.391  0.00  0.00    +0.000 F 
ATOM     19  C   UNL     1      44.061  -3.352  14.002  0.00  0.00    +0.000 A 
ATOM     20  C   UNL     1      44.452  -3.109  15.317  0.00  0.00    +0.000 A 
ENDBRANCH  11  13
BRANCH   6  21
ATOM     21  O   UNL     1      46.525  -0.729  23.223  0.00  0.00    +0.000 OA
ATOM     22  C   UNL     1      47.891  -0.435  23.301  0.00  0.00    +0.000 C 
ENDBRANCH   6  21
BRANCH   3  23
ATOM     23  O   UNL     1      44.806   0.604  21.690  0.00  0.00    +0.000 OA
BRANCH  23  24
ATOM     24  C   UNL     1      43.607   0.979  21.251  0.00  0.00    +0.000 C 
ATOM     25  C   UNL     1      42.219   1.405  20.760  0.00  0.00    +0.000 C 
BRANCH  25  26
ATOM     26  C   UNL     1      40.818   1.825  20.302  0.00  0.00    +0.000 C 
BRANCH  26  27
ATOM     27  N   UNL     1      39.482   2.222  19.880  0.00  0.00    +0.000 N 
ATOM     28  C   UNL     1      39.471   3.716  19.846  0.00  0.00    +0.000 C 
ATOM     29  C   UNL     1      39.410   4.668  18.608  0.00  0.00    +0.000 C 
ATOM     30  O   UNL     1      39.358   4.484  17.270  0.00  0.00    +0.000 OA
ATOM     31  C   UNL     1      39.369   3.136  17.300  0.00  0.00    +0.000 C 
ATOM     32  C   UNL     1      39.426   2.033  18.399  0.00  0.00    +0.000 C 
ENDBRANCH  26  27
ENDBRANCH  25  26
ENDBRANCH  23  24
ENDBRANCH   3  23
TORSDOF 6
ENDMDL
MODEL 5
REMARK VINA RESULT:      -5.6     22.876     25.080
REMARK  Name = Gefitinib.pdbqt.pdb
REMARK  6 active torsions:
REMARK  status: ('A' for Active; 'I' for Inactive)
REMARK    1  A    between atoms: C_3  and  O_11
REMARK    2  A    between atoms: C_6  and  O_21
REMARK    3  A    between atoms: O_11  and  C_12
REMARK    4  A    between atoms: C_13  and  C_14
REMARK    5  A    between atoms: C_14  and  N_15
REMARK    6  A    between atoms: N_23  and  C_25
REMARK                            x       y       z     vdW  Elec       q    Type
REMARK                         _______ _______ _______ _____ _____    ______ ____
ROOT
ATOM      1  N   UNL     1      45.329  -4.570  16.145  0.00  0.00    +0.000 NA
ATOM      2  N   UNL     1      43.597  -3.171  15.297  0.00  0.00    +0.000 NA
ATOM      3  C   UNL     1      45.398  -2.457  19.728  0.00  0.00    +0.000 A 
ATOM      4  C   UNL     1      44.454  -2.804  17.500  0.00  0.00    +0.000 A 
ATOM      5  C   UNL     1      44.503  -2.104  18.718  0.00  0.00    +0.000 A 
ATOM      6  C   UNL     1      46.259  -3.535  19.520  0.00  0.00    +0.000 A 
ATOM      7  C   UNL     1      45.322  -3.877  17.285  0.00  0.00    +0.000 A 
ATOM      8  C   UNL     1      46.204  -4.221  18.301  0.00  0.00    +0.000 A 
ATOM      9  C   UNL     1      43.580  -2.486  16.452  0.00  0.00    +0.000 A 
ATOM     10  C   UNL     1      44.468  -4.182  15.197  0.00  0.00    +0.000 A 
ATOM     11  N   UNL     1      42.691  -1.391  16.606  0.00  0.00    +0.000 N 
ATOM     12  H   UNL     1      42.227  -1.422  17.508  0.00  0.00    +0.000 HD
ENDROOT
BRANCH  11  13
ATOM     13  C   UNL     1      41.884  -0.784  15.619  0.00  0.00    +0.000 A 
ATOM     14  C   UNL     1      42.167  -1.026  14.269  0.00  0.00    +0.000 A 
ATOM     15  C   UNL     1      41.338  -0.535  13.264  0.00  0.00    +0.000 A 
ATOM     16 CL   UNL     1      41.756  -0.836  11.625  0.00  0.00    +0.000 Cl
ATOM     17  C   UNL     1      40.196   0.183  13.598  0.00  0.00    +0.000 A 
ATOM     18  F   UNL     1      39.385   0.664  12.645  0.00  0.00    +0.000 F 
ATOM     19  C   UNL     1      39.871   0.404  14.930  0.00  0.00    +0.000 A 
ATOM     20  C   UNL     1      40.706  -0.095  15.928  0.00  0.00    +0.000 A 
ENDBRANCH  11  13
BRANCH   6  21
ATOM     21  O   UNL     1      47.125  -3.849  20.541  0.00  0.00    +0.000 OA
ATOM     22  C   UNL     1      47.983  -4.929  20.298  0.00  0.00    +0.000 C 
ENDBRANCH   6  21
BRANCH   3  23
ATOM     23  O   UNL     1      45.476  -1.798  20.932  0.00  0.00    +0.000 OA
BRANCH  23  24
ATOM     24  C   UNL     1      44.426  -1.031  21.214  0.00  0.00    +0.000 C 
ATOM     25  C   UNL     1      43.207  -0.156  21.528  0.00  0.00    +0.000 C 
BRANCH  25  26
ATOM     26  C   UNL     1      41.968   0.696  21.823  0.00  0.00    +0.000 C 
BRANCH  26  27
ATOM     27  N   UNL     1      40.786   1.504  22.090  0.00  0.00    +0.000 N 
ATOM     28  C   UNL     1      40.832   2.655  21.137  0.00  0.00    +0.000 C 
ATOM     29  C   UNL     1      39.918   2.942  19.901  0.00  0.00    +0.000 C 
ATOM     30  O   UNL     1      38.877   2.303  19.322  0.00  0.00    +0.000 OA
ATOM     31  C   UNL     1      38.836   1.265  20.180  0.00  0.00    +0.000 C 
ATOM     32  C   UNL     1      39.636   0.810  21.439  0.00  0.00    +0.000 C 
ENDBRANCH  26  27
ENDBRANCH  25  26
ENDBRANCH  23  24
ENDBRANCH   3  23
TORSDOF 6
ENDMDL
MODEL 6
REMARK VINA RESULT:      -5.4     23.755     25.476
REMARK  Name = Gefitinib.pdbqt.pdb
REMARK  6 active torsions:
REMARK  status: ('A' for Active; 'I' for Inactive)
REMARK    1  A    between atoms: C_3  and  O_11
REMARK    2  A    between atoms: C_6  and  O_21
REMARK    3  A    between atoms: O_11  and  C_12
REMARK    4  A    between atoms: C_13  and  C_14
REMARK    5  A    between atoms: C_14  and  N_15
REMARK    6  A    between atoms: N_23  and  C_25
REMARK                            x       y       z     vdW  Elec       q    Type
REMARK                         _______ _______ _______ _____ _____    ______ ____
ROOT
ATOM      1  N   UNL     1      54.814   2.262   0.859  0.00  0.00    +0.000 NA
ATOM      2  N   UNL     1      54.776   4.172   2.283  0.00  0.00    +0.000 NA
ATOM      3  C   UNL     1      51.457   0.685   2.742  0.00  0.00    +0.000 A 
ATOM      4  C   UNL     1      53.109   2.473   2.523  0.00  0.00    +0.000 A 
ATOM      5  C   UNL     1      51.980   1.914   3.146  0.00  0.00    +0.000 A 
ATOM      6  C   UNL     1      52.072   0.003   1.692  0.00  0.00    +0.000 A 
ATOM      7  C   UNL     1      53.734   1.787   1.478  0.00  0.00    +0.000 A 
ATOM      8  C   UNL     1      53.199   0.568   1.084  0.00  0.00    +0.000 A 
ATOM      9  C   UNL     1      53.678   3.700   2.894  0.00  0.00    +0.000 A 
ATOM     10  C   UNL     1      55.293   3.435   1.294  0.00  0.00    +0.000 A 
ATOM     11  N   UNL     1      53.100   4.430   3.963  0.00  0.00    +0.000 N 
ATOM     12  H   UNL     1      52.090   4.478   3.870  0.00  0.00    +0.000 HD
ENDROOT
BRANCH  11  13
ATOM     13  C   UNL     1      53.622   5.566   4.620  0.00  0.00    +0.000 A 
ATOM     14  C   UNL     1      53.472   6.823   4.022  0.00  0.00    +0.000 A 
ATOM     15  C   UNL     1      53.877   7.982   4.679  0.00  0.00    +0.000 A 
ATOM     16 CL   UNL     1      53.699   9.493   3.880  0.00  0.00    +0.000 Cl
ATOM     17  C   UNL     1      54.413   7.900   5.960  0.00  0.00    +0.000 A 
ATOM     18  F   UNL     1      54.809   9.005   6.609  0.00  0.00    +0.000 F 
ATOM     19  C   UNL     1      54.537   6.670   6.591  0.00  0.00    +0.000 A 
ATOM     20  C   UNL     1      54.125   5.517   5.925  0.00  0.00    +0.000 A 
ENDBRANCH  11  13
BRANCH   6  21
ATOM     21  O   UNL     1      51.525  -1.205   1.327  0.00  0.00    +0.000 OA
ATOM     22  C   UNL     1      52.287  -1.972   0.437  0.00  0.00    +0.000 C 
ENDBRANCH   6  21
BRANCH   3  23
ATOM     23  O   UNL     1      50.355   0.106   3.325  0.00  0.00    +0.000 OA
BRANCH  23  24
ATOM     24  C   UNL     1      50.273   0.270   4.644  0.00  0.00    +0.000 C 
ATOM     25  C   UNL     1      50.181   0.442   6.164  0.00  0.00    +0.000 C 
BRANCH  25  26
ATOM     26  C   UNL     1      50.099   0.580   7.688  0.00  0.00    +0.000 C 
BRANCH  26  27
ATOM     27  N   UNL     1      50.013   0.699   9.137  0.00  0.00    +0.000 N 
ATOM     28  C   UNL     1      51.203   1.491   9.572  0.00  0.00    +0.000 C 
ATOM     29  C   UNL     1      51.259   2.949  10.134  0.00  0.00    +0.000 C 
ATOM     30  O   UNL     1      50.337   3.905  10.386  0.00  0.00    +0.000 OA
ATOM     31  C   UNL     1      49.264   3.191   9.993  0.00  0.00    +0.000 C 
ATOM     32  C   UNL     1      49.005   1.765   9.420  0.00  0.00    +0.000 C 
ENDBRANCH  26  27
ENDBRANCH  25  26
ENDBRANCH  23  24
ENDBRANCH   3  23
TORSDOF 6
ENDMDL
MODEL 7
REMARK VINA RESULT:      -5.4     24.095     26.322
REMARK  Name = Gefitinib.pdbqt.pdb
REMARK  6 active torsions:
REMARK  status: ('A' for Active; 'I' for Inactive)
REMARK    1  A    between atoms: C_3  and  O_11
REMARK    2  A    between atoms: C_6  and  O_21
REMARK    3  A    between atoms: O_11  and  C_12
REMARK    4  A    between atoms: C_13  and  C_14
REMARK    5  A    between atoms: C_14  and  N_15
REMARK    6  A    between atoms: N_23  and  C_25
REMARK                            x       y       z     vdW  Elec       q    Type
REMARK                         _______ _______ _______ _____ _____    ______ ____
ROOT
ATOM      1  N   UNL     1      47.310  -4.532  20.888  0.00  0.00    +0.000 NA
ATOM      2  N   UNL     1      46.271  -5.012  18.798  0.00  0.00    +0.000 NA
ATOM      3  C   UNL     1      45.269  -0.919  21.171  0.00  0.00    +0.000 A 
ATOM      4  C   UNL     1      45.740  -2.987  19.956  0.00  0.00    +0.000 A 
ATOM      5  C   UNL     1      45.069  -1.758  20.074  0.00  0.00    +0.000 A 
ATOM      6  C   UNL     1      46.154  -1.317  22.172  0.00  0.00    +0.000 A 
ATOM      7  C   UNL     1      46.636  -3.384  20.952  0.00  0.00    +0.000 A 
ATOM      8  C   UNL     1      46.821  -2.541  22.040  0.00  0.00    +0.000 A 
ATOM      9  C   UNL     1      45.581  -3.864  18.874  0.00  0.00    +0.000 A 
ATOM     10  C   UNL     1      47.102  -5.296  19.808  0.00  0.00    +0.000 A 
ATOM     11  N   UNL     1      44.701  -3.503  17.821  0.00  0.00    +0.000 N 
ATOM     12  H   UNL     1      43.816  -3.162  18.185  0.00  0.00    +0.000 HD
ENDROOT
BRANCH  11  13
ATOM     13  C   UNL     1      44.548  -4.130  16.565  0.00  0.00    +0.000 A 
ATOM     14  C   UNL     1      43.736  -5.266  16.470  0.00  0.00    +0.000 A 
ATOM     15  C   UNL     1      43.472  -5.857  15.236  0.00  0.00    +0.000 A 
ATOM     16 CL   UNL     1      42.495  -7.269  15.187  0.00  0.00    +0.000 Cl
ATOM     17  C   UNL     1      43.995  -5.298  14.076  0.00  0.00    +0.000 A 
ATOM     18  F   UNL     1      43.752  -5.852  12.879  0.00  0.00    +0.000 F 
ATOM     19  C   UNL     1      44.771  -4.148  14.139  0.00  0.00    +0.000 A 
ATOM     20  C   UNL     1      45.027  -3.564  15.378  0.00  0.00    +0.000 A 
ENDBRANCH  11  13
BRANCH   6  21
ATOM     21  O   UNL     1      46.323  -0.460  23.234  0.00  0.00    +0.000 OA
ATOM     22  C   UNL     1      47.649  -0.213  23.610  0.00  0.00    +0.000 C 
ENDBRANCH   6  21
BRANCH   3  23
ATOM     23  O   UNL     1      44.631   0.289  21.322  0.00  0.00    +0.000 OA
BRANCH  23  24
ATOM     24  C   UNL     1      43.591   0.474  20.512  0.00  0.00    +0.000 C 
ATOM     25  C   UNL     1      42.392   0.704  19.586  0.00  0.00    +0.000 C 
BRANCH  25  26
ATOM     26  C   UNL     1      41.192   0.968  18.670  0.00  0.00    +0.000 C 
BRANCH  26  27
ATOM     27  N   UNL     1      40.046   1.205  17.803  0.00  0.00    +0.000 N 
ATOM     28  C   UNL     1      40.586   1.384  16.421  0.00  0.00    +0.000 C 
ATOM     29  C   UNL     1      40.463   0.428  15.189  0.00  0.00    +0.000 C 
ATOM     30  O   UNL     1      39.888  -0.776  14.975  0.00  0.00    +0.000 OA
ATOM     31  C   UNL     1      39.401  -0.938  16.221  0.00  0.00    +0.000 C 
ATOM     32  C   UNL     1      39.415  -0.126  17.552  0.00  0.00    +0.000 C 
ENDBRANCH  26  27
ENDBRANCH  25  26
ENDBRANCH  23  24
ENDBRANCH   3  23
TORSDOF 6
ENDMDL
MODEL 8
REMARK VINA RESULT:      -5.3     18.324     21.045
REMARK  Name = Gefitinib.pdbqt.pdb
REMARK  6 active torsions:
REMARK  status: ('A' for Active; 'I' for Inactive)
REMARK    1  A    between atoms: C_3  and  O_11
REMARK    2  A    between atoms: C_6  and  O_21
REMARK    3  A    between atoms: O_11  and  C_12
REMARK    4  A    between atoms: C_13  and  C_14
REMARK    5  A    between atoms: C_14  and  N_15
REMARK    6  A    between atoms: N_23  and  C_25
REMARK                            x       y       z     vdW  Elec       q    Type
REMARK                         _______ _______ _______ _____ _____    ______ ____
ROOT
ATOM      1  N   UNL     1      37.683  23.533   3.863  0.00  0.00    +0.000 NA
ATOM      2  N   UNL     1      39.794  22.983   2.904  0.00  0.00    +0.000 NA
ATOM      3  C   UNL     1      35.875  20.320   1.936  0.00  0.00    +0.000 A 
ATOM      4  C   UNL     1      37.878  21.635   2.420  0.00  0.00    +0.000 A 
ATOM      5  C   UNL     1      37.240  20.561   1.776  0.00  0.00    +0.000 A 
ATOM      6  C   UNL     1      35.132  21.167   2.759  0.00  0.00    +0.000 A 
ATOM      7  C   UNL     1      37.134  22.491   3.237  0.00  0.00    +0.000 A 
ATOM      8  C   UNL     1      35.778  22.236   3.391  0.00  0.00    +0.000 A 
ATOM      9  C   UNL     1      39.243  21.925   2.289  0.00  0.00    +0.000 A 
ATOM     10  C   UNL     1      38.991  23.737   3.665  0.00  0.00    +0.000 A 
ATOM     11  N   UNL     1      40.043  21.103   1.454  0.00  0.00    +0.000 N 
ATOM     12  H   UNL     1      39.866  20.119   1.632  0.00  0.00    +0.000 HD
ENDROOT
BRANCH  11  13
ATOM     13  C   UNL     1      41.370  21.331   1.028  0.00  0.00    +0.000 A 
ATOM     14  C   UNL     1      41.611  22.316   0.063  0.00  0.00    +0.000 A 
ATOM     15  C   UNL     1      42.911  22.648  -0.311  0.00  0.00    +0.000 A 
ATOM     16 CL   UNL     1      43.144  23.842  -1.525  0.00  0.00    +0.000 Cl
ATOM     17  C   UNL     1      43.989  22.017   0.298  0.00  0.00    +0.000 A 
ATOM     18  F   UNL     1      45.248  22.323  -0.050  0.00  0.00    +0.000 F 
ATOM     19  C   UNL     1      43.778  21.063   1.285  0.00  0.00    +0.000 A 
ATOM     20  C   UNL     1      42.474  20.741   1.654  0.00  0.00    +0.000 A 
ENDBRANCH  11  13
BRANCH   6  21
ATOM     21  O   UNL     1      33.790  20.894   2.888  0.00  0.00    +0.000 OA
ATOM     22  C   UNL     1      32.952  22.011   2.995  0.00  0.00    +0.000 C 
ENDBRANCH   6  21
BRANCH   3  23
ATOM     23  O   UNL     1      35.216  19.281   1.323  0.00  0.00    +0.000 OA
BRANCH  23  24
ATOM     24  C   UNL     1      35.765  18.869   0.183  0.00  0.00    +0.000 C 
ATOM     25  C   UNL     1      36.400  18.412  -1.134  0.00  0.00    +0.000 C 
BRANCH  25  26
ATOM     26  C   UNL     1      37.046  17.988  -2.458  0.00  0.00    +0.000 C 
BRANCH  26  27
ATOM     27  N   UNL     1      37.655  17.597  -3.722  0.00  0.00    +0.000 N 
ATOM     28  C   UNL     1      38.774  18.555  -3.973  0.00  0.00    +0.000 C 
ATOM     29  C   UNL     1      40.315  18.296  -3.928  0.00  0.00    +0.000 C 
ATOM     30  O   UNL     1      41.090  17.221  -3.665  0.00  0.00    +0.000 OA
ATOM     31  C   UNL     1      40.081  16.356  -3.438  0.00  0.00    +0.000 C 
ATOM     32  C   UNL     1      38.523  16.417  -3.433  0.00  0.00    +0.000 C 
ENDBRANCH  26  27
ENDBRANCH  25  26
ENDBRANCH  23  24
ENDBRANCH   3  23
TORSDOF 6
ENDMDL
MODEL 9
REMARK VINA RESULT:      -5.2     14.851     17.369
REMARK  Name = Gefitinib.pdbqt.pdb
REMARK  6 active torsions:
REMARK  status: ('A' for Active; 'I' for Inactive)
REMARK    1  A    between atoms: C_3  and  O_11
REMARK    2  A    between atoms: C_6  and  O_21
REMARK    3  A    between atoms: O_11  and  C_12
REMARK    4  A    between atoms: C_13  and  C_14
REMARK    5  A    between atoms: C_14  and  N_15
REMARK    6  A    between atoms: N_23  and  C_25
REMARK                            x       y       z     vdW  Elec       q    Type
REMARK                         _______ _______ _______ _____ _____    ______ ____
ROOT
ATOM      1  N   UNL     1      36.169  10.393  -6.125  0.00  0.00    +0.000 NA
ATOM      2  N   UNL     1      37.329  12.467  -5.958  0.00  0.00    +0.000 NA
ATOM      3  C   UNL     1      39.638   8.453  -7.352  0.00  0.00    +0.000 A 
ATOM      4  C   UNL     1      38.504  10.496  -6.632  0.00  0.00    +0.000 A 
ATOM      5  C   UNL     1      39.659   9.816  -7.055  0.00  0.00    +0.000 A 
ATOM      6  C   UNL     1      38.439   7.753  -7.219  0.00  0.00    +0.000 A 
ATOM      7  C   UNL     1      37.299   9.799  -6.509  0.00  0.00    +0.000 A 
ATOM      8  C   UNL     1      37.294   8.442  -6.803  0.00  0.00    +0.000 A 
ATOM      9  C   UNL     1      38.469  11.863  -6.328  0.00  0.00    +0.000 A 
ATOM     10  C   UNL     1      36.232  11.706  -5.871  0.00  0.00    +0.000 A 
ATOM     11  N   UNL     1      39.658  12.626  -6.457  0.00  0.00    +0.000 N 
ATOM     12  H   UNL     1      40.447  12.149  -6.031  0.00  0.00    +0.000 HD
ENDROOT
BRANCH  11  13
ATOM     13  C   UNL     1      39.799  14.031  -6.399  0.00  0.00    +0.000 A 
ATOM     14  C   UNL     1      39.940  14.646  -5.149  0.00  0.00    +0.000 A 
ATOM     15  C   UNL     1      40.185  16.013  -5.048  0.00  0.00    +0.000 A 
ATOM     16 CL   UNL     1      40.316  16.717  -3.486  0.00  0.00    +0.000 Cl
ATOM     17  C   UNL     1      40.321  16.779  -6.200  0.00  0.00    +0.000 A 
ATOM     18  F   UNL     1      40.557  18.097  -6.123  0.00  0.00    +0.000 F 
ATOM     19  C   UNL     1      40.224  16.186  -7.452  0.00  0.00    +0.000 A 
ATOM     20  C   UNL     1      39.982  14.817  -7.542  0.00  0.00    +0.000 A 
ENDBRANCH  11  13
BRANCH   6  21
ATOM     21  O   UNL     1      38.462   6.412  -7.523  0.00  0.00    +0.000 OA
ATOM     22  C   UNL     1      37.236   5.744  -7.413  0.00  0.00    +0.000 C 
ENDBRANCH   6  21
BRANCH   3  23
ATOM     23  O   UNL     1      40.746   7.754  -7.767  0.00  0.00    +0.000 OA
BRANCH  23  24
ATOM     24  C   UNL     1      41.878   8.455  -7.766  0.00  0.00    +0.000 C 
ATOM     25  C   UNL     1      43.172   9.276  -7.765  0.00  0.00    +0.000 C 
BRANCH  25  26
ATOM     26  C   UNL     1      44.446  10.127  -7.761  0.00  0.00    +0.000 C 
BRANCH  26  27
ATOM     27  N   UNL     1      45.659  10.933  -7.742  0.00  0.00    +0.000 N 
ATOM     28  C   UNL     1      45.229  12.357  -7.877  0.00  0.00    +0.000 C 
ATOM     29  C   UNL     1      45.265  13.498  -6.808  0.00  0.00    +0.000 C 
ATOM     30  O   UNL     1      45.654  13.576  -5.517  0.00  0.00    +0.000 OA
ATOM     31  C   UNL     1      46.042  12.291  -5.394  0.00  0.00    +0.000 C 
ATOM     32  C   UNL     1      46.085  11.034  -6.314  0.00  0.00    +0.000 C 
ENDBRANCH  26  27
ENDBRANCH  25  26
ENDBRANCH  23  24
ENDBRANCH   3  23
TORSDOF 6
ENDMDL
