MODEL 1
REMARK VINA RESULT:      -6.9      0.000      0.000
REMARK  Name = Genistein.pdbqt.pdb
REMARK  4 active torsions:
REMARK  status: ('A' for Active; 'I' for Inactive)
REMARK    1  A    between atoms: C_4  and  C_12
REMARK    2  A    between atoms: C_7  and  O_20
REMARK    3  A    between atoms: C_11  and  O_22
REMARK    4  A    between atoms: C_17  and  O_18
REMARK                            x       y       z     vdW  Elec       q    Type
REMARK                         _______ _______ _______ _____ _____    ______ ____
ROOT
ATOM      1  O   UNL     1      53.296   5.906   9.082  0.00  0.00    +0.000 OA
ATOM      2  O   UNL     1      50.707   9.091   9.896  0.00  0.00    +0.000 OA
ATOM      3  C   UNL     1      51.891   7.794   8.292  0.00  0.00    +0.000 A 
ATOM      4  C   UNL     1      52.041   7.279  10.776  0.00  0.00    +0.000 A 
ATOM      5  C   UNL     1      52.776   6.700   8.062  0.00  0.00    +0.000 A 
ATOM      6  C   UNL     1      51.467   8.150   9.698  0.00  0.00    +0.000 A 
ATOM      7  C   UNL     1      51.420   8.534   7.204  0.00  0.00    +0.000 A 
ATOM      8  C   UNL     1      52.796   6.396  10.204  0.00  0.00    +0.000 A 
ATOM      9  C   UNL     1      53.167   6.372   6.766  0.00  0.00    +0.000 A 
ATOM     10  C   UNL     1      51.816   8.200   5.910  0.00  0.00    +0.000 A 
ATOM     11  C   UNL     1      52.681   7.127   5.703  0.00  0.00    +0.000 A 
ENDROOT
BRANCH   4  12
ATOM     12  C   UNL     1      51.805   7.394  12.213  0.00  0.00    +0.000 A 
ATOM     13  C   UNL     1      52.751   7.984  13.056  0.00  0.00    +0.000 A 
ATOM     14  C   UNL     1      50.618   6.914  12.780  0.00  0.00    +0.000 A 
ATOM     15  C   UNL     1      52.526   8.094  14.427  0.00  0.00    +0.000 A 
ATOM     16  C   UNL     1      50.380   7.017  14.150  0.00  0.00    +0.000 A 
ATOM     17  C   UNL     1      51.339   7.608  14.962  0.00  0.00    +0.000 A 
BRANCH  17  18
ATOM     18  O   UNL     1      51.088   7.700  16.300  0.00  0.00    +0.000 OA
ATOM     19  H   UNL     1      51.259   6.830  16.703  0.00  0.00    +0.000 HD
ENDBRANCH  17  18
ENDBRANCH   4  12
BRANCH   7  20
ATOM     20  O   UNL     1      50.569   9.599   7.329  0.00  0.00    +0.000 OA
ATOM     21  H   UNL     1      51.046  10.417   7.059  0.00  0.00    +0.000 HD
ENDBRANCH   7  20
BRANCH  11  22
ATOM     22  O   UNL     1      53.075   6.791   4.440  0.00  0.00    +0.000 OA
ATOM     23  H   UNL     1      53.724   6.068   4.507  0.00  0.00    +0.000 HD
ENDBRANCH  11  22
TORSDOF 4
ENDMDL
MODEL 2
REMARK VINA RESULT:      -6.7     14.442     14.761
REMARK  Name = Genistein.pdbqt.pdb
REMARK  4 active torsions:
REMARK  status: ('A' for Active; 'I' for Inactive)
REMARK    1  A    between atoms: C_4  and  C_12
REMARK    2  A    between atoms: C_7  and  O_20
REMARK    3  A    between atoms: C_11  and  O_22
REMARK    4  A    between atoms: C_17  and  O_18
REMARK                            x       y       z     vdW  Elec       q    Type
REMARK                         _______ _______ _______ _____ _____    ______ ____
ROOT
ATOM      1  O   UNL     1      41.715  -1.168  16.323  0.00  0.00    +0.000 OA
ATOM      2  O   UNL     1      39.453   1.727  14.322  0.00  0.00    +0.000 OA
ATOM      3  C   UNL     1      40.681  -0.307  14.237  0.00  0.00    +0.000 A 
ATOM      4  C   UNL     1      40.414   0.983  16.409  0.00  0.00    +0.000 A 
ATOM      5  C   UNL     1      41.447  -1.269  14.959  0.00  0.00    +0.000 A 
ATOM      6  C   UNL     1      40.110   0.901  14.943  0.00  0.00    +0.000 A 
ATOM      7  C   UNL     1      40.464  -0.493  12.869  0.00  0.00    +0.000 A 
ATOM      8  C   UNL     1      41.127  -0.053  16.720  0.00  0.00    +0.000 A 
ATOM      9  C   UNL     1      41.974  -2.381  14.308  0.00  0.00    +0.000 A 
ATOM     10  C   UNL     1      40.994  -1.609  12.224  0.00  0.00    +0.000 A 
ATOM     11  C   UNL     1      41.740  -2.539  12.945  0.00  0.00    +0.000 A 
ENDROOT
BRANCH   4  12
ATOM     12  C   UNL     1      39.993   2.034  17.333  0.00  0.00    +0.000 A 
ATOM     13  C   UNL     1      39.961   1.812  18.713  0.00  0.00    +0.000 A 
ATOM     14  C   UNL     1      39.614   3.293  16.854  0.00  0.00    +0.000 A 
ATOM     15  C   UNL     1      39.560   2.814  19.595  0.00  0.00    +0.000 A 
ATOM     16  C   UNL     1      39.210   4.304  17.725  0.00  0.00    +0.000 A 
ATOM     17  C   UNL     1      39.188   4.055  19.091  0.00  0.00    +0.000 A 
BRANCH  17  18
ATOM     18  O   UNL     1      38.791   5.057  19.927  0.00  0.00    +0.000 OA
ATOM     19  H   UNL     1      38.334   5.734  19.397  0.00  0.00    +0.000 HD
ENDBRANCH  17  18
ENDBRANCH   4  12
BRANCH   7  20
ATOM     20  O   UNL     1      39.743   0.376  12.095  0.00  0.00    +0.000 OA
ATOM     21  H   UNL     1      39.479  -0.084  11.266  0.00  0.00    +0.000 HD
ENDBRANCH   7  20
BRANCH  11  22
ATOM     22  O   UNL     1      42.264  -3.636  12.325  0.00  0.00    +0.000 OA
ATOM     23  H   UNL     1      42.071  -3.568  11.373  0.00  0.00    +0.000 HD
ENDBRANCH  11  22
TORSDOF 4
ENDMDL
MODEL 3
REMARK VINA RESULT:      -6.5     14.458     15.807
REMARK  Name = Genistein.pdbqt.pdb
REMARK  4 active torsions:
REMARK  status: ('A' for Active; 'I' for Inactive)
REMARK    1  A    between atoms: C_4  and  C_12
REMARK    2  A    between atoms: C_7  and  O_20
REMARK    3  A    between atoms: C_11  and  O_22
REMARK    4  A    between atoms: C_17  and  O_18
REMARK                            x       y       z     vdW  Elec       q    Type
REMARK                         _______ _______ _______ _____ _____    ______ ____
ROOT
ATOM      1  O   UNL     1      42.505  -1.600  15.551  0.00  0.00    +0.000 OA
ATOM      2  O   UNL     1      41.511  -4.076  12.328  0.00  0.00    +0.000 OA
ATOM      3  C   UNL     1      41.208  -2.015  13.476  0.00  0.00    +0.000 A 
ATOM      4  C   UNL     1      42.823  -3.778  14.335  0.00  0.00    +0.000 A 
ATOM      5  C   UNL     1      41.576  -1.205  14.590  0.00  0.00    +0.000 A 
ATOM      6  C   UNL     1      41.828  -3.380  13.286  0.00  0.00    +0.000 A 
ATOM      7  C   UNL     1      40.267  -1.533  12.561  0.00  0.00    +0.000 A 
ATOM      8  C   UNL     1      42.906  -2.805  15.185  0.00  0.00    +0.000 A 
ATOM      9  C   UNL     1      41.004   0.052  14.765  0.00  0.00    +0.000 A 
ATOM     10  C   UNL     1      39.698  -0.274  12.744  0.00  0.00    +0.000 A 
ATOM     11  C   UNL     1      40.071   0.504  13.838  0.00  0.00    +0.000 A 
ENDROOT
BRANCH   4  12
ATOM     12  C   UNL     1      43.570  -5.033  14.402  0.00  0.00    +0.000 A 
ATOM     13  C   UNL     1      44.801  -5.176  13.755  0.00  0.00    +0.000 A 
ATOM     14  C   UNL     1      43.067  -6.123  15.121  0.00  0.00    +0.000 A 
ATOM     15  C   UNL     1      45.514  -6.371  13.820  0.00  0.00    +0.000 A 
ATOM     16  C   UNL     1      43.770  -7.325  15.193  0.00  0.00    +0.000 A 
ATOM     17  C   UNL     1      44.990  -7.438  14.541  0.00  0.00    +0.000 A 
BRANCH  17  18
ATOM     18  O   UNL     1      45.664  -8.621  14.623  0.00  0.00    +0.000 OA
ATOM     19  H   UNL     1      46.504  -8.462  15.088  0.00  0.00    +0.000 HD
ENDBRANCH  17  18
ENDBRANCH   4  12
BRANCH   7  20
ATOM     20  O   UNL     1      39.853  -2.239  11.464  0.00  0.00    +0.000 OA
ATOM     21  H   UNL     1      40.646  -2.577  10.989  0.00  0.00    +0.000 HD
ENDBRANCH   7  20
BRANCH  11  22
ATOM     22  O   UNL     1      39.521   1.739  14.026  0.00  0.00    +0.000 OA
ATOM     23  H   UNL     1      40.115   2.252  14.603  0.00  0.00    +0.000 HD
ENDBRANCH  11  22
TORSDOF 4
ENDMDL
MODEL 4
REMARK VINA RESULT:      -6.2      6.943     10.260
REMARK  Name = Genistein.pdbqt.pdb
REMARK  4 active torsions:
REMARK  status: ('A' for Active; 'I' for Inactive)
REMARK    1  A    between atoms: C_4  and  C_12
REMARK    2  A    between atoms: C_7  and  O_20
REMARK    3  A    between atoms: C_11  and  O_22
REMARK    4  A    between atoms: C_17  and  O_18
REMARK                            x       y       z     vdW  Elec       q    Type
REMARK                         _______ _______ _______ _____ _____    ______ ____
ROOT
ATOM      1  O   UNL     1      52.185  -0.312   8.783  0.00  0.00    +0.000 OA
ATOM      2  O   UNL     1      48.894   1.469   6.912  0.00  0.00    +0.000 OA
ATOM      3  C   UNL     1      50.166   1.129   8.892  0.00  0.00    +0.000 A 
ATOM      4  C   UNL     1      50.836   0.051   6.691  0.00  0.00    +0.000 A 
ATOM      5  C   UNL     1      51.300   0.502   9.488  0.00  0.00    +0.000 A 
ATOM      6  C   UNL     1      49.868   0.931   7.424  0.00  0.00    +0.000 A 
ATOM      7  C   UNL     1      49.335   1.929   9.680  0.00  0.00    +0.000 A 
ATOM      8  C   UNL     1      51.732  -0.340   7.542  0.00  0.00    +0.000 A 
ATOM      9  C   UNL     1      51.575   0.684  10.841  0.00  0.00    +0.000 A 
ATOM     10  C   UNL     1      49.616   2.107  11.034  0.00  0.00    +0.000 A 
ATOM     11  C   UNL     1      50.728   1.486  11.599  0.00  0.00    +0.000 A 
ENDROOT
BRANCH   4  12
ATOM     12  C   UNL     1      50.792  -0.311   5.276  0.00  0.00    +0.000 A 
ATOM     13  C   UNL     1      50.527  -1.623   4.874  0.00  0.00    +0.000 A 
ATOM     14  C   UNL     1      51.014   0.654   4.287  0.00  0.00    +0.000 A 
ATOM     15  C   UNL     1      50.485  -1.969   3.525  0.00  0.00    +0.000 A 
ATOM     16  C   UNL     1      50.975   0.321   2.933  0.00  0.00    +0.000 A 
ATOM     17  C   UNL     1      50.709  -0.991   2.564  0.00  0.00    +0.000 A 
BRANCH  17  18
ATOM     18  O   UNL     1      50.674  -1.297   1.235  0.00  0.00    +0.000 OA
ATOM     19  H   UNL     1      50.925  -2.232   1.131  0.00  0.00    +0.000 HD
ENDBRANCH  17  18
ENDBRANCH   4  12
BRANCH   7  20
ATOM     20  O   UNL     1      48.226   2.569   9.196  0.00  0.00    +0.000 OA
ATOM     21  H   UNL     1      47.924   3.226   9.864  0.00  0.00    +0.000 HD
ENDBRANCH   7  20
BRANCH  11  22
ATOM     22  O   UNL     1      51.014   1.654  12.923  0.00  0.00    +0.000 OA
ATOM     23  H   UNL     1      50.510   0.991  13.429  0.00  0.00    +0.000 HD
ENDBRANCH  11  22
TORSDOF 4
ENDMDL
MODEL 5
REMARK VINA RESULT:      -5.9      7.216      8.644
REMARK  Name = Genistein.pdbqt.pdb
REMARK  4 active torsions:
REMARK  status: ('A' for Active; 'I' for Inactive)
REMARK    1  A    between atoms: C_4  and  C_12
REMARK    2  A    between atoms: C_7  and  O_20
REMARK    3  A    between atoms: C_11  and  O_22
REMARK    4  A    between atoms: C_17  and  O_18
REMARK                            x       y       z     vdW  Elec       q    Type
REMARK                         _______ _______ _______ _____ _____    ______ ____
ROOT
ATOM      1  O   UNL     1      50.366  -1.743   4.618  0.00  0.00    +0.000 OA
ATOM      2  O   UNL     1      51.134   2.256   5.582  0.00  0.00    +0.000 OA
ATOM      3  C   UNL     1      51.033   0.547   3.931  0.00  0.00    +0.000 A 
ATOM      4  C   UNL     1      50.473   0.067   6.362  0.00  0.00    +0.000 A 
ATOM      5  C   UNL     1      50.761  -0.824   3.648  0.00  0.00    +0.000 A 
ATOM      6  C   UNL     1      50.900   1.078   5.339  0.00  0.00    +0.000 A 
ATOM      7  C   UNL     1      51.424   1.395   2.891  0.00  0.00    +0.000 A 
ATOM      8  C   UNL     1      50.318  -1.065   5.752  0.00  0.00    +0.000 A 
ATOM      9  C   UNL     1      50.885  -1.312   2.350  0.00  0.00    +0.000 A 
ATOM     10  C   UNL     1      51.546   0.899   1.594  0.00  0.00    +0.000 A 
ATOM     11  C   UNL     1      51.276  -0.444   1.336  0.00  0.00    +0.000 A 
ENDROOT
BRANCH   4  12
ATOM     12  C   UNL     1      50.266   0.300   7.790  0.00  0.00    +0.000 A 
ATOM     13  C   UNL     1      48.980   0.403   8.326  0.00  0.00    +0.000 A 
ATOM     14  C   UNL     1      51.359   0.423   8.656  0.00  0.00    +0.000 A 
ATOM     15  C   UNL     1      48.782   0.624   9.688  0.00  0.00    +0.000 A 
ATOM     16  C   UNL     1      51.176   0.645  10.020  0.00  0.00    +0.000 A 
ATOM     17  C   UNL     1      49.886   0.743  10.525  0.00  0.00    +0.000 A 
BRANCH  17  18
ATOM     18  O   UNL     1      49.726   0.959  11.863  0.00  0.00    +0.000 OA
ATOM     19  H   UNL     1      50.609   0.992  12.273  0.00  0.00    +0.000 HD
ENDBRANCH  17  18
ENDBRANCH   4  12
BRANCH   7  20
ATOM     20  O   UNL     1      51.705   2.723   3.067  0.00  0.00    +0.000 OA
ATOM     21  H   UNL     1      52.070   2.851   3.972  0.00  0.00    +0.000 HD
ENDBRANCH   7  20
BRANCH  11  22
ATOM     22  O   UNL     1      51.391  -0.941   0.070  0.00  0.00    +0.000 OA
ATOM     23  H   UNL     1      52.223  -1.443   0.016  0.00  0.00    +0.000 HD
ENDBRANCH  11  22
TORSDOF 4
ENDMDL
MODEL 6
REMARK VINA RESULT:      -5.8      6.210      9.141
REMARK  Name = Genistein.pdbqt.pdb
REMARK  4 active torsions:
REMARK  status: ('A' for Active; 'I' for Inactive)
REMARK    1  A    between atoms: C_4  and  C_12
REMARK    2  A    between atoms: C_7  and  O_20
REMARK    3  A    between atoms: C_11  and  O_22
REMARK    4  A    between atoms: C_17  and  O_18
REMARK                            x       y       z     vdW  Elec       q    Type
REMARK                         _______ _______ _______ _____ _____    ______ ____
ROOT
ATOM      1  O   UNL     1      52.697   2.275   8.399  0.00  0.00    +0.000 OA
ATOM      2  O   UNL     1      48.612   1.554   7.856  0.00  0.00    +0.000 OA
ATOM      3  C   UNL     1      50.332   2.739   8.993  0.00  0.00    +0.000 A 
ATOM      4  C   UNL     1      50.874   1.024   7.198  0.00  0.00    +0.000 A 
ATOM      5  C   UNL     1      51.734   2.952   9.144  0.00  0.00    +0.000 A 
ATOM      6  C   UNL     1      49.816   1.738   7.985  0.00  0.00    +0.000 A 
ATOM      7  C   UNL     1      49.440   3.466   9.786  0.00  0.00    +0.000 A 
ATOM      8  C   UNL     1      52.024   1.466   7.598  0.00  0.00    +0.000 A 
ATOM      9  C   UNL     1      52.209   3.874  10.073  0.00  0.00    +0.000 A 
ATOM     10  C   UNL     1      49.923   4.388  10.713  0.00  0.00    +0.000 A 
ATOM     11  C   UNL     1      51.297   4.583  10.847  0.00  0.00    +0.000 A 
ENDROOT
BRANCH   4  12
ATOM     12  C   UNL     1      50.665   0.011   6.165  0.00  0.00    +0.000 A 
ATOM     13  C   UNL     1      50.486   0.371   4.827  0.00  0.00    +0.000 A 
ATOM     14  C   UNL     1      50.640  -1.348   6.497  0.00  0.00    +0.000 A 
ATOM     15  C   UNL     1      50.287  -0.594   3.842  0.00  0.00    +0.000 A 
ATOM     16  C   UNL     1      50.441  -2.324   5.521  0.00  0.00    +0.000 A 
ATOM     17  C   UNL     1      50.266  -1.937   4.199  0.00  0.00    +0.000 A 
BRANCH  17  18
ATOM     18  O   UNL     1      50.074  -2.907   3.259  0.00  0.00    +0.000 OA
ATOM     19  H   UNL     1      49.175  -2.806   2.898  0.00  0.00    +0.000 HD
ENDBRANCH  17  18
ENDBRANCH   4  12
BRANCH   7  20
ATOM     20  O   UNL     1      48.081   3.329   9.710  0.00  0.00    +0.000 OA
ATOM     21  H   UNL     1      47.735   3.110  10.606  0.00  0.00    +0.000 HD
ENDBRANCH   7  20
BRANCH  11  22
ATOM     22  O   UNL     1      51.781   5.484  11.752  0.00  0.00    +0.000 OA
ATOM     23  H   UNL     1      51.034   5.814  12.281  0.00  0.00    +0.000 HD
ENDBRANCH  11  22
TORSDOF 4
ENDMDL
MODEL 7
REMARK VINA RESULT:      -5.4     25.532     27.276
REMARK  Name = Genistein.pdbqt.pdb
REMARK  4 active torsions:
REMARK  status: ('A' for Active; 'I' for Inactive)
REMARK    1  A    between atoms: C_4  and  C_12
REMARK    2  A    between atoms: C_7  and  O_20
REMARK    3  A    between atoms: C_11  and  O_22
REMARK    4  A    between atoms: C_17  and  O_18
REMARK                            x       y       z     vdW  Elec       q    Type
REMARK                         _______ _______ _______ _____ _____    ______ ____
ROOT
ATOM      1  O   UNL     1      29.971  -2.717  -4.368  0.00  0.00    +0.000 OA
ATOM      2  O   UNL     1      33.040  -3.953  -1.807  0.00  0.00    +0.000 OA
ATOM      3  C   UNL     1      31.948  -2.185  -2.964  0.00  0.00    +0.000 A 
ATOM      4  C   UNL     1      31.128  -4.584  -3.142  0.00  0.00    +0.000 A 
ATOM      5  C   UNL     1      30.887  -1.809  -3.840  0.00  0.00    +0.000 A 
ATOM      6  C   UNL     1      32.128  -3.630  -2.559  0.00  0.00    +0.000 A 
ATOM      7  C   UNL     1      32.818  -1.203  -2.484  0.00  0.00    +0.000 A 
ATOM      8  C   UNL     1      30.320  -3.897  -3.885  0.00  0.00    +0.000 A 
ATOM      9  C   UNL     1      30.721  -0.478  -4.213  0.00  0.00    +0.000 A 
ATOM     10  C   UNL     1      32.646   0.127  -2.862  0.00  0.00    +0.000 A 
ATOM     11  C   UNL     1      31.604   0.476  -3.718  0.00  0.00    +0.000 A 
ENDROOT
BRANCH   4  12
ATOM     12  C   UNL     1      31.065  -6.027  -2.924  0.00  0.00    +0.000 A 
ATOM     13  C   UNL     1      32.132  -6.859  -3.275  0.00  0.00    +0.000 A 
ATOM     14  C   UNL     1      29.927  -6.611  -2.355  0.00  0.00    +0.000 A 
ATOM     15  C   UNL     1      32.073  -8.235  -3.067  0.00  0.00    +0.000 A 
ATOM     16  C   UNL     1      29.854  -7.988  -2.142  0.00  0.00    +0.000 A 
ATOM     17  C   UNL     1      30.930  -8.788  -2.500  0.00  0.00    +0.000 A 
BRANCH  17  18
ATOM     18  O   UNL     1      30.840 -10.132  -2.283  0.00  0.00    +0.000 OA
ATOM     19  H   UNL     1      30.673 -10.277  -1.335  0.00  0.00    +0.000 HD
ENDBRANCH  17  18
ENDBRANCH   4  12
BRANCH   7  20
ATOM     20  O   UNL     1      33.863  -1.470  -1.640  0.00  0.00    +0.000 OA
ATOM     21  H   UNL     1      34.670  -1.635  -2.180  0.00  0.00    +0.000 HD
ENDBRANCH   7  20
BRANCH  11  22
ATOM     22  O   UNL     1      31.425   1.776  -4.095  0.00  0.00    +0.000 OA
ATOM     23  H   UNL     1      32.190   2.045  -4.634  0.00  0.00    +0.000 HD
ENDBRANCH  11  22
TORSDOF 4
ENDMDL
MODEL 8
REMARK VINA RESULT:      -5.2      2.379      7.853
REMARK  Name = Genistein.pdbqt.pdb
REMARK  4 active torsions:
REMARK  status: ('A' for Active; 'I' for Inactive)
REMARK    1  A    between atoms: C_4  and  C_12
REMARK    2  A    between atoms: C_7  and  O_20
REMARK    3  A    between atoms: C_11  and  O_22
REMARK    4  A    between atoms: C_17  and  O_18
REMARK                            x       y       z     vdW  Elec       q    Type
REMARK                         _______ _______ _______ _____ _____    ______ ____
ROOT
ATOM      1  O   UNL     1      54.000   6.113   7.976  0.00  0.00    +0.000 OA
ATOM      2  O   UNL     1      51.579   8.448   5.488  0.00  0.00    +0.000 OA
ATOM      3  C   UNL     1      52.169   7.763   7.688  0.00  0.00    +0.000 A 
ATOM      4  C   UNL     1      53.373   6.839   5.651  0.00  0.00    +0.000 A 
ATOM      5  C   UNL     1      53.016   6.950   8.497  0.00  0.00    +0.000 A 
ATOM      6  C   UNL     1      52.307   7.749   6.183  0.00  0.00    +0.000 A 
ATOM      7  C   UNL     1      51.210   8.574   8.302  0.00  0.00    +0.000 A 
ATOM      8  C   UNL     1      53.938   6.263   6.664  0.00  0.00    +0.000 A 
ATOM      9  C   UNL     1      52.888   6.963   9.884  0.00  0.00    +0.000 A 
ATOM     10  C   UNL     1      51.087   8.581   9.690  0.00  0.00    +0.000 A 
ATOM     11  C   UNL     1      51.924   7.780  10.465  0.00  0.00    +0.000 A 
ENDROOT
BRANCH   4  12
ATOM     12  C   UNL     1      53.724   6.627   4.248  0.00  0.00    +0.000 A 
ATOM     13  C   UNL     1      53.576   5.374   3.647  0.00  0.00    +0.000 A 
ATOM     14  C   UNL     1      54.217   7.682   3.471  0.00  0.00    +0.000 A 
ATOM     15  C   UNL     1      53.909   5.172   2.310  0.00  0.00    +0.000 A 
ATOM     16  C   UNL     1      54.555   7.493   2.131  0.00  0.00    +0.000 A 
ATOM     17  C   UNL     1      54.397   6.237   1.562  0.00  0.00    +0.000 A 
BRANCH  17  18
ATOM     18  O   UNL     1      54.733   6.072   0.250  0.00  0.00    +0.000 OA
ATOM     19  H   UNL     1      55.303   6.816  -0.015  0.00  0.00    +0.000 HD
ENDBRANCH  17  18
ENDBRANCH   4  12
BRANCH   7  20
ATOM     20  O   UNL     1      50.354   9.386   7.607  0.00  0.00    +0.000 OA
ATOM     21  H   UNL     1      50.737   9.559   6.717  0.00  0.00    +0.000 HD
ENDBRANCH   7  20
BRANCH  11  22
ATOM     22  O   UNL     1      51.814   7.780  11.825  0.00  0.00    +0.000 OA
ATOM     23  H   UNL     1      52.652   7.451  12.198  0.00  0.00    +0.000 HD
ENDBRANCH  11  22
TORSDOF 4
ENDMDL
MODEL 9
REMARK VINA RESULT:      -5.2      8.091      9.436
REMARK  Name = Genistein.pdbqt.pdb
REMARK  4 active torsions:
REMARK  status: ('A' for Active; 'I' for Inactive)
REMARK    1  A    between atoms: C_4  and  C_12
REMARK    2  A    between atoms: C_7  and  O_20
REMARK    3  A    between atoms: C_11  and  O_22
REMARK    4  A    between atoms: C_17  and  O_18
REMARK                            x       y       z     vdW  Elec       q    Type
REMARK                         _______ _______ _______ _____ _____    ______ ____
ROOT
ATOM      1  O   UNL     1      50.777  -3.018   6.379  0.00  0.00    +0.000 OA
ATOM      2  O   UNL     1      50.784   0.993   5.188  0.00  0.00    +0.000 OA
ATOM      3  C   UNL     1      51.119  -1.294   4.626  0.00  0.00    +0.000 A 
ATOM      4  C   UNL     1      50.424  -0.599   6.969  0.00  0.00    +0.000 A 
ATOM      5  C   UNL     1      51.103  -2.647   5.076  0.00  0.00    +0.000 A 
ATOM      6  C   UNL     1      50.771  -0.170   5.575  0.00  0.00    +0.000 A 
ATOM      7  C   UNL     1      51.459  -1.018   3.299  0.00  0.00    +0.000 A 
ATOM      8  C   UNL     1      50.515  -1.890   7.016  0.00  0.00    +0.000 A 
ATOM      9  C   UNL     1      51.425  -3.682   4.202  0.00  0.00    +0.000 A 
ATOM     10  C   UNL     1      51.779  -2.060   2.430  0.00  0.00    +0.000 A 
ATOM     11  C   UNL     1      51.758  -3.376   2.887  0.00  0.00    +0.000 A 
ENDROOT
BRANCH   4  12
ATOM     12  C   UNL     1      50.052   0.268   8.085  0.00  0.00    +0.000 A 
ATOM     13  C   UNL     1      48.923   1.090   8.016  0.00  0.00    +0.000 A 
ATOM     14  C   UNL     1      50.821   0.293   9.254  0.00  0.00    +0.000 A 
ATOM     15  C   UNL     1      48.567   1.916   9.080  0.00  0.00    +0.000 A 
ATOM     16  C   UNL     1      50.476   1.116  10.326  0.00  0.00    +0.000 A 
ATOM     17  C   UNL     1      49.350   1.922  10.229  0.00  0.00    +0.000 A 
BRANCH  17  18
ATOM     18  O   UNL     1      49.028   2.719  11.288  0.00  0.00    +0.000 OA
ATOM     19  H   UNL     1      49.602   2.477  12.037  0.00  0.00    +0.000 HD
ENDBRANCH  17  18
ENDBRANCH   4  12
BRANCH   7  20
ATOM     20  O   UNL     1      51.500   0.247   2.779  0.00  0.00    +0.000 OA
ATOM     21  H   UNL     1      50.577   0.574   2.670  0.00  0.00    +0.000 HD
ENDBRANCH   7  20
BRANCH  11  22
ATOM     22  O   UNL     1      52.070  -4.404   2.045  0.00  0.00    +0.000 OA
ATOM     23  H   UNL     1      53.027  -4.372   1.867  0.00  0.00    +0.000 HD
ENDBRANCH  11  22
TORSDOF 4
ENDMDL
