MODEL 1
REMARK VINA RESULT:      -2.9      0.000      0.000
REMARK  Name = HydrogenPeroxide.pdbqt.pdb
REMARK  1 active torsions:
REMARK  status: ('A' for Active; 'I' for Inactive)
REMARK    1  A    between atoms: O_1  and  O_3
REMARK                            x       y       z     vdW  Elec       q    Type
REMARK                         _______ _______ _______ _____ _____    ______ ____
ROOT
ATOM      1  O   UNL     1      46.087  15.053   2.823  0.00  0.00    +0.000 OA
ATOM      2  H   UNL     1      46.128  14.443   3.584  0.00  0.00    +0.000 HD
ENDROOT
BRANCH   1   3
ATOM      3  O   UNL     1      47.491  14.965   2.456  0.00  0.00    +0.000 OA
ATOM      4  H   UNL     1      47.689  14.148   2.952  0.00  0.00    +0.000 HD
ENDBRANCH   1   3
TORSDOF 1
ENDMDL
MODEL 2
REMARK VINA RESULT:      -2.6     10.495     10.930
REMARK  Name = HydrogenPeroxide.pdbqt.pdb
REMARK  1 active torsions:
REMARK  status: ('A' for Active; 'I' for Inactive)
REMARK    1  A    between atoms: O_1  and  O_3
REMARK                            x       y       z     vdW  Elec       q    Type
REMARK                         _______ _______ _______ _____ _____    ______ ____
ROOT
ATOM      1  O   UNL     1      41.949  19.554  12.160  0.00  0.00    +0.000 OA
ATOM      2  H   UNL     1      41.180  20.074  11.856  0.00  0.00    +0.000 HD
ENDROOT
BRANCH   1   3
ATOM      3  O   UNL     1      42.572  19.393  10.856  0.00  0.00    +0.000 OA
ATOM      4  H   UNL     1      42.526  20.330  10.589  0.00  0.00    +0.000 HD
ENDBRANCH   1   3
TORSDOF 1
ENDMDL
MODEL 3
REMARK VINA RESULT:      -2.4      8.037      8.230
REMARK  Name = HydrogenPeroxide.pdbqt.pdb
REMARK  1 active torsions:
REMARK  status: ('A' for Active; 'I' for Inactive)
REMARK    1  A    between atoms: O_1  and  O_3
REMARK                            x       y       z     vdW  Elec       q    Type
REMARK                         _______ _______ _______ _____ _____    ______ ____
ROOT
ATOM      1  O   UNL     1      48.316   8.767  -2.132  0.00  0.00    +0.000 OA
ATOM      2  H   UNL     1      48.961   9.073  -2.799  0.00  0.00    +0.000 HD
ENDROOT
BRANCH   1   3
ATOM      3  O   UNL     1      47.133   8.893  -2.968  0.00  0.00    +0.000 OA
ATOM      4  H   UNL     1      46.525   9.188  -2.263  0.00  0.00    +0.000 HD
ENDBRANCH   1   3
TORSDOF 1
ENDMDL
MODEL 4
REMARK VINA RESULT:      -2.2      8.498      8.709
REMARK  Name = HydrogenPeroxide.pdbqt.pdb
REMARK  1 active torsions:
REMARK  status: ('A' for Active; 'I' for Inactive)
REMARK    1  A    between atoms: O_1  and  O_3
REMARK                            x       y       z     vdW  Elec       q    Type
REMARK                         _______ _______ _______ _____ _____    ______ ____
ROOT
ATOM      1  O   UNL     1      50.645   9.237   8.882  0.00  0.00    +0.000 OA
ATOM      2  H   UNL     1      49.775   8.810   9.000  0.00  0.00    +0.000 HD
ENDROOT
BRANCH   1   3
ATOM      3  O   UNL     1      50.334   9.917   7.635  0.00  0.00    +0.000 OA
ATOM      4  H   UNL     1      50.853   9.331   7.052  0.00  0.00    +0.000 HD
ENDBRANCH   1   3
TORSDOF 1
ENDMDL
MODEL 5
REMARK VINA RESULT:      -2.1     22.775     22.918
REMARK  Name = HydrogenPeroxide.pdbqt.pdb
REMARK  1 active torsions:
REMARK  status: ('A' for Active; 'I' for Inactive)
REMARK    1  A    between atoms: O_1  and  O_3
REMARK                            x       y       z     vdW  Elec       q    Type
REMARK                         _______ _______ _______ _____ _____    ______ ____
ROOT
ATOM      1  O   UNL     1      29.101   1.782   8.154  0.00  0.00    +0.000 OA
ATOM      2  H   UNL     1      28.181   1.536   8.365  0.00  0.00    +0.000 HD
ENDROOT
BRANCH   1   3
ATOM      3  O   UNL     1      29.433   0.582   7.405  0.00  0.00    +0.000 OA
ATOM      4  H   UNL     1      29.832   1.032   6.636  0.00  0.00    +0.000 HD
ENDBRANCH   1   3
TORSDOF 1
ENDMDL
MODEL 6
REMARK VINA RESULT:      -2.1      7.643      8.011
REMARK  Name = HydrogenPeroxide.pdbqt.pdb
REMARK  1 active torsions:
REMARK  status: ('A' for Active; 'I' for Inactive)
REMARK    1  A    between atoms: O_1  and  O_3
REMARK                            x       y       z     vdW  Elec       q    Type
REMARK                         _______ _______ _______ _____ _____    ______ ____
ROOT
ATOM      1  O   UNL     1      52.564  15.928   8.796  0.00  0.00    +0.000 OA
ATOM      2  H   UNL     1      52.761  14.980   8.670  0.00  0.00    +0.000 HD
ENDROOT
BRANCH   1   3
ATOM      3  O   UNL     1      51.159  15.861   8.431  0.00  0.00    +0.000 OA
ATOM      4  H   UNL     1      51.174  16.588   7.780  0.00  0.00    +0.000 HD
ENDBRANCH   1   3
TORSDOF 1
ENDMDL
MODEL 7
REMARK VINA RESULT:      -2.1     18.035     18.315
REMARK  Name = HydrogenPeroxide.pdbqt.pdb
REMARK  1 active torsions:
REMARK  status: ('A' for Active; 'I' for Inactive)
REMARK    1  A    between atoms: O_1  and  O_3
REMARK                            x       y       z     vdW  Elec       q    Type
REMARK                         _______ _______ _______ _____ _____    ______ ____
ROOT
ATOM      1  O   UNL     1      41.649  -0.382  10.382  0.00  0.00    +0.000 OA
ATOM      2  H   UNL     1      41.899  -1.311  10.550  0.00  0.00    +0.000 HD
ENDROOT
BRANCH   1   3
ATOM      3  O   UNL     1      40.961  -0.159  11.643  0.00  0.00    +0.000 OA
ATOM      4  H   UNL     1      41.077   0.810  11.668  0.00  0.00    +0.000 HD
ENDBRANCH   1   3
TORSDOF 1
ENDMDL
MODEL 8
REMARK VINA RESULT:      -2.1     13.722     13.731
REMARK  Name = HydrogenPeroxide.pdbqt.pdb
REMARK  1 active torsions:
REMARK  status: ('A' for Active; 'I' for Inactive)
REMARK    1  A    between atoms: O_1  and  O_3
REMARK                            x       y       z     vdW  Elec       q    Type
REMARK                         _______ _______ _______ _____ _____    ______ ____
ROOT
ATOM      1  O   UNL     1      48.174   3.914   9.917  0.00  0.00    +0.000 OA
ATOM      2  H   UNL     1      48.984   3.829  10.454  0.00  0.00    +0.000 HD
ENDROOT
BRANCH   1   3
ATOM      3  O   UNL     1      48.292   2.641   9.225  0.00  0.00    +0.000 OA
ATOM      4  H   UNL     1      49.128   2.360   9.642  0.00  0.00    +0.000 HD
ENDBRANCH   1   3
TORSDOF 1
ENDMDL
MODEL 9
REMARK VINA RESULT:      -2.0     21.913     22.075
REMARK  Name = HydrogenPeroxide.pdbqt.pdb
REMARK  1 active torsions:
REMARK  status: ('A' for Active; 'I' for Inactive)
REMARK    1  A    between atoms: O_1  and  O_3
REMARK                            x       y       z     vdW  Elec       q    Type
REMARK                         _______ _______ _______ _____ _____    ______ ____
ROOT
ATOM      1  O   UNL     1      28.110   4.736   7.661  0.00  0.00    +0.000 OA
ATOM      2  H   UNL     1      29.072   4.776   7.494  0.00  0.00    +0.000 HD
ENDROOT
BRANCH   1   3
ATOM      3  O   UNL     1      28.189   4.729   9.113  0.00  0.00    +0.000 OA
ATOM      4  H   UNL     1      28.835   5.457   9.197  0.00  0.00    +0.000 HD
ENDBRANCH   1   3
TORSDOF 1
ENDMDL
