MODEL 1
REMARK VINA RESULT:      -5.9      0.000      0.000
REMARK  Name = Hyoscyamine.pdbqt.pdb
REMARK  6 active torsions:
REMARK  status: ('A' for Active; 'I' for Inactive)
REMARK    1  A    between atoms: C_2  and  O_3
REMARK    2  A    between atoms: C_2  and  C_13
REMARK    3  A    between atoms: O_3  and  C_4
REMARK    4  A    between atoms: C_13  and  C_14
REMARK    5  A    between atoms: C_13  and  C_20
REMARK    6  A    between atoms: C_20  and  O_21
REMARK                            x       y       z     vdW  Elec       q    Type
REMARK                         _______ _______ _______ _____ _____    ______ ____
ROOT
ATOM      1  O   UNL     1      39.275   3.627  16.697  0.00  0.00    +0.000 OA
ATOM      2  C   UNL     1      39.864   2.569  16.880  0.00  0.00    +0.000 C 
ENDROOT
BRANCH   2   3
ATOM      3  O   UNL     1      40.795   1.998  16.061  0.00  0.00    +0.000 OA
BRANCH   3   4
ATOM      4  C   UNL     1      40.334   0.838  15.438  0.00  0.00    +0.000 C 
ATOM      5  C   UNL     1      41.200  -0.316  15.279  0.00  0.00    +0.000 C 
ATOM      6  C   UNL     1      41.298  -1.187  14.099  0.00  0.00    +0.000 C 
ATOM      7  N   UNL     1      41.233  -0.217  12.912  0.00  0.00    +0.000 NA
ATOM      8  C   UNL     1      40.137  -2.041  13.924  0.00  0.00    +0.000 C 
ATOM      9  C   UNL     1      39.732   0.095  13.008  0.00  0.00    +0.000 C 
ATOM     10  C   UNL     1      41.563  -0.892  11.648  0.00  0.00    +0.000 C 
ATOM     11  C   UNL     1      39.089  -1.199  13.194  0.00  0.00    +0.000 C 
ATOM     12  C   UNL     1      39.620   0.971  14.184  0.00  0.00    +0.000 C 
ENDBRANCH   3   4
ENDBRANCH   2   3
BRANCH   2  13
ATOM     13  C   UNL     1      39.607   1.692  18.061  0.00  0.00    +0.000 C 
BRANCH  13  14
ATOM     14  C   UNL     1      40.594   1.445  19.129  0.00  0.00    +0.000 A 
ATOM     15  C   UNL     1      40.515   2.145  20.338  0.00  0.00    +0.000 A 
ATOM     16  C   UNL     1      41.462   1.948  21.343  0.00  0.00    +0.000 A 
ATOM     17  C   UNL     1      42.508   1.053  21.145  0.00  0.00    +0.000 A 
ATOM     18  C   UNL     1      42.607   0.358  19.945  0.00  0.00    +0.000 A 
ATOM     19  C   UNL     1      41.657   0.559  18.944  0.00  0.00    +0.000 A 
ENDBRANCH  13  14
BRANCH  13  20
ATOM     20  C   UNL     1      38.298   1.124  18.172  0.00  0.00    +0.000 C 
BRANCH  20  21
ATOM     21  O   UNL     1      37.083   0.597  18.274  0.00  0.00    +0.000 OA
ATOM     22  H   UNL     1      36.936  -0.060  17.572  0.00  0.00    +0.000 HD
ENDBRANCH  20  21
ENDBRANCH  13  20
ENDBRANCH   2  13
TORSDOF 6
ENDMDL
MODEL 2
REMARK VINA RESULT:      -5.6     11.836     13.291
REMARK  Name = Hyoscyamine.pdbqt.pdb
REMARK  6 active torsions:
REMARK  status: ('A' for Active; 'I' for Inactive)
REMARK    1  A    between atoms: C_2  and  O_3
REMARK    2  A    between atoms: C_2  and  C_13
REMARK    3  A    between atoms: O_3  and  C_4
REMARK    4  A    between atoms: C_13  and  C_14
REMARK    5  A    between atoms: C_13  and  C_20
REMARK    6  A    between atoms: C_20  and  O_21
REMARK                            x       y       z     vdW  Elec       q    Type
REMARK                         _______ _______ _______ _____ _____    ______ ____
ROOT
ATOM      1  O   UNL     1      51.605   5.102   8.924  0.00  0.00    +0.000 OA
ATOM      2  C   UNL     1      50.876   5.649   9.743  0.00  0.00    +0.000 C 
ENDROOT
BRANCH   2   3
ATOM      3  O   UNL     1      49.689   5.178  10.226  0.00  0.00    +0.000 OA
BRANCH   3   4
ATOM      4  C   UNL     1      49.801   3.917  10.811  0.00  0.00    +0.000 C 
ATOM      5  C   UNL     1      51.007   3.530  11.523  0.00  0.00    +0.000 C 
ATOM      6  C   UNL     1      51.673   2.222  11.479  0.00  0.00    +0.000 C 
ATOM      7  N   UNL     1      51.594   1.811  10.002  0.00  0.00    +0.000 NA
ATOM      8  C   UNL     1      50.935   1.183  12.176  0.00  0.00    +0.000 C 
ATOM      9  C   UNL     1      50.099   1.456   9.987  0.00  0.00    +0.000 C 
ATOM     10  C   UNL     1      52.429   0.632   9.726  0.00  0.00    +0.000 C 
ATOM     11  C   UNL     1      49.887   0.664  11.190  0.00  0.00    +0.000 C 
ATOM     12  C   UNL     1      49.419   2.760  10.026  0.00  0.00    +0.000 C 
ENDBRANCH   3   4
ENDBRANCH   2   3
BRANCH   2  13
ATOM     13  C   UNL     1      51.179   6.989  10.328  0.00  0.00    +0.000 C 
BRANCH  13  14
ATOM     14  C   UNL     1      51.723   7.187  11.685  0.00  0.00    +0.000 A 
ATOM     15  C   UNL     1      50.875   7.158  12.797  0.00  0.00    +0.000 A 
ATOM     16  C   UNL     1      51.370   7.380  14.081  0.00  0.00    +0.000 A 
ATOM     17  C   UNL     1      52.723   7.644  14.268  0.00  0.00    +0.000 A 
ATOM     18  C   UNL     1      53.578   7.686  13.172  0.00  0.00    +0.000 A 
ATOM     19  C   UNL     1      53.077   7.463  11.890  0.00  0.00    +0.000 A 
ENDBRANCH  13  14
BRANCH  13  20
ATOM     20  C   UNL     1      50.981   8.124   9.480  0.00  0.00    +0.000 C 
BRANCH  20  21
ATOM     21  O   UNL     1      50.798   9.178   8.692  0.00  0.00    +0.000 OA
ATOM     22  H   UNL     1      50.321   9.881   9.168  0.00  0.00    +0.000 HD
ENDBRANCH  20  21
ENDBRANCH  13  20
ENDBRANCH   2  13
TORSDOF 6
ENDMDL
MODEL 3
REMARK VINA RESULT:      -5.3     12.473     15.813
REMARK  Name = Hyoscyamine.pdbqt.pdb
REMARK  6 active torsions:
REMARK  status: ('A' for Active; 'I' for Inactive)
REMARK    1  A    between atoms: C_2  and  O_3
REMARK    2  A    between atoms: C_2  and  C_13
REMARK    3  A    between atoms: O_3  and  C_4
REMARK    4  A    between atoms: C_13  and  C_14
REMARK    5  A    between atoms: C_13  and  C_20
REMARK    6  A    between atoms: C_20  and  O_21
REMARK                            x       y       z     vdW  Elec       q    Type
REMARK                         _______ _______ _______ _____ _____    ______ ____
ROOT
ATOM      1  O   UNL     1      52.923  -1.370   6.141  0.00  0.00    +0.000 OA
ATOM      2  C   UNL     1      51.921  -2.059   5.990  0.00  0.00    +0.000 C 
ENDROOT
BRANCH   2   3
ATOM      3  O   UNL     1      51.625  -2.850   4.919  0.00  0.00    +0.000 OA
BRANCH   3   4
ATOM      4  C   UNL     1      51.532  -2.135   3.724  0.00  0.00    +0.000 C 
ATOM      5  C   UNL     1      52.687  -1.448   3.174  0.00  0.00    +0.000 C 
ATOM      6  C   UNL     1      52.704  -0.121   2.545  0.00  0.00    +0.000 C 
ATOM      7  N   UNL     1      51.765   0.721   3.419  0.00  0.00    +0.000 NA
ATOM      8  C   UNL     1      52.078  -0.104   1.234  0.00  0.00    +0.000 C 
ATOM      9  C   UNL     1      50.447   0.103   2.926  0.00  0.00    +0.000 C 
ATOM     10  C   UNL     1      51.850   2.149   3.080  0.00  0.00    +0.000 C 
ATOM     11  C   UNL     1      50.576   0.049   1.476  0.00  0.00    +0.000 C 
ATOM     12  C   UNL     1      50.415  -1.226   3.554  0.00  0.00    +0.000 C 
ENDBRANCH   3   4
ENDBRANCH   2   3
BRANCH   2  13
ATOM     13  C   UNL     1      50.812  -2.102   6.988  0.00  0.00    +0.000 C 
BRANCH  13  14
ATOM     14  C   UNL     1      50.071  -0.911   7.443  0.00  0.00    +0.000 A 
ATOM     15  C   UNL     1      49.352  -0.942   8.643  0.00  0.00    +0.000 A 
ATOM     16  C   UNL     1      48.618   0.165   9.068  0.00  0.00    +0.000 A 
ATOM     17  C   UNL     1      48.587   1.317   8.290  0.00  0.00    +0.000 A 
ATOM     18  C   UNL     1      49.288   1.362   7.089  0.00  0.00    +0.000 A 
ATOM     19  C   UNL     1      50.020   0.252   6.670  0.00  0.00    +0.000 A 
ENDBRANCH  13  14
BRANCH  13  20
ATOM     20  C   UNL     1      50.421  -3.394   7.465  0.00  0.00    +0.000 C 
BRANCH  20  21
ATOM     21  O   UNL     1      50.058  -4.593   7.908  0.00  0.00    +0.000 OA
ATOM     22  H   UNL     1      49.429  -4.508   8.645  0.00  0.00    +0.000 HD
ENDBRANCH  20  21
ENDBRANCH  13  20
ENDBRANCH   2  13
TORSDOF 6
ENDMDL
MODEL 4
REMARK VINA RESULT:      -5.2     11.164     12.865
REMARK  Name = Hyoscyamine.pdbqt.pdb
REMARK  6 active torsions:
REMARK  status: ('A' for Active; 'I' for Inactive)
REMARK    1  A    between atoms: C_2  and  O_3
REMARK    2  A    between atoms: C_2  and  C_13
REMARK    3  A    between atoms: O_3  and  C_4
REMARK    4  A    between atoms: C_13  and  C_14
REMARK    5  A    between atoms: C_13  and  C_20
REMARK    6  A    between atoms: C_20  and  O_21
REMARK                            x       y       z     vdW  Elec       q    Type
REMARK                         _______ _______ _______ _____ _____    ______ ____
ROOT
ATOM      1  O   UNL     1      51.812   2.127   8.426  0.00  0.00    +0.000 OA
ATOM      2  C   UNL     1      50.610   2.111   8.662  0.00  0.00    +0.000 C 
ENDROOT
BRANCH   2   3
ATOM      3  O   UNL     1      49.604   1.862   7.774  0.00  0.00    +0.000 OA
BRANCH   3   4
ATOM      4  C   UNL     1      49.667   0.580   7.227  0.00  0.00    +0.000 C 
ATOM      5  C   UNL     1      50.061  -0.558   8.039  0.00  0.00    +0.000 C 
ATOM      6  C   UNL     1      50.934  -1.668   7.633  0.00  0.00    +0.000 C 
ATOM      7  N   UNL     1      52.049  -0.991   6.825  0.00  0.00    +0.000 NA
ATOM      8  C   UNL     1      50.306  -2.570   6.684  0.00  0.00    +0.000 C 
ATOM      9  C   UNL     1      51.218  -0.705   5.564  0.00  0.00    +0.000 C 
ATOM     10  C   UNL     1      53.151  -1.923   6.543  0.00  0.00    +0.000 C 
ATOM     11  C   UNL     1      50.493  -1.940   5.303  0.00  0.00    +0.000 C 
ATOM     12  C   UNL     1      50.342   0.409   5.956  0.00  0.00    +0.000 C 
ENDBRANCH   3   4
ENDBRANCH   2   3
BRANCH   2  13
ATOM     13  C   UNL     1      50.046   2.416  10.011  0.00  0.00    +0.000 C 
BRANCH  13  14
ATOM     14  C   UNL     1      50.556   1.830  11.264  0.00  0.00    +0.000 A 
ATOM     15  C   UNL     1      49.974   0.671  11.789  0.00  0.00    +0.000 A 
ATOM     16  C   UNL     1      50.422   0.126  12.992  0.00  0.00    +0.000 A 
ATOM     17  C   UNL     1      51.455   0.741  13.691  0.00  0.00    +0.000 A 
ATOM     18  C   UNL     1      52.037   1.900  13.189  0.00  0.00    +0.000 A 
ATOM     19  C   UNL     1      51.585   2.440  11.986  0.00  0.00    +0.000 A 
ENDBRANCH  13  14
BRANCH  13  20
ATOM     20  C   UNL     1      48.995   3.385  10.068  0.00  0.00    +0.000 C 
BRANCH  20  21
ATOM     21  O   UNL     1      48.019   4.285  10.121  0.00  0.00    +0.000 OA
ATOM     22  H   UNL     1      48.387   5.184  10.187  0.00  0.00    +0.000 HD
ENDBRANCH  20  21
ENDBRANCH  13  20
ENDBRANCH   2  13
TORSDOF 6
ENDMDL
MODEL 5
REMARK VINA RESULT:      -5.1     12.189     14.727
REMARK  Name = Hyoscyamine.pdbqt.pdb
REMARK  6 active torsions:
REMARK  status: ('A' for Active; 'I' for Inactive)
REMARK    1  A    between atoms: C_2  and  O_3
REMARK    2  A    between atoms: C_2  and  C_13
REMARK    3  A    between atoms: O_3  and  C_4
REMARK    4  A    between atoms: C_13  and  C_14
REMARK    5  A    between atoms: C_13  and  C_20
REMARK    6  A    between atoms: C_20  and  O_21
REMARK                            x       y       z     vdW  Elec       q    Type
REMARK                         _______ _______ _______ _____ _____    ______ ____
ROOT
ATOM      1  O   UNL     1      51.579   5.303  11.194  0.00  0.00    +0.000 OA
ATOM      2  C   UNL     1      50.746   5.236  10.299  0.00  0.00    +0.000 C 
ENDROOT
BRANCH   2   3
ATOM      3  O   UNL     1      50.593   6.104   9.256  0.00  0.00    +0.000 OA
BRANCH   3   4
ATOM      4  C   UNL     1      51.740   6.217   8.470  0.00  0.00    +0.000 C 
ATOM      5  C   UNL     1      52.428   7.489   8.335  0.00  0.00    +0.000 C 
ATOM      6  C   UNL     1      53.014   8.046   7.108  0.00  0.00    +0.000 C 
ATOM      7  N   UNL     1      51.989   7.707   6.017  0.00  0.00    +0.000 NA
ATOM      8  C   UNL     1      54.221   7.356   6.689  0.00  0.00    +0.000 C 
ATOM      9  C   UNL     1      52.309   6.207   5.921  0.00  0.00    +0.000 C 
ATOM     10  C   UNL     1      52.295   8.403   4.758  0.00  0.00    +0.000 C 
ATOM     11  C   UNL     1      53.763   6.132   5.894  0.00  0.00    +0.000 C 
ATOM     12  C   UNL     1      51.722   5.635   7.143  0.00  0.00    +0.000 C 
ENDBRANCH   3   4
ENDBRANCH   2   3
BRANCH   2  13
ATOM     13  C   UNL     1      49.705   4.167  10.239  0.00  0.00    +0.000 C 
BRANCH  13  14
ATOM     14  C   UNL     1      49.846   2.929   9.450  0.00  0.00    +0.000 A 
ATOM     15  C   UNL     1      48.735   2.110   9.217  0.00  0.00    +0.000 A 
ATOM     16  C   UNL     1      48.861   0.919   8.504  0.00  0.00    +0.000 A 
ATOM     17  C   UNL     1      50.104   0.526   8.021  0.00  0.00    +0.000 A 
ATOM     18  C   UNL     1      51.220   1.323   8.253  0.00  0.00    +0.000 A 
ATOM     19  C   UNL     1      51.089   2.513   8.967  0.00  0.00    +0.000 A 
ENDBRANCH  13  14
BRANCH  13  20
ATOM     20  C   UNL     1      48.544   4.349  11.054  0.00  0.00    +0.000 C 
BRANCH  20  21
ATOM     21  O   UNL     1      47.465   4.518  11.812  0.00  0.00    +0.000 OA
ATOM     22  H   UNL     1      47.011   3.669  11.954  0.00  0.00    +0.000 HD
ENDBRANCH  20  21
ENDBRANCH  13  20
ENDBRANCH   2  13
TORSDOF 6
ENDMDL
MODEL 6
REMARK VINA RESULT:      -4.9     24.384     26.603
REMARK  Name = Hyoscyamine.pdbqt.pdb
REMARK  6 active torsions:
REMARK  status: ('A' for Active; 'I' for Inactive)
REMARK    1  A    between atoms: C_2  and  O_3
REMARK    2  A    between atoms: C_2  and  C_13
REMARK    3  A    between atoms: O_3  and  C_4
REMARK    4  A    between atoms: C_13  and  C_14
REMARK    5  A    between atoms: C_13  and  C_20
REMARK    6  A    between atoms: C_20  and  O_21
REMARK                            x       y       z     vdW  Elec       q    Type
REMARK                         _______ _______ _______ _____ _____    ______ ____
ROOT
ATOM      1  O   UNL     1      41.992  -0.293  -8.548  0.00  0.00    +0.000 OA
ATOM      2  C   UNL     1      42.482   0.830  -8.530  0.00  0.00    +0.000 C 
ENDROOT
BRANCH   2   3
ATOM      3  O   UNL     1      43.811   1.142  -8.526  0.00  0.00    +0.000 OA
BRANCH   3   4
ATOM      4  C   UNL     1      44.475   0.711  -9.675  0.00  0.00    +0.000 C 
ATOM      5  C   UNL     1      45.784   0.089  -9.589  0.00  0.00    +0.000 C 
ATOM      6  C   UNL     1      46.922   0.306 -10.492  0.00  0.00    +0.000 C 
ATOM      7  N   UNL     1      46.903   1.817 -10.762  0.00  0.00    +0.000 NA
ATOM      8  C   UNL     1      46.731  -0.290 -11.803  0.00  0.00    +0.000 C 
ATOM      9  C   UNL     1      45.688   1.824 -11.703  0.00  0.00    +0.000 C 
ATOM     10  C   UNL     1      48.123   2.255 -11.456  0.00  0.00    +0.000 C 
ATOM     11  C   UNL     1      45.914   0.714 -12.618  0.00  0.00    +0.000 C 
ATOM     12  C   UNL     1      44.539   1.611 -10.809  0.00  0.00    +0.000 C 
ENDBRANCH   3   4
ENDBRANCH   2   3
BRANCH   2  13
ATOM     13  C   UNL     1      41.658   2.073  -8.467  0.00  0.00    +0.000 C 
BRANCH  13  14
ATOM     14  C   UNL     1      40.188   2.076  -8.345  0.00  0.00    +0.000 A 
ATOM     15  C   UNL     1      39.585   2.158  -7.085  0.00  0.00    +0.000 A 
ATOM     16  C   UNL     1      38.197   2.125  -6.951  0.00  0.00    +0.000 A 
ATOM     17  C   UNL     1      37.394   2.001  -8.080  0.00  0.00    +0.000 A 
ATOM     18  C   UNL     1      37.977   1.908  -9.339  0.00  0.00    +0.000 A 
ATOM     19  C   UNL     1      39.365   1.941  -9.466  0.00  0.00    +0.000 A 
ENDBRANCH  13  14
BRANCH  13  20
ATOM     20  C   UNL     1      42.364   3.317  -8.462  0.00  0.00    +0.000 C 
BRANCH  20  21
ATOM     21  O   UNL     1      43.019   4.473  -8.457  0.00  0.00    +0.000 OA
ATOM     22  H   UNL     1      43.842   4.401  -8.971  0.00  0.00    +0.000 HD
ENDBRANCH  20  21
ENDBRANCH  13  20
ENDBRANCH   2  13
TORSDOF 6
ENDMDL
MODEL 7
REMARK VINA RESULT:      -4.9     11.231     15.169
REMARK  Name = Hyoscyamine.pdbqt.pdb
REMARK  6 active torsions:
REMARK  status: ('A' for Active; 'I' for Inactive)
REMARK    1  A    between atoms: C_2  and  O_3
REMARK    2  A    between atoms: C_2  and  C_13
REMARK    3  A    between atoms: O_3  and  C_4
REMARK    4  A    between atoms: C_13  and  C_14
REMARK    5  A    between atoms: C_13  and  C_20
REMARK    6  A    between atoms: C_20  and  O_21
REMARK                            x       y       z     vdW  Elec       q    Type
REMARK                         _______ _______ _______ _____ _____    ______ ____
ROOT
ATOM      1  O   UNL     1      50.794   0.852   4.837  0.00  0.00    +0.000 OA
ATOM      2  C   UNL     1      50.419  -0.221   5.293  0.00  0.00    +0.000 C 
ENDROOT
BRANCH   2   3
ATOM      3  O   UNL     1      49.756  -0.424   6.469  0.00  0.00    +0.000 OA
BRANCH   3   4
ATOM      4  C   UNL     1      50.045   0.544   7.430  0.00  0.00    +0.000 C 
ATOM      5  C   UNL     1      50.962   0.262   8.521  0.00  0.00    +0.000 C 
ATOM      6  C   UNL     1      50.811   0.667   9.924  0.00  0.00    +0.000 C 
ATOM      7  N   UNL     1      49.320   0.454  10.218  0.00  0.00    +0.000 NA
ATOM      8  C   UNL     1      51.014   2.091  10.131  0.00  0.00    +0.000 C 
ATOM      9  C   UNL     1      48.800   1.669   9.433  0.00  0.00    +0.000 C 
ATOM     10  C   UNL     1      49.031   0.579  11.654  0.00  0.00    +0.000 C 
ATOM     11  C   UNL     1      49.680   2.766   9.810  0.00  0.00    +0.000 C 
ATOM     12  C   UNL     1      48.941   1.273   8.023  0.00  0.00    +0.000 C 
ENDBRANCH   3   4
ENDBRANCH   2   3
BRANCH   2  13
ATOM     13  C   UNL     1      50.679  -1.526   4.614  0.00  0.00    +0.000 C 
BRANCH  13  14
ATOM     14  C   UNL     1      50.853  -2.803   5.331  0.00  0.00    +0.000 A 
ATOM     15  C   UNL     1      49.843  -3.771   5.303  0.00  0.00    +0.000 A 
ATOM     16  C   UNL     1      49.978  -4.968   6.005  0.00  0.00    +0.000 A 
ATOM     17  C   UNL     1      51.124  -5.207   6.755  0.00  0.00    +0.000 A 
ATOM     18  C   UNL     1      52.133  -4.251   6.803  0.00  0.00    +0.000 A 
ATOM     19  C   UNL     1      51.992  -3.056   6.098  0.00  0.00    +0.000 A 
ENDBRANCH  13  14
BRANCH  13  20
ATOM     20  C   UNL     1      50.691  -1.518   3.183  0.00  0.00    +0.000 C 
BRANCH  20  21
ATOM     21  O   UNL     1      50.702  -1.511   1.855  0.00  0.00    +0.000 OA
ATOM     22  H   UNL     1      50.628  -0.601   1.518  0.00  0.00    +0.000 HD
ENDBRANCH  20  21
ENDBRANCH  13  20
ENDBRANCH   2  13
TORSDOF 6
ENDMDL
MODEL 8
REMARK VINA RESULT:      -4.8      2.102      2.880
REMARK  Name = Hyoscyamine.pdbqt.pdb
REMARK  6 active torsions:
REMARK  status: ('A' for Active; 'I' for Inactive)
REMARK    1  A    between atoms: C_2  and  O_3
REMARK    2  A    between atoms: C_2  and  C_13
REMARK    3  A    between atoms: O_3  and  C_4
REMARK    4  A    between atoms: C_13  and  C_14
REMARK    5  A    between atoms: C_13  and  C_20
REMARK    6  A    between atoms: C_20  and  O_21
REMARK                            x       y       z     vdW  Elec       q    Type
REMARK                         _______ _______ _______ _____ _____    ______ ____
ROOT
ATOM      1  O   UNL     1      39.484   2.252  17.913  0.00  0.00    +0.000 OA
ATOM      2  C   UNL     1      40.422   1.500  17.680  0.00  0.00    +0.000 C 
ENDROOT
BRANCH   2   3
ATOM      3  O   UNL     1      41.066   1.338  16.488  0.00  0.00    +0.000 OA
BRANCH   3   4
ATOM      4  C   UNL     1      40.528   0.310  15.714  0.00  0.00    +0.000 C 
ATOM      5  C   UNL     1      41.336  -0.834  15.330  0.00  0.00    +0.000 C 
ATOM      6  C   UNL     1      41.343  -1.507  14.024  0.00  0.00    +0.000 C 
ATOM      7  N   UNL     1      41.266  -0.358  13.010  0.00  0.00    +0.000 NA
ATOM      8  C   UNL     1      40.140  -2.281  13.776  0.00  0.00    +0.000 C 
ATOM      9  C   UNL     1      39.785  -0.013  13.231  0.00  0.00    +0.000 C 
ATOM     10  C   UNL     1      41.509  -0.833  11.640  0.00  0.00    +0.000 C 
ATOM     11  C   UNL     1      39.097  -1.297  13.243  0.00  0.00    +0.000 C 
ATOM     12  C   UNL     1      39.764   0.667  14.535  0.00  0.00    +0.000 C 
ENDBRANCH   3   4
ENDBRANCH   2   3
BRANCH   2  13
ATOM     13  C   UNL     1      40.997   0.581  18.708  0.00  0.00    +0.000 C 
BRANCH  13  14
ATOM     14  C   UNL     1      40.206  -0.424  19.442  0.00  0.00    +0.000 A 
ATOM     15  C   UNL     1      39.694  -1.544  18.777  0.00  0.00    +0.000 A 
ATOM     16  C   UNL     1      38.914  -2.483  19.451  0.00  0.00    +0.000 A 
ATOM     17  C   UNL     1      38.628  -2.308  20.801  0.00  0.00    +0.000 A 
ATOM     18  C   UNL     1      39.120  -1.195  21.474  0.00  0.00    +0.000 A 
ATOM     19  C   UNL     1      39.899  -0.259  20.795  0.00  0.00    +0.000 A 
ENDBRANCH  13  14
BRANCH  13  20
ATOM     20  C   UNL     1      42.409   0.656  18.925  0.00  0.00    +0.000 C 
BRANCH  20  21
ATOM     21  O   UNL     1      43.720   0.726  19.126  0.00  0.00    +0.000 OA
ATOM     22  H   UNL     1      43.915   0.821  20.075  0.00  0.00    +0.000 HD
ENDBRANCH  20  21
ENDBRANCH  13  20
ENDBRANCH   2  13
TORSDOF 6
ENDMDL
MODEL 9
REMARK VINA RESULT:      -4.7     20.146     20.998
REMARK  Name = Hyoscyamine.pdbqt.pdb
REMARK  6 active torsions:
REMARK  status: ('A' for Active; 'I' for Inactive)
REMARK    1  A    between atoms: C_2  and  O_3
REMARK    2  A    between atoms: C_2  and  C_13
REMARK    3  A    between atoms: O_3  and  C_4
REMARK    4  A    between atoms: C_13  and  C_14
REMARK    5  A    between atoms: C_13  and  C_20
REMARK    6  A    between atoms: C_20  and  O_21
REMARK                            x       y       z     vdW  Elec       q    Type
REMARK                         _______ _______ _______ _____ _____    ______ ____
ROOT
ATOM      1  O   UNL     1      52.666  18.293  12.757  0.00  0.00    +0.000 OA
ATOM      2  C   UNL     1      52.515  17.166  12.302  0.00  0.00    +0.000 C 
ENDROOT
BRANCH   2   3
ATOM      3  O   UNL     1      52.606  16.793  10.992  0.00  0.00    +0.000 OA
BRANCH   3   4
ATOM      4  C   UNL     1      53.900  16.907  10.483  0.00  0.00    +0.000 C 
ATOM      5  C   UNL     1      54.131  17.417   9.143  0.00  0.00    +0.000 C 
ATOM      6  C   UNL     1      55.104  16.912   8.165  0.00  0.00    +0.000 C 
ATOM      7  N   UNL     1      55.020  15.386   8.307  0.00  0.00    +0.000 NA
ATOM      8  C   UNL     1      56.478  17.227   8.514  0.00  0.00    +0.000 C 
ATOM      9  C   UNL     1      55.767  15.283   9.646  0.00  0.00    +0.000 C 
ATOM     10  C   UNL     1      55.753  14.705   7.230  0.00  0.00    +0.000 C 
ATOM     11  C   UNL     1      56.930  16.146   9.497  0.00  0.00    +0.000 C 
ATOM     12  C   UNL     1      54.800  15.782  10.637  0.00  0.00    +0.000 C 
ENDBRANCH   3   4
ENDBRANCH   2   3
BRANCH   2  13
ATOM     13  C   UNL     1      52.154  15.991  13.151  0.00  0.00    +0.000 C 
BRANCH  13  14
ATOM     14  C   UNL     1      53.130  15.221  13.943  0.00  0.00    +0.000 A 
ATOM     15  C   UNL     1      53.430  13.898  13.602  0.00  0.00    +0.000 A 
ATOM     16  C   UNL     1      54.324  13.146  14.363  0.00  0.00    +0.000 A 
ATOM     17  C   UNL     1      54.924  13.708  15.485  0.00  0.00    +0.000 A 
ATOM     18  C   UNL     1      54.629  15.019  15.844  0.00  0.00    +0.000 A 
ATOM     19  C   UNL     1      53.734  15.766  15.079  0.00  0.00    +0.000 A 
ENDBRANCH  13  14
BRANCH  13  20
ATOM     20  C   UNL     1      50.765  15.657  13.233  0.00  0.00    +0.000 C 
BRANCH  20  21
ATOM     21  O   UNL     1      49.475  15.345  13.310  0.00  0.00    +0.000 OA
ATOM     22  H   UNL     1      49.350  14.384  13.217  0.00  0.00    +0.000 HD
ENDBRANCH  20  21
ENDBRANCH  13  20
ENDBRANCH   2  13
TORSDOF 6
ENDMDL
