MODEL 1
REMARK VINA RESULT:      -6.9      0.000      0.000
REMARK  Name = 
REMARK  21 active torsions:
REMARK  status: ('A' for Active; 'I' for Inactive)
REMARK    1  A    between atoms: O_3  and  C_22
REMARK    2  A    between atoms: O_3  and  C_28
REMARK    3  A    between atoms: O_4  and  C_25
REMARK    4  A    between atoms: O_4  and  C_30
REMARK    5  A    between atoms: O_5  and  C_16
REMARK    6  A    between atoms: O_6  and  C_17
REMARK    7  A    between atoms: O_7  and  C_18
REMARK    8  A    between atoms: O_8  and  C_20
REMARK    9  A    between atoms: O_9  and  C_21
REMARK   10  A    between atoms: O_10  and  C_23
REMARK   11  A    between atoms: O_11  and  C_26
REMARK   12  A    between atoms: O_13  and  C_36
REMARK   13  A    between atoms: O_15  and  C_45
REMARK   14  A    between atoms: O_15  and  C_48
REMARK   15  A    between atoms: C_19  and  C_26
REMARK   16  A    between atoms: C_24  and  C_27
REMARK   17  A    between atoms: C_29  and  C_37
REMARK   18  A    between atoms: C_35  and  C_38
REMARK   19  A    between atoms: C_37  and  C_39
REMARK   20  A    between atoms: C_42  and  C_46
REMARK   21  A    between atoms: C_42  and  C_47
REMARK                            x       y       z     vdW  Elec       q    Type
REMARK                         _______ _______ _______ _____ _____    ______ ____
ROOT
ATOM      1  O   UNL     1      51.224   1.109   8.667  0.00  0.00    +0.000 OA
ATOM      2  O   UNL     1      52.131   3.587   5.582  0.00  0.00    +0.000 OA
ATOM      3  C   UNL     1      51.087   4.314  10.426  0.00  0.00    +0.000 A 
ATOM      4  C   UNL     1      51.026   2.929  10.186  0.00  0.00    +0.000 A 
ATOM      5  C   UNL     1      51.817   1.354   6.336  0.00  0.00    +0.000 A 
ATOM      6  C   UNL     1      51.289   2.464   8.882  0.00  0.00    +0.000 A 
ATOM      7  C   UNL     1      51.592   3.359   7.855  0.00  0.00    +0.000 A 
ATOM      8  C   UNL     1      51.870   2.828   6.514  0.00  0.00    +0.000 A 
ATOM      9  C   UNL     1      51.351   5.212   9.387  0.00  0.00    +0.000 A 
ATOM     10  C   UNL     1      51.533   0.606   7.417  0.00  0.00    +0.000 A 
ATOM     11  C   UNL     1      51.617   4.732   8.110  0.00  0.00    +0.000 A 
ENDROOT
BRANCH  10  12
ATOM     12  C   UNL     1      51.477  -0.862   7.361  0.00  0.00    +0.000 A 
ATOM     13  C   UNL     1      52.659  -1.603   7.249  0.00  0.00    +0.000 A 
ATOM     14  C   UNL     1      50.254  -1.543   7.405  0.00  0.00    +0.000 A 
ATOM     15  C   UNL     1      52.614  -2.998   7.199  0.00  0.00    +0.000 A 
ATOM     16  C   UNL     1      50.212  -2.942   7.358  0.00  0.00    +0.000 A 
ATOM     17  C   UNL     1      51.394  -3.675   7.260  0.00  0.00    +0.000 A 
BRANCH  17  18
ATOM     18  O   UNL     1      51.494  -5.038   7.209  0.00  0.00    +0.000 OA
ATOM     19  C   UNL     1      50.285  -5.762   7.017  0.00  0.00    +0.000 C 
ENDBRANCH  17  18
ENDBRANCH  10  12
BRANCH  11  20
ATOM     20  O   UNL     1      51.885   5.670   7.150  0.00  0.00    +0.000 OA
ATOM     21  H   UNL     1      52.335   6.431   7.579  0.00  0.00    +0.000 HD
ENDBRANCH  11  20
BRANCH   4  22
ATOM     22  C   UNL     1      50.727   1.947  11.302  0.00  0.00    +0.000 C 
BRANCH  22  23
ATOM     23  C   UNL     1      51.960   1.223  11.775  0.00  0.00    +0.000 C 
ATOM     24  C   UNL     1      52.340   0.942  13.038  0.00  0.00    +0.000 C 
ATOM     25  C   UNL     1      51.578   1.303  14.282  0.00  0.00    +0.000 C 
ATOM     26  C   UNL     1      53.624   0.198  13.298  0.00  0.00    +0.000 C 
ENDBRANCH  22  23
ENDBRANCH   4  22
BRANCH   5  27
ATOM     27  O   UNL     1      52.134   0.809   5.106  0.00  0.00    +0.000 OA
BRANCH  27  33
ATOM     28  O   UNL     1      50.258  -0.272   4.143  0.00  0.00    +0.000 OA
ATOM     29  C   UNL     1      52.394   0.008   2.226  0.00  0.00    +0.000 C 
ATOM     30  C   UNL     1      51.513  -1.246   2.278  0.00  0.00    +0.000 C 
ATOM     31  C   UNL     1      51.650   1.228   2.768  0.00  0.00    +0.000 C 
ATOM     32  C   UNL     1      50.966  -1.437   3.698  0.00  0.00    +0.000 C 
ATOM     33  C   UNL     1      51.062   0.917   4.161  0.00  0.00    +0.000 C 
ATOM     34  C   UNL     1      49.999  -2.614   3.770  0.00  0.00    +0.000 C 
BRANCH  29  35
ATOM     35  O   UNL     1      52.782   0.232   0.857  0.00  0.00    +0.000 OA
ATOM     36  H   UNL     1      53.373   1.014   0.889  0.00  0.00    +0.000 HD
ENDBRANCH  29  35
BRANCH  30  37
ATOM     37  O   UNL     1      52.293  -2.376   1.866  0.00  0.00    +0.000 OA
ATOM     38  H   UNL     1      52.054  -2.524   0.928  0.00  0.00    +0.000 HD
ENDBRANCH  30  37
BRANCH  31  39
ATOM     39  O   UNL     1      50.629   1.576   1.809  0.00  0.00    +0.000 OA
ATOM     40  H   UNL     1      50.908   1.215   0.948  0.00  0.00    +0.000 HD
ENDBRANCH  31  39
ENDBRANCH  27  33
ENDBRANCH   5  27
BRANCH   3  41
ATOM     41  O   UNL     1      50.783   4.791  11.675  0.00  0.00    +0.000 OA
BRANCH  41  47
ATOM     42  O   UNL     1      52.454   4.630  13.342  0.00  0.00    +0.000 OA
ATOM     43  C   UNL     1      52.467   7.467  13.673  0.00  0.00    +0.000 C 
ATOM     44  C   UNL     1      53.124   6.535  14.693  0.00  0.00    +0.000 C 
ATOM     45  C   UNL     1      51.356   6.749  12.910  0.00  0.00    +0.000 C 
ATOM     46  C   UNL     1      53.580   5.248  13.991  0.00  0.00    +0.000 C 
ATOM     47  C   UNL     1      51.905   5.443  12.306  0.00  0.00    +0.000 C 
BRANCH  44  48
ATOM     48  O   UNL     1      54.223   7.212  15.306  0.00  0.00    +0.000 OA
ATOM     49  H   UNL     1      55.024   6.779  14.945  0.00  0.00    +0.000 HD
ENDBRANCH  44  48
BRANCH  45  50
ATOM     50  O   UNL     1      50.847   7.638  11.902  0.00  0.00    +0.000 OA
ATOM     51  H   UNL     1      49.982   7.270  11.632  0.00  0.00    +0.000 HD
ENDBRANCH  45  50
BRANCH  43  52
ATOM     52  O   UNL     1      51.940   8.614  14.360  0.00  0.00    +0.000 OA
ATOM     53  H   UNL     1      51.739   9.263  13.656  0.00  0.00    +0.000 HD
ENDBRANCH  43  52
BRANCH  46  54
ATOM     54  C   UNL     1      54.171   4.248  14.994  0.00  0.00    +0.000 C 
BRANCH  54  55
ATOM     55  O   UNL     1      53.834   4.645  16.326  0.00  0.00    +0.000 OA
ATOM     56  H   UNL     1      54.273   4.019  16.926  0.00  0.00    +0.000 HD
ENDBRANCH  54  55
ENDBRANCH  46  54
ENDBRANCH  41  47
ENDBRANCH   3  41
TORSDOF 17
ENDMDL
MODEL 2
REMARK VINA RESULT:      -6.7     13.573     15.844
REMARK  Name = 
REMARK  21 active torsions:
REMARK  status: ('A' for Active; 'I' for Inactive)
REMARK    1  A    between atoms: O_3  and  C_22
REMARK    2  A    between atoms: O_3  and  C_28
REMARK    3  A    between atoms: O_4  and  C_25
REMARK    4  A    between atoms: O_4  and  C_30
REMARK    5  A    between atoms: O_5  and  C_16
REMARK    6  A    between atoms: O_6  and  C_17
REMARK    7  A    between atoms: O_7  and  C_18
REMARK    8  A    between atoms: O_8  and  C_20
REMARK    9  A    between atoms: O_9  and  C_21
REMARK   10  A    between atoms: O_10  and  C_23
REMARK   11  A    between atoms: O_11  and  C_26
REMARK   12  A    between atoms: O_13  and  C_36
REMARK   13  A    between atoms: O_15  and  C_45
REMARK   14  A    between atoms: O_15  and  C_48
REMARK   15  A    between atoms: C_19  and  C_26
REMARK   16  A    between atoms: C_24  and  C_27
REMARK   17  A    between atoms: C_29  and  C_37
REMARK   18  A    between atoms: C_35  and  C_38
REMARK   19  A    between atoms: C_37  and  C_39
REMARK   20  A    between atoms: C_42  and  C_46
REMARK   21  A    between atoms: C_42  and  C_47
REMARK                            x       y       z     vdW  Elec       q    Type
REMARK                         _______ _______ _______ _____ _____    ______ ____
ROOT
ATOM      1  O   UNL     1      40.894   0.613  19.060  0.00  0.00    +0.000 OA
ATOM      2  O   UNL     1      40.048   3.041  15.918  0.00  0.00    +0.000 OA
ATOM      3  C   UNL     1      39.618   3.516  20.885  0.00  0.00    +0.000 A 
ATOM      4  C   UNL     1      40.152   2.239  20.630  0.00  0.00    +0.000 A 
ATOM      5  C   UNL     1      40.911   0.956  16.667  0.00  0.00    +0.000 A 
ATOM      6  C   UNL     1      40.373   1.864  19.289  0.00  0.00    +0.000 A 
ATOM      7  C   UNL     1      40.062   2.734  18.245  0.00  0.00    +0.000 A 
ATOM      8  C   UNL     1      40.320   2.304  16.864  0.00  0.00    +0.000 A 
ATOM      9  C   UNL     1      39.268   4.371  19.836  0.00  0.00    +0.000 A 
ATOM     10  C   UNL     1      41.182   0.227  17.764  0.00  0.00    +0.000 A 
ATOM     11  C   UNL     1      39.504   3.985  18.522  0.00  0.00    +0.000 A 
ENDROOT
BRANCH  10  12
ATOM     12  C   UNL     1      41.788  -1.111  17.687  0.00  0.00    +0.000 A 
ATOM     13  C   UNL     1      41.055  -2.233  18.089  0.00  0.00    +0.000 A 
ATOM     14  C   UNL     1      43.099  -1.288  17.226  0.00  0.00    +0.000 A 
ATOM     15  C   UNL     1      41.622  -3.507  18.015  0.00  0.00    +0.000 A 
ATOM     16  C   UNL     1      43.663  -2.566  17.150  0.00  0.00    +0.000 A 
ATOM     17  C   UNL     1      42.923  -3.683  17.539  0.00  0.00    +0.000 A 
BRANCH  17  18
ATOM     18  O   UNL     1      43.352  -4.981  17.512  0.00  0.00    +0.000 OA
ATOM     19  C   UNL     1      43.081  -5.722  16.329  0.00  0.00    +0.000 C 
ENDBRANCH  17  18
ENDBRANCH  10  12
BRANCH  11  20
ATOM     20  O   UNL     1      39.153   4.882  17.550  0.00  0.00    +0.000 OA
ATOM     21  H   UNL     1      38.462   4.471  16.984  0.00  0.00    +0.000 HD
ENDBRANCH  11  20
BRANCH   4  22
ATOM     22  C   UNL     1      40.521   1.297  21.759  0.00  0.00    +0.000 C 
BRANCH  22  23
ATOM     23  C   UNL     1      41.677   1.808  22.578  0.00  0.00    +0.000 C 
ATOM     24  C   UNL     1      42.993   1.782  22.287  0.00  0.00    +0.000 C 
ATOM     25  C   UNL     1      43.601   1.218  21.033  0.00  0.00    +0.000 C 
ATOM     26  C   UNL     1      43.997   2.355  23.253  0.00  0.00    +0.000 C 
ENDBRANCH  22  23
ENDBRANCH   4  22
BRANCH   5  27
ATOM     27  O   UNL     1      41.229   0.537  15.388  0.00  0.00    +0.000 OA
BRANCH  27  33
ATOM     28  O   UNL     1      39.856  -1.309  14.824  0.00  0.00    +0.000 OA
ATOM     29  C   UNL     1      41.368  -0.402  12.542  0.00  0.00    +0.000 C 
ATOM     30  C   UNL     1      41.110  -1.892  12.800  0.00  0.00    +0.000 C 
ATOM     31  C   UNL     1      40.271   0.464  13.163  0.00  0.00    +0.000 C 
ATOM     32  C   UNL     1      40.911  -2.130  14.302  0.00  0.00    +0.000 C 
ATOM     33  C   UNL     1      40.082   0.097  14.650  0.00  0.00    +0.000 C 
ATOM     34  C   UNL     1      40.547  -3.582  14.595  0.00  0.00    +0.000 C 
BRANCH  29  35
ATOM     35  O   UNL     1      41.418  -0.192  11.118  0.00  0.00    +0.000 OA
ATOM     36  H   UNL     1      42.029   0.565  10.997  0.00  0.00    +0.000 HD
ENDBRANCH  29  35
BRANCH  30  37
ATOM     37  O   UNL     1      42.219  -2.646  12.298  0.00  0.00    +0.000 OA
ATOM     38  H   UNL     1      42.964  -2.436  12.897  0.00  0.00    +0.000 HD
ENDBRANCH  30  37
BRANCH  31  39
ATOM     39  O   UNL     1      39.068   0.260  12.392  0.00  0.00    +0.000 OA
ATOM     40  H   UNL     1      39.338   0.143  11.463  0.00  0.00    +0.000 HD
ENDBRANCH  31  39
ENDBRANCH  27  33
ENDBRANCH   5  27
BRANCH   3  41
ATOM     41  O   UNL     1      39.345   3.881  22.179  0.00  0.00    +0.000 OA
BRANCH  41  47
ATOM     42  O   UNL     1      37.623   5.425  22.676  0.00  0.00    +0.000 OA
ATOM     43  C   UNL     1      36.131   3.401  24.031  0.00  0.00    +0.000 C 
ATOM     44  C   UNL     1      35.794   4.887  24.182  0.00  0.00    +0.000 C 
ATOM     45  C   UNL     1      37.599   3.207  23.657  0.00  0.00    +0.000 C 
ATOM     46  C   UNL     1      36.220   5.639  22.913  0.00  0.00    +0.000 C 
ATOM     47  C   UNL     1      37.933   4.057  22.416  0.00  0.00    +0.000 C 
BRANCH  44  48
ATOM     48  O   UNL     1      34.393   5.026  24.426  0.00  0.00    +0.000 OA
ATOM     49  H   UNL     1      34.324   5.331  25.354  0.00  0.00    +0.000 HD
ENDBRANCH  44  48
BRANCH  45  50
ATOM     50  O   UNL     1      37.831   1.807  23.430  0.00  0.00    +0.000 OA
ATOM     51  H   UNL     1      37.896   1.700  22.461  0.00  0.00    +0.000 HD
ENDBRANCH  45  50
BRANCH  43  52
ATOM     52  O   UNL     1      35.838   2.729  25.267  0.00  0.00    +0.000 OA
ATOM     53  H   UNL     1      36.455   1.969  25.296  0.00  0.00    +0.000 HD
ENDBRANCH  43  52
BRANCH  46  54
ATOM     54  C   UNL     1      35.976   7.147  23.055  0.00  0.00    +0.000 C 
BRANCH  54  55
ATOM     55  O   UNL     1      36.138   7.785  21.786  0.00  0.00    +0.000 OA
ATOM     56  H   UNL     1      35.764   7.184  21.119  0.00  0.00    +0.000 HD
ENDBRANCH  54  55
ENDBRANCH  46  54
ENDBRANCH  41  47
ENDBRANCH   3  41
TORSDOF 17
ENDMDL
MODEL 3
REMARK VINA RESULT:      -6.6     11.334     16.509
REMARK  Name = 
REMARK  21 active torsions:
REMARK  status: ('A' for Active; 'I' for Inactive)
REMARK    1  A    between atoms: O_3  and  C_22
REMARK    2  A    between atoms: O_3  and  C_28
REMARK    3  A    between atoms: O_4  and  C_25
REMARK    4  A    between atoms: O_4  and  C_30
REMARK    5  A    between atoms: O_5  and  C_16
REMARK    6  A    between atoms: O_6  and  C_17
REMARK    7  A    between atoms: O_7  and  C_18
REMARK    8  A    between atoms: O_8  and  C_20
REMARK    9  A    between atoms: O_9  and  C_21
REMARK   10  A    between atoms: O_10  and  C_23
REMARK   11  A    between atoms: O_11  and  C_26
REMARK   12  A    between atoms: O_13  and  C_36
REMARK   13  A    between atoms: O_15  and  C_45
REMARK   14  A    between atoms: O_15  and  C_48
REMARK   15  A    between atoms: C_19  and  C_26
REMARK   16  A    between atoms: C_24  and  C_27
REMARK   17  A    between atoms: C_29  and  C_37
REMARK   18  A    between atoms: C_35  and  C_38
REMARK   19  A    between atoms: C_37  and  C_39
REMARK   20  A    between atoms: C_42  and  C_46
REMARK   21  A    between atoms: C_42  and  C_47
REMARK                            x       y       z     vdW  Elec       q    Type
REMARK                         _______ _______ _______ _____ _____    ______ ____
ROOT
ATOM      1  O   UNL     1      41.989  -2.179  16.001  0.00  0.00    +0.000 OA
ATOM      2  O   UNL     1      45.190  -2.540  18.472  0.00  0.00    +0.000 OA
ATOM      3  C   UNL     1      43.673  -4.993  14.378  0.00  0.00    +0.000 A 
ATOM      4  C   UNL     1      42.722  -3.991  14.643  0.00  0.00    +0.000 A 
ATOM      5  C   UNL     1      43.199  -1.361  17.927  0.00  0.00    +0.000 A 
ATOM      6  C   UNL     1      42.929  -3.152  15.757  0.00  0.00    +0.000 A 
ATOM      7  C   UNL     1      44.044  -3.320  16.578  0.00  0.00    +0.000 A 
ATOM      8  C   UNL     1      44.225  -2.415  17.721  0.00  0.00    +0.000 A 
ATOM      9  C   UNL     1      44.768  -5.187  15.225  0.00  0.00    +0.000 A 
ATOM     10  C   UNL     1      42.184  -1.297  17.047  0.00  0.00    +0.000 A 
ATOM     11  C   UNL     1      44.959  -4.342  16.312  0.00  0.00    +0.000 A 
ENDROOT
BRANCH  10  12
ATOM     12  C   UNL     1      41.126  -0.280  17.143  0.00  0.00    +0.000 A 
ATOM     13  C   UNL     1      41.380   1.033  16.731  0.00  0.00    +0.000 A 
ATOM     14  C   UNL     1      39.860  -0.596  17.653  0.00  0.00    +0.000 A 
ATOM     15  C   UNL     1      40.379   2.003  16.814  0.00  0.00    +0.000 A 
ATOM     16  C   UNL     1      38.858   0.378  17.733  0.00  0.00    +0.000 A 
ATOM     17  C   UNL     1      39.113   1.682  17.308  0.00  0.00    +0.000 A 
BRANCH  17  18
ATOM     18  O   UNL     1      38.227   2.722  17.329  0.00  0.00    +0.000 OA
ATOM     19  C   UNL     1      38.777   4.033  17.361  0.00  0.00    +0.000 C 
ENDBRANCH  17  18
ENDBRANCH  10  12
BRANCH  11  20
ATOM     20  O   UNL     1      46.063  -4.581  17.084  0.00  0.00    +0.000 OA
ATOM     21  H   UNL     1      46.373  -3.724  17.454  0.00  0.00    +0.000 HD
ENDBRANCH  11  20
BRANCH   4  22
ATOM     22  C   UNL     1      41.522  -3.781  13.740  0.00  0.00    +0.000 C 
BRANCH  22  23
ATOM     23  C   UNL     1      41.833  -2.883  12.572  0.00  0.00    +0.000 C 
ATOM     24  C   UNL     1      41.447  -1.609  12.361  0.00  0.00    +0.000 C 
ATOM     25  C   UNL     1      40.596  -0.787  13.289  0.00  0.00    +0.000 C 
ATOM     26  C   UNL     1      41.874  -0.881  11.113  0.00  0.00    +0.000 C 
ENDBRANCH  22  23
ENDBRANCH   4  22
BRANCH   5  27
ATOM     27  O   UNL     1      43.363  -0.448  18.953  0.00  0.00    +0.000 OA
BRANCH  27  33
ATOM     28  O   UNL     1      41.554  -0.025  20.424  0.00  0.00    +0.000 OA
ATOM     29  C   UNL     1      44.074   0.641  21.657  0.00  0.00    +0.000 C 
ATOM     30  C   UNL     1      42.817   1.490  21.878  0.00  0.00    +0.000 C 
ATOM     31  C   UNL     1      43.711  -0.807  21.325  0.00  0.00    +0.000 C 
ATOM     32  C   UNL     1      41.879   1.349  20.672  0.00  0.00    +0.000 C 
ATOM     33  C   UNL     1      42.700  -0.847  20.159  0.00  0.00    +0.000 C 
ATOM     34  C   UNL     1      40.566   2.095  20.896  0.00  0.00    +0.000 C 
BRANCH  29  35
ATOM     35  O   UNL     1      44.869   0.689  22.857  0.00  0.00    +0.000 OA
ATOM     36  H   UNL     1      45.195   1.613  22.905  0.00  0.00    +0.000 HD
ENDBRANCH  29  35
BRANCH  30  37
ATOM     37  O   UNL     1      43.209   2.854  22.073  0.00  0.00    +0.000 OA
ATOM     38  H   UNL     1      43.723   3.090  21.274  0.00  0.00    +0.000 HD
ENDBRANCH  30  37
BRANCH  31  39
ATOM     39  O   UNL     1      43.186  -1.410  22.526  0.00  0.00    +0.000 OA
ATOM     40  H   UNL     1      42.322  -0.994  22.702  0.00  0.00    +0.000 HD
ENDBRANCH  31  39
ENDBRANCH  27  33
ENDBRANCH   5  27
BRANCH   3  41
ATOM     41  O   UNL     1      43.463  -5.854  13.331  0.00  0.00    +0.000 OA
BRANCH  41  47
ATOM     42  O   UNL     1      45.256  -7.155  12.498  0.00  0.00    +0.000 OA
ATOM     43  C   UNL     1      43.933  -9.564  13.274  0.00  0.00    +0.000 C 
ATOM     44  C   UNL     1      45.126  -9.573  12.315  0.00  0.00    +0.000 C 
ATOM     45  C   UNL     1      43.204  -8.222  13.229  0.00  0.00    +0.000 C 
ATOM     46  C   UNL     1      46.026  -8.364  12.607  0.00  0.00    +0.000 C 
ATOM     47  C   UNL     1      44.211  -7.081  13.467  0.00  0.00    +0.000 C 
BRANCH  44  48
ATOM     48  O   UNL     1      45.838 -10.803  12.467  0.00  0.00    +0.000 OA
ATOM     49  H   UNL     1      46.566 -10.760  11.813  0.00  0.00    +0.000 HD
ENDBRANCH  44  48
BRANCH  45  50
ATOM     50  O   UNL     1      42.162  -8.237  14.218  0.00  0.00    +0.000 OA
ATOM     51  H   UNL     1      41.463  -7.643  13.879  0.00  0.00    +0.000 HD
ENDBRANCH  45  50
BRANCH  43  52
ATOM     52  O   UNL     1      43.038 -10.630  12.915  0.00  0.00    +0.000 OA
ATOM     53  H   UNL     1      42.175 -10.380  13.303  0.00  0.00    +0.000 HD
ENDBRANCH  43  52
BRANCH  46  54
ATOM     54  C   UNL     1      47.192  -8.289  11.613  0.00  0.00    +0.000 C 
BRANCH  54  55
ATOM     55  O   UNL     1      46.751  -8.707  10.318  0.00  0.00    +0.000 OA
ATOM     56  H   UNL     1      45.780  -8.710  10.339  0.00  0.00    +0.000 HD
ENDBRANCH  54  55
ENDBRANCH  46  54
ENDBRANCH  41  47
ENDBRANCH   3  41
TORSDOF 17
ENDMDL
MODEL 4
REMARK VINA RESULT:      -6.6     12.209     14.748
REMARK  Name = 
REMARK  21 active torsions:
REMARK  status: ('A' for Active; 'I' for Inactive)
REMARK    1  A    between atoms: O_3  and  C_22
REMARK    2  A    between atoms: O_3  and  C_28
REMARK    3  A    between atoms: O_4  and  C_25
REMARK    4  A    between atoms: O_4  and  C_30
REMARK    5  A    between atoms: O_5  and  C_16
REMARK    6  A    between atoms: O_6  and  C_17
REMARK    7  A    between atoms: O_7  and  C_18
REMARK    8  A    between atoms: O_8  and  C_20
REMARK    9  A    between atoms: O_9  and  C_21
REMARK   10  A    between atoms: O_10  and  C_23
REMARK   11  A    between atoms: O_11  and  C_26
REMARK   12  A    between atoms: O_13  and  C_36
REMARK   13  A    between atoms: O_15  and  C_45
REMARK   14  A    between atoms: O_15  and  C_48
REMARK   15  A    between atoms: C_19  and  C_26
REMARK   16  A    between atoms: C_24  and  C_27
REMARK   17  A    between atoms: C_29  and  C_37
REMARK   18  A    between atoms: C_35  and  C_38
REMARK   19  A    between atoms: C_37  and  C_39
REMARK   20  A    between atoms: C_42  and  C_46
REMARK   21  A    between atoms: C_42  and  C_47
REMARK                            x       y       z     vdW  Elec       q    Type
REMARK                         _______ _______ _______ _____ _____    ______ ____
ROOT
ATOM      1  O   UNL     1      43.493  -2.646  18.154  0.00  0.00    +0.000 OA
ATOM      2  O   UNL     1      42.943   1.023  19.804  0.00  0.00    +0.000 OA
ATOM      3  C   UNL     1      45.313  -3.131  21.290  0.00  0.00    +0.000 A 
ATOM      4  C   UNL     1      44.755  -3.396  20.027  0.00  0.00    +0.000 A 
ATOM      5  C   UNL     1      42.578  -0.417  17.948  0.00  0.00    +0.000 A 
ATOM      6  C   UNL     1      44.032  -2.368  19.387  0.00  0.00    +0.000 A 
ATOM      7  C   UNL     1      43.868  -1.125  19.999  0.00  0.00    +0.000 A 
ATOM      8  C   UNL     1      43.116  -0.081  19.290  0.00  0.00    +0.000 A 
ATOM      9  C   UNL     1      45.114  -1.899  21.920  0.00  0.00    +0.000 A 
ATOM     10  C   UNL     1      42.828  -1.648  17.466  0.00  0.00    +0.000 A 
ATOM     11  C   UNL     1      44.405  -0.896  21.268  0.00  0.00    +0.000 A 
ENDROOT
BRANCH  10  12
ATOM     12  C   UNL     1      42.362  -2.080  16.140  0.00  0.00    +0.000 A 
ATOM     13  C   UNL     1      42.983  -1.587  14.987  0.00  0.00    +0.000 A 
ATOM     14  C   UNL     1      41.292  -2.973  16.002  0.00  0.00    +0.000 A 
ATOM     15  C   UNL     1      42.550  -1.995  13.724  0.00  0.00    +0.000 A 
ATOM     16  C   UNL     1      40.862  -3.384  14.735  0.00  0.00    +0.000 A 
ATOM     17  C   UNL     1      41.494  -2.900  13.589  0.00  0.00    +0.000 A 
BRANCH  17  18
ATOM     18  O   UNL     1      41.176  -3.220  12.299  0.00  0.00    +0.000 OA
ATOM     19  C   UNL     1      40.783  -2.148  11.450  0.00  0.00    +0.000 C 
ENDBRANCH  17  18
ENDBRANCH  10  12
BRANCH  11  20
ATOM     20  O   UNL     1      44.268   0.289  21.939  0.00  0.00    +0.000 OA
ATOM     21  H   UNL     1      43.415   0.698  21.671  0.00  0.00    +0.000 HD
ENDBRANCH  11  20
BRANCH   4  22
ATOM     22  C   UNL     1      44.952  -4.733  19.340  0.00  0.00    +0.000 C 
BRANCH  22  23
ATOM     23  C   UNL     1      45.313  -4.583  17.885  0.00  0.00    +0.000 C 
ATOM     24  C   UNL     1      44.686  -5.090  16.804  0.00  0.00    +0.000 C 
ATOM     25  C   UNL     1      43.445  -5.938  16.830  0.00  0.00    +0.000 C 
ATOM     26  C   UNL     1      45.215  -4.817  15.421  0.00  0.00    +0.000 C 
ENDBRANCH  22  23
ENDBRANCH   4  22
BRANCH   5  27
ATOM     27  O   UNL     1      41.919   0.556  17.219  0.00  0.00    +0.000 OA
BRANCH  27  33
ATOM     28  O   UNL     1      39.849  -0.035  16.231  0.00  0.00    +0.000 OA
ATOM     29  C   UNL     1      40.096   2.826  16.494  0.00  0.00    +0.000 C 
ATOM     30  C   UNL     1      39.436   2.180  15.269  0.00  0.00    +0.000 C 
ATOM     31  C   UNL     1      39.982   1.923  17.722  0.00  0.00    +0.000 C 
ATOM     32  C   UNL     1      40.005   0.772  15.056  0.00  0.00    +0.000 C 
ATOM     33  C   UNL     1      40.497   0.506  17.391  0.00  0.00    +0.000 C 
ATOM     34  C   UNL     1      39.301   0.052  13.910  0.00  0.00    +0.000 C 
BRANCH  29  35
ATOM     35  O   UNL     1      39.448   4.087  16.744  0.00  0.00    +0.000 OA
ATOM     36  H   UNL     1      38.635   4.064  16.198  0.00  0.00    +0.000 HD
ENDBRANCH  29  35
BRANCH  30  37
ATOM     37  O   UNL     1      39.669   3.012  14.126  0.00  0.00    +0.000 OA
ATOM     38  H   UNL     1      40.599   2.842  13.871  0.00  0.00    +0.000 HD
ENDBRANCH  30  37
BRANCH  31  39
ATOM     39  O   UNL     1      38.598   1.919  18.132  0.00  0.00    +0.000 OA
ATOM     40  H   UNL     1      38.115   1.345  17.509  0.00  0.00    +0.000 HD
ENDBRANCH  31  39
ENDBRANCH  27  33
ENDBRANCH   5  27
BRANCH   3  41
ATOM     41  O   UNL     1      45.975  -4.134  21.953  0.00  0.00    +0.000 OA
BRANCH  41  47
ATOM     42  O   UNL     1      47.836  -5.129  20.883  0.00  0.00    +0.000 OA
ATOM     43  C   UNL     1      49.560  -4.304  23.006  0.00  0.00    +0.000 C 
ATOM     44  C   UNL     1      49.993  -5.352  21.977  0.00  0.00    +0.000 C 
ATOM     45  C   UNL     1      48.039  -4.264  23.140  0.00  0.00    +0.000 C 
ATOM     46  C   UNL     1      49.256  -5.105  20.654  0.00  0.00    +0.000 C 
ATOM     47  C   UNL     1      47.402  -4.081  21.749  0.00  0.00    +0.000 C 
BRANCH  44  48
ATOM     48  O   UNL     1      51.410  -5.281  21.807  0.00  0.00    +0.000 OA
ATOM     49  H   UNL     1      51.618  -4.323  21.788  0.00  0.00    +0.000 HD
ENDBRANCH  44  48
BRANCH  45  50
ATOM     50  O   UNL     1      47.688  -3.198  24.038  0.00  0.00    +0.000 OA
ATOM     51  H   UNL     1      46.844  -3.465  24.453  0.00  0.00    +0.000 HD
ENDBRANCH  45  50
BRANCH  43  52
ATOM     52  O   UNL     1      50.164  -4.615  24.272  0.00  0.00    +0.000 OA
ATOM     53  H   UNL     1      49.420  -4.656  24.906  0.00  0.00    +0.000 HD
ENDBRANCH  43  52
BRANCH  46  54
ATOM     54  C   UNL     1      49.599  -6.184  19.619  0.00  0.00    +0.000 C 
BRANCH  54  55
ATOM     55  O   UNL     1      50.775  -5.806  18.898  0.00  0.00    +0.000 OA
ATOM     56  H   UNL     1      50.901  -6.467  18.197  0.00  0.00    +0.000 HD
ENDBRANCH  54  55
ENDBRANCH  46  54
ENDBRANCH  41  47
ENDBRANCH   3  41
TORSDOF 17
ENDMDL
MODEL 5
REMARK VINA RESULT:      -6.6     11.706     15.821
REMARK  Name = 
REMARK  21 active torsions:
REMARK  status: ('A' for Active; 'I' for Inactive)
REMARK    1  A    between atoms: O_3  and  C_22
REMARK    2  A    between atoms: O_3  and  C_28
REMARK    3  A    between atoms: O_4  and  C_25
REMARK    4  A    between atoms: O_4  and  C_30
REMARK    5  A    between atoms: O_5  and  C_16
REMARK    6  A    between atoms: O_6  and  C_17
REMARK    7  A    between atoms: O_7  and  C_18
REMARK    8  A    between atoms: O_8  and  C_20
REMARK    9  A    between atoms: O_9  and  C_21
REMARK   10  A    between atoms: O_10  and  C_23
REMARK   11  A    between atoms: O_11  and  C_26
REMARK   12  A    between atoms: O_13  and  C_36
REMARK   13  A    between atoms: O_15  and  C_45
REMARK   14  A    between atoms: O_15  and  C_48
REMARK   15  A    between atoms: C_19  and  C_26
REMARK   16  A    between atoms: C_24  and  C_27
REMARK   17  A    between atoms: C_29  and  C_37
REMARK   18  A    between atoms: C_35  and  C_38
REMARK   19  A    between atoms: C_37  and  C_39
REMARK   20  A    between atoms: C_42  and  C_46
REMARK   21  A    between atoms: C_42  and  C_47
REMARK                            x       y       z     vdW  Elec       q    Type
REMARK                         _______ _______ _______ _____ _____    ______ ____
ROOT
ATOM      1  O   UNL     1      43.586  -2.558  17.864  0.00  0.00    +0.000 OA
ATOM      2  O   UNL     1      42.595  -0.452  14.537  0.00  0.00    +0.000 OA
ATOM      3  C   UNL     1      44.595  -4.978  15.312  0.00  0.00    +0.000 A 
ATOM      4  C   UNL     1      44.368  -4.398  16.573  0.00  0.00    +0.000 A 
ATOM      5  C   UNL     1      42.641  -0.547  16.912  0.00  0.00    +0.000 A 
ATOM      6  C   UNL     1      43.800  -3.109  16.623  0.00  0.00    +0.000 A 
ATOM      7  C   UNL     1      43.481  -2.425  15.449  0.00  0.00    +0.000 A 
ATOM      8  C   UNL     1      42.880  -1.089  15.550  0.00  0.00    +0.000 A 
ATOM      9  C   UNL     1      44.313  -4.276  14.136  0.00  0.00    +0.000 A 
ATOM     10  C   UNL     1      42.977  -1.321  17.959  0.00  0.00    +0.000 A 
ATOM     11  C   UNL     1      43.744  -3.009  14.208  0.00  0.00    +0.000 A 
ENDROOT
BRANCH  10  12
ATOM     12  C   UNL     1      42.763  -0.895  19.350  0.00  0.00    +0.000 A 
ATOM     13  C   UNL     1      43.620   0.047  19.931  0.00  0.00    +0.000 A 
ATOM     14  C   UNL     1      41.719  -1.423  20.119  0.00  0.00    +0.000 A 
ATOM     15  C   UNL     1      43.422   0.461  21.250  0.00  0.00    +0.000 A 
ATOM     16  C   UNL     1      41.521  -1.005  21.440  0.00  0.00    +0.000 A 
ATOM     17  C   UNL     1      42.370  -0.055  22.009  0.00  0.00    +0.000 A 
BRANCH  17  18
ATOM     18  O   UNL     1      42.286   0.439  23.281  0.00  0.00    +0.000 OA
ATOM     19  C   UNL     1      41.038   0.999  23.671  0.00  0.00    +0.000 C 
ENDBRANCH  17  18
ENDBRANCH  10  12
BRANCH  11  20
ATOM     20  O   UNL     1      43.478  -2.392  13.016  0.00  0.00    +0.000 OA
ATOM     21  H   UNL     1      43.348  -1.433  13.187  0.00  0.00    +0.000 HD
ENDBRANCH  11  20
BRANCH   4  22
ATOM     22  C   UNL     1      44.684  -5.144  17.855  0.00  0.00    +0.000 C 
BRANCH  22  23
ATOM     23  C   UNL     1      46.048  -4.801  18.396  0.00  0.00    +0.000 C 
ATOM     24  C   UNL     1      46.838  -5.527  19.212  0.00  0.00    +0.000 C 
ATOM     25  C   UNL     1      46.510  -6.886  19.767  0.00  0.00    +0.000 C 
ATOM     26  C   UNL     1      48.181  -4.997  19.639  0.00  0.00    +0.000 C 
ENDBRANCH  22  23
ENDBRANCH   4  22
BRANCH   5  27
ATOM     27  O   UNL     1      42.019   0.680  17.053  0.00  0.00    +0.000 OA
BRANCH  27  33
ATOM     28  O   UNL     1      39.931  -0.009  16.171  0.00  0.00    +0.000 OA
ATOM     29  C   UNL     1      40.052   2.860  16.434  0.00  0.00    +0.000 C 
ATOM     30  C   UNL     1      39.361   2.186  15.242  0.00  0.00    +0.000 C 
ATOM     31  C   UNL     1      40.046   1.950  17.662  0.00  0.00    +0.000 C 
ATOM     32  C   UNL     1      39.986   0.807  14.993  0.00  0.00    +0.000 C 
ATOM     33  C   UNL     1      40.612   0.561  17.298  0.00  0.00    +0.000 C 
ATOM     34  C   UNL     1      39.259   0.056  13.882  0.00  0.00    +0.000 C 
BRANCH  29  35
ATOM     35  O   UNL     1      39.357   4.088  16.724  0.00  0.00    +0.000 OA
ATOM     36  H   UNL     1      39.817   4.768  16.188  0.00  0.00    +0.000 HD
ENDBRANCH  29  35
BRANCH  30  37
ATOM     37  O   UNL     1      39.494   3.030  14.093  0.00  0.00    +0.000 OA
ATOM     38  H   UNL     1      38.858   3.760  14.237  0.00  0.00    +0.000 HD
ENDBRANCH  30  37
BRANCH  31  39
ATOM     39  O   UNL     1      38.687   1.878  18.143  0.00  0.00    +0.000 OA
ATOM     40  H   UNL     1      38.696   2.165  19.075  0.00  0.00    +0.000 HD
ENDBRANCH  31  39
ENDBRANCH  27  33
ENDBRANCH   5  27
BRANCH   3  41
ATOM     41  O   UNL     1      45.196  -6.209  15.240  0.00  0.00    +0.000 OA
BRANCH  41  47
ATOM     42  O   UNL     1      43.694  -7.950  14.683  0.00  0.00    +0.000 OA
ATOM     43  C   UNL     1      45.354  -8.752  12.502  0.00  0.00    +0.000 C 
ATOM     44  C   UNL     1      44.234  -9.650  13.034  0.00  0.00    +0.000 C 
ATOM     45  C   UNL     1      45.851  -7.796  13.584  0.00  0.00    +0.000 C 
ATOM     46  C   UNL     1      43.131  -8.779  13.651  0.00  0.00    +0.000 C 
ATOM     47  C   UNL     1      44.657  -7.025  14.179  0.00  0.00    +0.000 C 
BRANCH  44  48
ATOM     48  O   UNL     1      43.730 -10.451  11.964  0.00  0.00    +0.000 OA
ATOM     49  H   UNL     1      44.087 -10.042  11.148  0.00  0.00    +0.000 HD
ENDBRANCH  44  48
BRANCH  45  50
ATOM     50  O   UNL     1      46.825  -6.914  13.002  0.00  0.00    +0.000 OA
ATOM     51  H   UNL     1      46.451  -6.014  13.078  0.00  0.00    +0.000 HD
ENDBRANCH  45  50
BRANCH  43  52
ATOM     52  O   UNL     1      46.433  -9.579  12.035  0.00  0.00    +0.000 OA
ATOM     53  H   UNL     1      46.844  -9.943  12.845  0.00  0.00    +0.000 HD
ENDBRANCH  43  52
BRANCH  46  54
ATOM     54  C   UNL     1      42.025  -9.643  14.272  0.00  0.00    +0.000 C 
BRANCH  54  55
ATOM     55  O   UNL     1      41.095 -10.038  13.260  0.00  0.00    +0.000 OA
ATOM     56  H   UNL     1      40.209  -9.989  13.657  0.00  0.00    +0.000 HD
ENDBRANCH  54  55
ENDBRANCH  46  54
ENDBRANCH  41  47
ENDBRANCH   3  41
TORSDOF 17
ENDMDL
MODEL 6
REMARK VINA RESULT:      -6.6      4.632      7.422
REMARK  Name = 
REMARK  21 active torsions:
REMARK  status: ('A' for Active; 'I' for Inactive)
REMARK    1  A    between atoms: O_3  and  C_22
REMARK    2  A    between atoms: O_3  and  C_28
REMARK    3  A    between atoms: O_4  and  C_25
REMARK    4  A    between atoms: O_4  and  C_30
REMARK    5  A    between atoms: O_5  and  C_16
REMARK    6  A    between atoms: O_6  and  C_17
REMARK    7  A    between atoms: O_7  and  C_18
REMARK    8  A    between atoms: O_8  and  C_20
REMARK    9  A    between atoms: O_9  and  C_21
REMARK   10  A    between atoms: O_10  and  C_23
REMARK   11  A    between atoms: O_11  and  C_26
REMARK   12  A    between atoms: O_13  and  C_36
REMARK   13  A    between atoms: O_15  and  C_45
REMARK   14  A    between atoms: O_15  and  C_48
REMARK   15  A    between atoms: C_19  and  C_26
REMARK   16  A    between atoms: C_24  and  C_27
REMARK   17  A    between atoms: C_29  and  C_37
REMARK   18  A    between atoms: C_35  and  C_38
REMARK   19  A    between atoms: C_37  and  C_39
REMARK   20  A    between atoms: C_42  and  C_46
REMARK   21  A    between atoms: C_42  and  C_47
REMARK                            x       y       z     vdW  Elec       q    Type
REMARK                         _______ _______ _______ _____ _____    ______ ____
ROOT
ATOM      1  O   UNL     1      51.971   3.904   5.673  0.00  0.00    +0.000 OA
ATOM      2  O   UNL     1      53.459   2.003   2.409  0.00  0.00    +0.000 OA
ATOM      3  C   UNL     1      53.555   6.749   4.006  0.00  0.00    +0.000 A 
ATOM      4  C   UNL     1      52.839   6.000   4.957  0.00  0.00    +0.000 A 
ATOM      5  C   UNL     1      52.275   1.833   4.463  0.00  0.00    +0.000 A 
ATOM      6  C   UNL     1      52.674   4.618   4.733  0.00  0.00    +0.000 A 
ATOM      7  C   UNL     1      53.202   4.013   3.592  0.00  0.00    +0.000 A 
ATOM      8  C   UNL     1      53.017   2.568   3.407  0.00  0.00    +0.000 A 
ATOM      9  C   UNL     1      54.048   6.150   2.843  0.00  0.00    +0.000 A 
ATOM     10  C   UNL     1      51.838   2.536   5.523  0.00  0.00    +0.000 A 
ATOM     11  C   UNL     1      53.884   4.783   2.647  0.00  0.00    +0.000 A 
ENDROOT
BRANCH  10  12
ATOM     12  C   UNL     1      51.113   1.906   6.637  0.00  0.00    +0.000 A 
ATOM     13  C   UNL     1      49.713   1.892   6.639  0.00  0.00    +0.000 A 
ATOM     14  C   UNL     1      51.797   1.325   7.712  0.00  0.00    +0.000 A 
ATOM     15  C   UNL     1      49.017   1.292   7.691  0.00  0.00    +0.000 A 
ATOM     16  C   UNL     1      51.097   0.722   8.763  0.00  0.00    +0.000 A 
ATOM     17  C   UNL     1      49.702   0.698   8.754  0.00  0.00    +0.000 A 
BRANCH  17  18
ATOM     18  O   UNL     1      48.901   0.143   9.712  0.00  0.00    +0.000 OA
ATOM     19  C   UNL     1      49.022   0.662  11.030  0.00  0.00    +0.000 C 
ENDBRANCH  17  18
ENDBRANCH  10  12
BRANCH  11  20
ATOM     20  O   UNL     1      54.410   4.265   1.495  0.00  0.00    +0.000 OA
ATOM     21  H   UNL     1      55.205   4.791   1.254  0.00  0.00    +0.000 HD
ENDBRANCH  11  20
BRANCH   4  22
ATOM     22  C   UNL     1      52.286   6.642   6.214  0.00  0.00    +0.000 C 
BRANCH  22  23
ATOM     23  C   UNL     1      53.283   6.643   7.344  0.00  0.00    +0.000 C 
ATOM     24  C   UNL     1      53.256   5.937   8.492  0.00  0.00    +0.000 C 
ATOM     25  C   UNL     1      52.186   4.960   8.894  0.00  0.00    +0.000 C 
ATOM     26  C   UNL     1      54.366   6.083   9.500  0.00  0.00    +0.000 C 
ENDBRANCH  22  23
ENDBRANCH   4  22
BRANCH   5  27
ATOM     27  O   UNL     1      52.133   0.461   4.360  0.00  0.00    +0.000 OA
BRANCH  27  33
ATOM     28  O   UNL     1      50.221  -0.888   4.736  0.00  0.00    +0.000 OA
ATOM     29  C   UNL     1      51.710  -1.809   2.445  0.00  0.00    +0.000 C 
ATOM     30  C   UNL     1      51.044  -2.786   3.422  0.00  0.00    +0.000 C 
ATOM     31  C   UNL     1      50.989  -0.462   2.433  0.00  0.00    +0.000 C 
ATOM     32  C   UNL     1      50.927  -2.135   4.805  0.00  0.00    +0.000 C 
ATOM     33  C   UNL     1      50.841   0.075   3.872  0.00  0.00    +0.000 C 
ATOM     34  C   UNL     1      50.174  -3.032   5.783  0.00  0.00    +0.000 C 
BRANCH  29  35
ATOM     35  O   UNL     1      51.685  -2.397   1.130  0.00  0.00    +0.000 OA
ATOM     36  H   UNL     1      52.628  -2.487   0.878  0.00  0.00    +0.000 HD
ENDBRANCH  29  35
BRANCH  30  37
ATOM     37  O   UNL     1      51.822  -3.987   3.478  0.00  0.00    +0.000 OA
ATOM     38  H   UNL     1      51.919  -4.273   2.547  0.00  0.00    +0.000 HD
ENDBRANCH  30  37
BRANCH  31  39
ATOM     39  O   UNL     1      49.712  -0.658   1.789  0.00  0.00    +0.000 OA
ATOM     40  H   UNL     1      49.113  -1.049   2.451  0.00  0.00    +0.000 HD
ENDBRANCH  31  39
ENDBRANCH  27  33
ENDBRANCH   5  27
BRANCH   3  41
ATOM     41  O   UNL     1      53.681   8.104   4.177  0.00  0.00    +0.000 OA
BRANCH  41  47
ATOM     42  O   UNL     1      55.745   9.204   3.815  0.00  0.00    +0.000 OA
ATOM     43  C   UNL     1      54.656  10.621   1.587  0.00  0.00    +0.000 C 
ATOM     44  C   UNL     1      55.978  11.036   2.238  0.00  0.00    +0.000 C 
ATOM     45  C   UNL     1      53.768   9.873   2.580  0.00  0.00    +0.000 C 
ATOM     46  C   UNL     1      56.645   9.806   2.870  0.00  0.00    +0.000 C 
ATOM     47  C   UNL     1      54.557   8.705   3.201  0.00  0.00    +0.000 C 
BRANCH  44  48
ATOM     48  O   UNL     1      56.817  11.636   1.249  0.00  0.00    +0.000 OA
ATOM     49  H   UNL     1      56.203  12.067   0.620  0.00  0.00    +0.000 HD
ENDBRANCH  44  48
BRANCH  45  50
ATOM     50  O   UNL     1      52.591   9.422   1.888  0.00  0.00    +0.000 OA
ATOM     51  H   UNL     1      52.251   8.664   2.405  0.00  0.00    +0.000 HD
ENDBRANCH  45  50
BRANCH  43  52
ATOM     52  O   UNL     1      53.984  11.796   1.105  0.00  0.00    +0.000 OA
ATOM     53  H   UNL     1      54.138  12.477   1.790  0.00  0.00    +0.000 HD
ENDBRANCH  43  52
BRANCH  46  54
ATOM     54  C   UNL     1      57.935  10.193   3.606  0.00  0.00    +0.000 C 
BRANCH  54  55
ATOM     55  O   UNL     1      57.880  11.570   3.986  0.00  0.00    +0.000 OA
ATOM     56  H   UNL     1      57.107  11.672   4.567  0.00  0.00    +0.000 HD
ENDBRANCH  54  55
ENDBRANCH  46  54
ENDBRANCH  41  47
ENDBRANCH   3  41
TORSDOF 17
ENDMDL
MODEL 7
REMARK VINA RESULT:      -6.5     11.579     13.657
REMARK  Name = 
REMARK  21 active torsions:
REMARK  status: ('A' for Active; 'I' for Inactive)
REMARK    1  A    between atoms: O_3  and  C_22
REMARK    2  A    between atoms: O_3  and  C_28
REMARK    3  A    between atoms: O_4  and  C_25
REMARK    4  A    between atoms: O_4  and  C_30
REMARK    5  A    between atoms: O_5  and  C_16
REMARK    6  A    between atoms: O_6  and  C_17
REMARK    7  A    between atoms: O_7  and  C_18
REMARK    8  A    between atoms: O_8  and  C_20
REMARK    9  A    between atoms: O_9  and  C_21
REMARK   10  A    between atoms: O_10  and  C_23
REMARK   11  A    between atoms: O_11  and  C_26
REMARK   12  A    between atoms: O_13  and  C_36
REMARK   13  A    between atoms: O_15  and  C_45
REMARK   14  A    between atoms: O_15  and  C_48
REMARK   15  A    between atoms: C_19  and  C_26
REMARK   16  A    between atoms: C_24  and  C_27
REMARK   17  A    between atoms: C_29  and  C_37
REMARK   18  A    between atoms: C_35  and  C_38
REMARK   19  A    between atoms: C_37  and  C_39
REMARK   20  A    between atoms: C_42  and  C_46
REMARK   21  A    between atoms: C_42  and  C_47
REMARK                            x       y       z     vdW  Elec       q    Type
REMARK                         _______ _______ _______ _____ _____    ______ ____
ROOT
ATOM      1  O   UNL     1      43.927  -3.065  18.481  0.00  0.00    +0.000 OA
ATOM      2  O   UNL     1      42.449   0.623  17.646  0.00  0.00    +0.000 OA
ATOM      3  C   UNL     1      44.206  -1.553  21.801  0.00  0.00    +0.000 A 
ATOM      4  C   UNL     1      44.282  -2.501  20.765  0.00  0.00    +0.000 A 
ATOM      5  C   UNL     1      43.043  -1.532  16.834  0.00  0.00    +0.000 A 
ATOM      6  C   UNL     1      43.845  -2.124  19.479  0.00  0.00    +0.000 A 
ATOM      7  C   UNL     1      43.341  -0.845  19.245  0.00  0.00    +0.000 A 
ATOM      8  C   UNL     1      42.908  -0.492  17.886  0.00  0.00    +0.000 A 
ATOM      9  C   UNL     1      43.662  -0.284  21.574  0.00  0.00    +0.000 A 
ATOM     10  C   UNL     1      43.565  -2.718  17.193  0.00  0.00    +0.000 A 
ATOM     11  C   UNL     1      43.246   0.071  20.296  0.00  0.00    +0.000 A 
ENDROOT
BRANCH  10  12
ATOM     12  C   UNL     1      43.765  -3.811  16.229  0.00  0.00    +0.000 A 
ATOM     13  C   UNL     1      42.985  -4.969  16.316  0.00  0.00    +0.000 A 
ATOM     14  C   UNL     1      44.735  -3.722  15.223  0.00  0.00    +0.000 A 
ATOM     15  C   UNL     1      43.165  -6.010  15.401  0.00  0.00    +0.000 A 
ATOM     16  C   UNL     1      44.911  -4.765  14.306  0.00  0.00    +0.000 A 
ATOM     17  C   UNL     1      44.122  -5.912  14.388  0.00  0.00    +0.000 A 
BRANCH  17  18
ATOM     18  O   UNL     1      44.190  -6.996  13.559  0.00  0.00    +0.000 OA
ATOM     19  C   UNL     1      45.403  -7.179  12.839  0.00  0.00    +0.000 C 
ENDBRANCH  17  18
ENDBRANCH  10  12
BRANCH  11  20
ATOM     20  O   UNL     1      42.743   1.335  20.148  0.00  0.00    +0.000 OA
ATOM     21  H   UNL     1      43.498   1.959  20.059  0.00  0.00    +0.000 HD
ENDBRANCH  11  20
BRANCH   4  22
ATOM     22  C   UNL     1      44.856  -3.885  21.003  0.00  0.00    +0.000 C 
BRANCH  22  23
ATOM     23  C   UNL     1      46.299  -3.988  20.583  0.00  0.00    +0.000 C 
ATOM     24  C   UNL     1      46.851  -4.795  19.655  0.00  0.00    +0.000 C 
ATOM     25  C   UNL     1      46.110  -5.795  18.811  0.00  0.00    +0.000 C 
ATOM     26  C   UNL     1      48.332  -4.738  19.383  0.00  0.00    +0.000 C 
ENDBRANCH  22  23
ENDBRANCH   4  22
BRANCH   5  27
ATOM     27  O   UNL     1      42.707  -1.222  15.529  0.00  0.00    +0.000 OA
BRANCH  27  33
ATOM     28  O   UNL     1      41.398  -2.695  14.213  0.00  0.00    +0.000 OA
ATOM     29  C   UNL     1      41.105   0.033  13.323  0.00  0.00    +0.000 C 
ATOM     30  C   UNL     1      41.157  -1.139  12.335  0.00  0.00    +0.000 C 
ATOM     31  C   UNL     1      40.581  -0.418  14.687  0.00  0.00    +0.000 C 
ATOM     32  C   UNL     1      41.950  -2.300  12.950  0.00  0.00    +0.000 C 
ATOM     33  C   UNL     1      41.380  -1.640  15.187  0.00  0.00    +0.000 C 
ATOM     34  C   UNL     1      41.937  -3.527  12.043  0.00  0.00    +0.000 C 
BRANCH  29  35
ATOM     35  O   UNL     1      40.247   1.050  12.774  0.00  0.00    +0.000 OA
ATOM     36  H   UNL     1      40.857   1.755  12.470  0.00  0.00    +0.000 HD
ENDBRANCH  29  35
BRANCH  30  37
ATOM     37  O   UNL     1      41.759  -0.689  11.116  0.00  0.00    +0.000 OA
ATOM     38  H   UNL     1      41.036  -0.696  10.456  0.00  0.00    +0.000 HD
ENDBRANCH  30  37
BRANCH  31  39
ATOM     39  O   UNL     1      39.175  -0.708  14.538  0.00  0.00    +0.000 OA
ATOM     40  H   UNL     1      38.740   0.118  14.255  0.00  0.00    +0.000 HD
ENDBRANCH  31  39
ENDBRANCH  27  33
ENDBRANCH   5  27
BRANCH   3  41
ATOM     41  O   UNL     1      44.576  -1.916  23.071  0.00  0.00    +0.000 OA
BRANCH  41  47
ATOM     42  O   UNL     1      46.906  -1.794  23.465  0.00  0.00    +0.000 OA
ATOM     43  C   UNL     1      46.485  -0.083  25.713  0.00  0.00    +0.000 C 
ATOM     44  C   UNL     1      47.830  -0.774  25.466  0.00  0.00    +0.000 C 
ATOM     45  C   UNL     1      45.342  -0.864  25.069  0.00  0.00    +0.000 C 
ATOM     46  C   UNL     1      48.010  -1.018  23.961  0.00  0.00    +0.000 C 
ATOM     47  C   UNL     1      45.658  -1.110  23.582  0.00  0.00    +0.000 C 
BRANCH  44  48
ATOM     48  O   UNL     1      48.877   0.043  25.992  0.00  0.00    +0.000 OA
ATOM     49  H   UNL     1      49.705  -0.443  25.794  0.00  0.00    +0.000 HD
ENDBRANCH  44  48
BRANCH  45  50
ATOM     50  O   UNL     1      44.125  -0.120  25.246  0.00  0.00    +0.000 OA
ATOM     51  H   UNL     1      44.330   0.797  24.973  0.00  0.00    +0.000 HD
ENDBRANCH  45  50
BRANCH  43  52
ATOM     52  O   UNL     1      46.274   0.032  27.130  0.00  0.00    +0.000 OA
ATOM     53  H   UNL     1      45.927   0.938  27.263  0.00  0.00    +0.000 HD
ENDBRANCH  43  52
BRANCH  46  54
ATOM     54  C   UNL     1      49.309  -1.783  23.676  0.00  0.00    +0.000 C 
BRANCH  54  55
ATOM     55  O   UNL     1      50.434  -0.948  23.959  0.00  0.00    +0.000 OA
ATOM     56  H   UNL     1      51.041  -1.027  23.205  0.00  0.00    +0.000 HD
ENDBRANCH  54  55
ENDBRANCH  46  54
ENDBRANCH  41  47
ENDBRANCH   3  41
TORSDOF 17
ENDMDL
MODEL 8
REMARK VINA RESULT:      -6.4     12.189     14.946
REMARK  Name = 
REMARK  21 active torsions:
REMARK  status: ('A' for Active; 'I' for Inactive)
REMARK    1  A    between atoms: O_3  and  C_22
REMARK    2  A    between atoms: O_3  and  C_28
REMARK    3  A    between atoms: O_4  and  C_25
REMARK    4  A    between atoms: O_4  and  C_30
REMARK    5  A    between atoms: O_5  and  C_16
REMARK    6  A    between atoms: O_6  and  C_17
REMARK    7  A    between atoms: O_7  and  C_18
REMARK    8  A    between atoms: O_8  and  C_20
REMARK    9  A    between atoms: O_9  and  C_21
REMARK   10  A    between atoms: O_10  and  C_23
REMARK   11  A    between atoms: O_11  and  C_26
REMARK   12  A    between atoms: O_13  and  C_36
REMARK   13  A    between atoms: O_15  and  C_45
REMARK   14  A    between atoms: O_15  and  C_48
REMARK   15  A    between atoms: C_19  and  C_26
REMARK   16  A    between atoms: C_24  and  C_27
REMARK   17  A    between atoms: C_29  and  C_37
REMARK   18  A    between atoms: C_35  and  C_38
REMARK   19  A    between atoms: C_37  and  C_39
REMARK   20  A    between atoms: C_42  and  C_46
REMARK   21  A    between atoms: C_42  and  C_47
REMARK                            x       y       z     vdW  Elec       q    Type
REMARK                         _______ _______ _______ _____ _____    ______ ____
ROOT
ATOM      1  O   UNL     1      43.803  -2.418  18.297  0.00  0.00    +0.000 OA
ATOM      2  O   UNL     1      43.073   1.360  19.593  0.00  0.00    +0.000 OA
ATOM      3  C   UNL     1      45.715  -2.485  21.415  0.00  0.00    +0.000 A 
ATOM      4  C   UNL     1      45.147  -2.905  20.199  0.00  0.00    +0.000 A 
ATOM      5  C   UNL     1      42.754  -0.277  17.898  0.00  0.00    +0.000 A 
ATOM      6  C   UNL     1      44.350  -1.989  19.482  0.00  0.00    +0.000 A 
ATOM      7  C   UNL     1      44.127  -0.703  19.973  0.00  0.00    +0.000 A 
ATOM      8  C   UNL     1      43.300   0.222  19.186  0.00  0.00    +0.000 A 
ATOM      9  C   UNL     1      45.457  -1.209  21.926  0.00  0.00    +0.000 A 
ATOM     10  C   UNL     1      43.065  -1.534  17.533  0.00  0.00    +0.000 A 
ATOM     11  C   UNL     1      44.677  -0.318  21.198  0.00  0.00    +0.000 A 
ENDROOT
BRANCH  10  12
ATOM     12  C   UNL     1      42.597  -2.121  16.269  0.00  0.00    +0.000 A 
ATOM     13  C   UNL     1      43.092  -1.641  15.051  0.00  0.00    +0.000 A 
ATOM     14  C   UNL     1      41.649  -3.152  16.255  0.00  0.00    +0.000 A 
ATOM     15  C   UNL     1      42.656  -2.197  13.846  0.00  0.00    +0.000 A 
ATOM     16  C   UNL     1      41.217  -3.709  15.046  0.00  0.00    +0.000 A 
ATOM     17  C   UNL     1      41.723  -3.237  13.835  0.00  0.00    +0.000 A 
BRANCH  17  18
ATOM     18  O   UNL     1      41.389  -3.692  12.590  0.00  0.00    +0.000 OA
ATOM     19  C   UNL     1      42.174  -4.754  12.063  0.00  0.00    +0.000 C 
ENDBRANCH  17  18
ENDBRANCH  10  12
BRANCH  11  20
ATOM     20  O   UNL     1      44.485   0.918  21.753  0.00  0.00    +0.000 OA
ATOM     21  H   UNL     1      44.221   1.539  21.039  0.00  0.00    +0.000 HD
ENDBRANCH  11  20
BRANCH   4  22
ATOM     22  C   UNL     1      45.407  -4.292  19.642  0.00  0.00    +0.000 C 
BRANCH  22  23
ATOM     23  C   UNL     1      44.162  -5.139  19.608  0.00  0.00    +0.000 C 
ATOM     24  C   UNL     1      43.608  -5.780  18.560  0.00  0.00    +0.000 C 
ATOM     25  C   UNL     1      44.143  -5.787  17.155  0.00  0.00    +0.000 C 
ATOM     26  C   UNL     1      42.347  -6.585  18.741  0.00  0.00    +0.000 C 
ENDBRANCH  22  23
ENDBRANCH   4  22
BRANCH   5  27
ATOM     27  O   UNL     1      42.023   0.580  17.095  0.00  0.00    +0.000 OA
BRANCH  27  33
ATOM     28  O   UNL     1      39.974  -0.132  16.144  0.00  0.00    +0.000 OA
ATOM     29  C   UNL     1      40.061   2.740  16.396  0.00  0.00    +0.000 C 
ATOM     30  C   UNL     1      39.418   2.053  15.184  0.00  0.00    +0.000 C 
ATOM     31  C   UNL     1      40.020   1.836  17.628  0.00  0.00    +0.000 C 
ATOM     32  C   UNL     1      40.063   0.679  14.965  0.00  0.00    +0.000 C 
ATOM     33  C   UNL     1      40.610   0.450  17.291  0.00  0.00    +0.000 C 
ATOM     34  C   UNL     1      39.382  -0.083  13.833  0.00  0.00    +0.000 C 
BRANCH  29  35
ATOM     35  O   UNL     1      39.346   3.963  16.655  0.00  0.00    +0.000 OA
ATOM     36  H   UNL     1      39.702   4.285  17.510  0.00  0.00    +0.000 HD
ENDBRANCH  29  35
BRANCH  30  37
ATOM     37  O   UNL     1      39.584   2.893  14.036  0.00  0.00    +0.000 OA
ATOM     38  H   UNL     1      39.466   2.301  13.266  0.00  0.00    +0.000 HD
ENDBRANCH  30  37
BRANCH  31  39
ATOM     39  O   UNL     1      38.646   1.754  18.062  0.00  0.00    +0.000 OA
ATOM     40  H   UNL     1      38.397   2.635  18.397  0.00  0.00    +0.000 HD
ENDBRANCH  31  39
ENDBRANCH  27  33
ENDBRANCH   5  27
BRANCH   3  41
ATOM     41  O   UNL     1      46.449  -3.377  22.155  0.00  0.00    +0.000 OA
BRANCH  41  47
ATOM     42  O   UNL     1      48.343  -2.682  23.391  0.00  0.00    +0.000 OA
ATOM     43  C   UNL     1      47.028  -3.305  25.849  0.00  0.00    +0.000 C 
ATOM     44  C   UNL     1      48.537  -3.056  25.783  0.00  0.00    +0.000 C 
ATOM     45  C   UNL     1      46.494  -3.789  24.503  0.00  0.00    +0.000 C 
ATOM     46  C   UNL     1      48.850  -2.114  24.612  0.00  0.00    +0.000 C 
ATOM     47  C   UNL     1      46.922  -2.810  23.394  0.00  0.00    +0.000 C 
BRANCH  44  48
ATOM     48  O   UNL     1      48.974  -2.504  27.027  0.00  0.00    +0.000 OA
ATOM     49  H   UNL     1      49.547  -3.193  27.425  0.00  0.00    +0.000 HD
ENDBRANCH  44  48
BRANCH  45  50
ATOM     50  O   UNL     1      45.065  -3.908  24.596  0.00  0.00    +0.000 OA
ATOM     51  H   UNL     1      44.805  -3.401  25.391  0.00  0.00    +0.000 HD
ENDBRANCH  45  50
BRANCH  43  52
ATOM     52  O   UNL     1      46.760  -4.278  26.872  0.00  0.00    +0.000 OA
ATOM     53  H   UNL     1      45.890  -4.025  27.242  0.00  0.00    +0.000 HD
ENDBRANCH  43  52
BRANCH  46  54
ATOM     54  C   UNL     1      50.362  -1.904  24.458  0.00  0.00    +0.000 C 
BRANCH  54  55
ATOM     55  O   UNL     1      50.628  -0.539  24.125  0.00  0.00    +0.000 OA
ATOM     56  H   UNL     1      51.258  -0.205  24.786  0.00  0.00    +0.000 HD
ENDBRANCH  54  55
ENDBRANCH  46  54
ENDBRANCH  41  47
ENDBRANCH   3  41
TORSDOF 17
ENDMDL
MODEL 9
REMARK VINA RESULT:      -6.1     23.327     27.403
REMARK  Name = 
REMARK  21 active torsions:
REMARK  status: ('A' for Active; 'I' for Inactive)
REMARK    1  A    between atoms: O_3  and  C_22
REMARK    2  A    between atoms: O_3  and  C_28
REMARK    3  A    between atoms: O_4  and  C_25
REMARK    4  A    between atoms: O_4  and  C_30
REMARK    5  A    between atoms: O_5  and  C_16
REMARK    6  A    between atoms: O_6  and  C_17
REMARK    7  A    between atoms: O_7  and  C_18
REMARK    8  A    between atoms: O_8  and  C_20
REMARK    9  A    between atoms: O_9  and  C_21
REMARK   10  A    between atoms: O_10  and  C_23
REMARK   11  A    between atoms: O_11  and  C_26
REMARK   12  A    between atoms: O_13  and  C_36
REMARK   13  A    between atoms: O_15  and  C_45
REMARK   14  A    between atoms: O_15  and  C_48
REMARK   15  A    between atoms: C_19  and  C_26
REMARK   16  A    between atoms: C_24  and  C_27
REMARK   17  A    between atoms: C_29  and  C_37
REMARK   18  A    between atoms: C_35  and  C_38
REMARK   19  A    between atoms: C_37  and  C_39
REMARK   20  A    between atoms: C_42  and  C_46
REMARK   21  A    between atoms: C_42  and  C_47
REMARK                            x       y       z     vdW  Elec       q    Type
REMARK                         _______ _______ _______ _____ _____    ______ ____
ROOT
ATOM      1  O   UNL     1      34.762  18.631  22.191  0.00  0.00    +0.000 OA
ATOM      2  O   UNL     1      37.417  16.353  20.131  0.00  0.00    +0.000 OA
ATOM      3  C   UNL     1      36.467  21.267  20.312  0.00  0.00    +0.000 A 
ATOM      4  C   UNL     1      35.573  20.634  21.194  0.00  0.00    +0.000 A 
ATOM      5  C   UNL     1      35.665  16.435  21.737  0.00  0.00    +0.000 A 
ATOM      6  C   UNL     1      35.644  19.232  21.326  0.00  0.00    +0.000 A 
ATOM      7  C   UNL     1      36.573  18.494  20.591  0.00  0.00    +0.000 A 
ATOM      8  C   UNL     1      36.618  17.036  20.770  0.00  0.00    +0.000 A 
ATOM      9  C   UNL     1      37.370  20.522  19.546  0.00  0.00    +0.000 A 
ATOM     10  C   UNL     1      34.837  17.266  22.395  0.00  0.00    +0.000 A 
ATOM     11  C   UNL     1      37.430  19.142  19.699  0.00  0.00    +0.000 A 
ENDROOT
BRANCH  10  12
ATOM     12  C   UNL     1      33.869  16.782  23.391  0.00  0.00    +0.000 A 
ATOM     13  C   UNL     1      32.497  16.926  23.158  0.00  0.00    +0.000 A 
ATOM     14  C   UNL     1      34.294  16.186  24.584  0.00  0.00    +0.000 A 
ATOM     15  C   UNL     1      31.571  16.465  24.097  0.00  0.00    +0.000 A 
ATOM     16  C   UNL     1      33.364  15.722  25.522  0.00  0.00    +0.000 A 
ATOM     17  C   UNL     1      31.997  15.855  25.279  0.00  0.00    +0.000 A 
BRANCH  17  18
ATOM     18  O   UNL     1      30.989  15.445  26.106  0.00  0.00    +0.000 OA
ATOM     19  C   UNL     1      31.275  14.355  26.974  0.00  0.00    +0.000 C 
ENDBRANCH  17  18
ENDBRANCH  10  12
BRANCH  11  20
ATOM     20  O   UNL     1      38.351  18.483  18.930  0.00  0.00    +0.000 OA
ATOM     21  H   UNL     1      38.181  18.703  17.987  0.00  0.00    +0.000 HD
ENDBRANCH  11  20
BRANCH   4  22
ATOM     22  C   UNL     1      34.580  21.429  22.018  0.00  0.00    +0.000 C 
BRANCH  22  23
ATOM     23  C   UNL     1      35.113  21.772  23.385  0.00  0.00    +0.000 C 
ATOM     24  C   UNL     1      34.692  21.332  24.588  0.00  0.00    +0.000 C 
ATOM     25  C   UNL     1      33.563  20.367  24.822  0.00  0.00    +0.000 C 
ATOM     26  C   UNL     1      35.371  21.801  25.849  0.00  0.00    +0.000 C 
ENDBRANCH  22  23
ENDBRANCH   4  22
BRANCH   5  27
ATOM     27  O   UNL     1      35.717  15.075  21.983  0.00  0.00    +0.000 OA
BRANCH  27  33
ATOM     28  O   UNL     1      33.716  14.122  21.146  0.00  0.00    +0.000 OA
ATOM     29  C   UNL     1      35.545  12.080  22.042  0.00  0.00    +0.000 C 
ATOM     30  C   UNL     1      34.032  11.962  22.260  0.00  0.00    +0.000 C 
ATOM     31  C   UNL     1      35.861  12.950  20.825  0.00  0.00    +0.000 C 
ATOM     32  C   UNL     1      33.407  13.362  22.322  0.00  0.00    +0.000 C 
ATOM     33  C   UNL     1      35.123  14.302  20.932  0.00  0.00    +0.000 C 
ATOM     34  C   UNL     1      31.887  13.290  22.433  0.00  0.00    +0.000 C 
BRANCH  29  35
ATOM     35  O   UNL     1      36.080  10.756  21.856  0.00  0.00    +0.000 OA
ATOM     36  H   UNL     1      35.871  10.529  20.926  0.00  0.00    +0.000 HD
ENDBRANCH  29  35
BRANCH  30  37
ATOM     37  O   UNL     1      33.795  11.235  23.471  0.00  0.00    +0.000 OA
ATOM     38  H   UNL     1      34.343  10.428  23.397  0.00  0.00    +0.000 HD
ENDBRANCH  30  37
BRANCH  31  39
ATOM     39  O   UNL     1      35.476  12.209  19.649  0.00  0.00    +0.000 OA
ATOM     40  H   UNL     1      34.564  11.895  19.792  0.00  0.00    +0.000 HD
ENDBRANCH  31  39
ENDBRANCH  27  33
ENDBRANCH   5  27
BRANCH   3  41
ATOM     41  O   UNL     1      36.380  22.623  20.129  0.00  0.00    +0.000 OA
BRANCH  41  47
ATOM     42  O   UNL     1      38.136  23.141  21.628  0.00  0.00    +0.000 OA
ATOM     43  C   UNL     1      38.681  25.570  20.228  0.00  0.00    +0.000 C 
ATOM     44  C   UNL     1      39.249  25.300  21.624  0.00  0.00    +0.000 C 
ATOM     45  C   UNL     1      37.397  24.776  19.996  0.00  0.00    +0.000 C 
ATOM     46  C   UNL     1      39.406  23.786  21.828  0.00  0.00    +0.000 C 
ATOM     47  C   UNL     1      37.651  23.286  20.294  0.00  0.00    +0.000 C 
BRANCH  44  48
ATOM     48  O   UNL     1      40.500  25.977  21.758  0.00  0.00    +0.000 OA
ATOM     49  H   UNL     1      40.725  26.280  20.854  0.00  0.00    +0.000 HD
ENDBRANCH  44  48
BRANCH  45  50
ATOM     50  O   UNL     1      36.968  24.989  18.641  0.00  0.00    +0.000 OA
ATOM     51  H   UNL     1      37.511  25.729  18.302  0.00  0.00    +0.000 HD
ENDBRANCH  45  50
BRANCH  43  52
ATOM     52  O   UNL     1      38.428  26.978  20.092  0.00  0.00    +0.000 OA
ATOM     53  H   UNL     1      38.351  27.313  21.009  0.00  0.00    +0.000 HD
ENDBRANCH  43  52
BRANCH  46  54
ATOM     54  C   UNL     1      39.895  23.467  23.247  0.00  0.00    +0.000 C 
BRANCH  54  55
ATOM     55  O   UNL     1      41.323  23.400  23.262  0.00  0.00    +0.000 OA
ATOM     56  H   UNL     1      41.586  22.819  22.528  0.00  0.00    +0.000 HD
ENDBRANCH  54  55
ENDBRANCH  46  54
ENDBRANCH  41  47
ENDBRANCH   3  41
TORSDOF 17
ENDMDL
