MODEL 1
REMARK VINA RESULT:      -6.5      0.000      0.000
REMARK  Name = 
REMARK  6 active torsions:
REMARK  status: ('A' for Active; 'I' for Inactive)
REMARK    1  A    between atoms: O_3  and  C_16
REMARK    2  A    between atoms: O_4  and  C_17
REMARK    3  A    between atoms: O_4  and  C_22
REMARK    4  A    between atoms: O_5  and  C_19
REMARK    5  A    between atoms: O_5  and  C_23
REMARK    6  A    between atoms: O_6  and  C_21
REMARK                            x       y       z     vdW  Elec       q    Type
REMARK                         _______ _______ _______ _____ _____    ______ ____
ROOT
ATOM      1  O   UNL     1      41.980  -3.082  13.818  0.00  0.00    +0.000 OA
ATOM      2  O   UNL     1      39.702  -1.593  16.678  0.00  0.00    +0.000 OA
ATOM      3  C   UNL     1      40.439  -3.667  15.586  0.00  0.00    +0.000 C 
ATOM      4  C   UNL     1      40.606  -2.926  14.255  0.00  0.00    +0.000 C 
ATOM      5  C   UNL     1      41.856  -3.678  16.044  0.00  0.00    +0.000 A 
ATOM      6  C   UNL     1      39.424  -2.978  16.475  0.00  0.00    +0.000 C 
ATOM      7  C   UNL     1      40.253  -1.456  14.322  0.00  0.00    +0.000 A 
ATOM      8  C   UNL     1      42.674  -3.368  14.967  0.00  0.00    +0.000 A 
ATOM      9  C   UNL     1      39.837  -0.863  15.526  0.00  0.00    +0.000 A 
ATOM     10  C   UNL     1      42.399  -3.996  17.278  0.00  0.00    +0.000 A 
ATOM     11  C   UNL     1      40.349  -0.672  13.158  0.00  0.00    +0.000 A 
ATOM     12  C   UNL     1      44.048  -3.371  15.090  0.00  0.00    +0.000 A 
ATOM     13  C   UNL     1      39.572   0.513  15.570  0.00  0.00    +0.000 A 
ATOM     14  C   UNL     1      43.794  -3.988  17.421  0.00  0.00    +0.000 A 
ATOM     15  C   UNL     1      44.624  -3.678  16.330  0.00  0.00    +0.000 A 
ATOM     16  C   UNL     1      40.033   0.683  13.188  0.00  0.00    +0.000 A 
ATOM     17  C   UNL     1      39.642   1.259  14.387  0.00  0.00    +0.000 A 
ENDROOT
BRANCH  12  18
ATOM     18  O   UNL     1      44.840  -3.072  14.017  0.00  0.00    +0.000 OA
ATOM     19  H   UNL     1      45.666  -3.568  14.165  0.00  0.00    +0.000 HD
ENDBRANCH  12  18
BRANCH  13  20
ATOM     20  O   UNL     1      39.173   1.227  16.676  0.00  0.00    +0.000 OA
ATOM     21  C   UNL     1      40.238   1.618  17.540  0.00  0.00    +0.000 C 
ENDBRANCH  13  20
BRANCH  15  22
ATOM     22  O   UNL     1      45.998  -3.647  16.350  0.00  0.00    +0.000 OA
ATOM     23  C   UNL     1      46.617  -3.551  17.628  0.00  0.00    +0.000 C 
ENDBRANCH  15  22
BRANCH  17  24
ATOM     24  O   UNL     1      39.336   2.594  14.396  0.00  0.00    +0.000 OA
ATOM     25  H   UNL     1      39.856   2.974  13.662  0.00  0.00    +0.000 HD
ENDBRANCH  17  24
TORSDOF 4
ENDMDL
MODEL 2
REMARK VINA RESULT:      -6.2      2.406      3.317
REMARK  Name = 
REMARK  6 active torsions:
REMARK  status: ('A' for Active; 'I' for Inactive)
REMARK    1  A    between atoms: O_3  and  C_16
REMARK    2  A    between atoms: O_4  and  C_17
REMARK    3  A    between atoms: O_4  and  C_22
REMARK    4  A    between atoms: O_5  and  C_19
REMARK    5  A    between atoms: O_5  and  C_23
REMARK    6  A    between atoms: O_6  and  C_21
REMARK                            x       y       z     vdW  Elec       q    Type
REMARK                         _______ _______ _______ _____ _____    ______ ____
ROOT
ATOM      1  O   UNL     1      42.568  -3.782  15.881  0.00  0.00    +0.000 OA
ATOM      2  O   UNL     1      39.311  -1.851  14.765  0.00  0.00    +0.000 OA
ATOM      3  C   UNL     1      40.163  -3.717  16.116  0.00  0.00    +0.000 C 
ATOM      4  C   UNL     1      41.328  -3.913  15.140  0.00  0.00    +0.000 C 
ATOM      5  C   UNL     1      40.857  -2.935  17.178  0.00  0.00    +0.000 A 
ATOM      6  C   UNL     1      38.978  -3.066  15.434  0.00  0.00    +0.000 C 
ATOM      7  C   UNL     1      41.322  -2.947  13.975  0.00  0.00    +0.000 A 
ATOM      8  C   UNL     1      42.227  -3.052  16.993  0.00  0.00    +0.000 A 
ATOM      9  C   UNL     1      40.330  -1.959  13.855  0.00  0.00    +0.000 A 
ATOM     10  C   UNL     1      40.345  -2.234  18.256  0.00  0.00    +0.000 A 
ATOM     11  C   UNL     1      42.332  -3.038  13.001  0.00  0.00    +0.000 A 
ATOM     12  C   UNL     1      43.119  -2.479  17.876  0.00  0.00    +0.000 A 
ATOM     13  C   UNL     1      40.383  -1.043  12.796  0.00  0.00    +0.000 A 
ATOM     14  C   UNL     1      41.240  -1.634  19.154  0.00  0.00    +0.000 A 
ATOM     15  C   UNL     1      42.628  -1.754  18.970  0.00  0.00    +0.000 A 
ATOM     16  C   UNL     1      42.355  -2.164  11.918  0.00  0.00    +0.000 A 
ATOM     17  C   UNL     1      41.380  -1.182  11.823  0.00  0.00    +0.000 A 
ENDROOT
BRANCH  12  18
ATOM     18  O   UNL     1      44.465  -2.612  17.684  0.00  0.00    +0.000 OA
ATOM     19  H   UNL     1      44.733  -1.806  17.204  0.00  0.00    +0.000 HD
ENDBRANCH  12  18
BRANCH  13  20
ATOM     20  O   UNL     1      39.493  -0.021  12.563  0.00  0.00    +0.000 OA
ATOM     21  C   UNL     1      39.642   1.100  13.431  0.00  0.00    +0.000 C 
ENDBRANCH  13  20
BRANCH  15  22
ATOM     22  O   UNL     1      43.595  -1.218  19.785  0.00  0.00    +0.000 OA
ATOM     23  C   UNL     1      43.710   0.200  19.795  0.00  0.00    +0.000 C 
ENDBRANCH  15  22
BRANCH  17  24
ATOM     24  O   UNL     1      41.420  -0.331  10.751  0.00  0.00    +0.000 OA
ATOM     25  H   UNL     1      41.876   0.466  11.082  0.00  0.00    +0.000 HD
ENDBRANCH  17  24
TORSDOF 4
ENDMDL
MODEL 3
REMARK VINA RESULT:      -6.0     13.191     14.886
REMARK  Name = 
REMARK  6 active torsions:
REMARK  status: ('A' for Active; 'I' for Inactive)
REMARK    1  A    between atoms: O_3  and  C_16
REMARK    2  A    between atoms: O_4  and  C_17
REMARK    3  A    between atoms: O_4  and  C_22
REMARK    4  A    between atoms: O_5  and  C_19
REMARK    5  A    between atoms: O_5  and  C_23
REMARK    6  A    between atoms: O_6  and  C_21
REMARK                            x       y       z     vdW  Elec       q    Type
REMARK                         _______ _______ _______ _____ _____    ______ ____
ROOT
ATOM      1  O   UNL     1      50.235   5.347  10.261  0.00  0.00    +0.000 OA
ATOM      2  O   UNL     1      53.674   5.864  12.129  0.00  0.00    +0.000 OA
ATOM      3  C   UNL     1      52.437   4.405  10.587  0.00  0.00    +0.000 C 
ATOM      4  C   UNL     1      51.116   4.782  11.265  0.00  0.00    +0.000 C 
ATOM      5  C   UNL     1      52.379   5.312   9.407  0.00  0.00    +0.000 A 
ATOM      6  C   UNL     1      53.607   4.568  11.535  0.00  0.00    +0.000 C 
ATOM      7  C   UNL     1      51.271   5.753  12.416  0.00  0.00    +0.000 A 
ATOM      8  C   UNL     1      51.081   5.780   9.270  0.00  0.00    +0.000 A 
ATOM      9  C   UNL     1      52.532   6.255  12.777  0.00  0.00    +0.000 A 
ATOM     10  C   UNL     1      53.357   5.653   8.488  0.00  0.00    +0.000 A 
ATOM     11  C   UNL     1      50.130   6.162  13.130  0.00  0.00    +0.000 A 
ATOM     12  C   UNL     1      50.723   6.594   8.214  0.00  0.00    +0.000 A 
ATOM     13  C   UNL     1      52.637   7.197  13.811  0.00  0.00    +0.000 A 
ATOM     14  C   UNL     1      53.010   6.491   7.418  0.00  0.00    +0.000 A 
ATOM     15  C   UNL     1      51.694   6.963   7.274  0.00  0.00    +0.000 A 
ATOM     16  C   UNL     1      50.240   7.054  14.192  0.00  0.00    +0.000 A 
ATOM     17  C   UNL     1      51.488   7.556  14.525  0.00  0.00    +0.000 A 
ENDROOT
BRANCH  12  18
ATOM     18  O   UNL     1      49.437   7.039   8.088  0.00  0.00    +0.000 OA
ATOM     19  H   UNL     1      49.495   7.823   7.512  0.00  0.00    +0.000 HD
ENDBRANCH  12  18
BRANCH  13  20
ATOM     20  O   UNL     1      53.798   7.781  14.260  0.00  0.00    +0.000 OA
ATOM     21  C   UNL     1      54.131   9.007  13.610  0.00  0.00    +0.000 C 
ENDBRANCH  13  20
BRANCH  15  22
ATOM     22  O   UNL     1      51.239   7.779   6.267  0.00  0.00    +0.000 OA
ATOM     23  C   UNL     1      52.211   8.262   5.347  0.00  0.00    +0.000 C 
ENDBRANCH  15  22
BRANCH  17  24
ATOM     24  O   UNL     1      51.575   8.434  15.573  0.00  0.00    +0.000 OA
ATOM     25  H   UNL     1      52.342   8.126  16.093  0.00  0.00    +0.000 HD
ENDBRANCH  17  24
TORSDOF 4
ENDMDL
MODEL 4
REMARK VINA RESULT:      -6.0      2.916      4.198
REMARK  Name = 
REMARK  6 active torsions:
REMARK  status: ('A' for Active; 'I' for Inactive)
REMARK    1  A    between atoms: O_3  and  C_16
REMARK    2  A    between atoms: O_4  and  C_17
REMARK    3  A    between atoms: O_4  and  C_22
REMARK    4  A    between atoms: O_5  and  C_19
REMARK    5  A    between atoms: O_5  and  C_23
REMARK    6  A    between atoms: O_6  and  C_21
REMARK                            x       y       z     vdW  Elec       q    Type
REMARK                         _______ _______ _______ _____ _____    ______ ____
ROOT
ATOM      1  O   UNL     1      41.711  -5.371  15.855  0.00  0.00    +0.000 OA
ATOM      2  O   UNL     1      42.923  -1.959  14.282  0.00  0.00    +0.000 OA
ATOM      3  C   UNL     1      43.405  -3.652  15.995  0.00  0.00    +0.000 C 
ATOM      4  C   UNL     1      41.911  -3.961  16.133  0.00  0.00    +0.000 C 
ATOM      5  C   UNL     1      43.810  -4.775  15.104  0.00  0.00    +0.000 A 
ATOM      6  C   UNL     1      43.630  -2.243  15.488  0.00  0.00    +0.000 C 
ATOM      7  C   UNL     1      41.026  -3.130  15.229  0.00  0.00    +0.000 A 
ATOM      8  C   UNL     1      42.804  -5.729  15.106  0.00  0.00    +0.000 A 
ATOM      9  C   UNL     1      41.574  -2.188  14.342  0.00  0.00    +0.000 A 
ATOM     10  C   UNL     1      44.984  -4.983  14.399  0.00  0.00    +0.000 A 
ATOM     11  C   UNL     1      39.631  -3.310  15.276  0.00  0.00    +0.000 A 
ATOM     12  C   UNL     1      42.943  -6.914  14.412  0.00  0.00    +0.000 A 
ATOM     13  C   UNL     1      40.733  -1.474  13.477  0.00  0.00    +0.000 A 
ATOM     14  C   UNL     1      45.132  -6.177  13.678  0.00  0.00    +0.000 A 
ATOM     15  C   UNL     1      44.116  -7.147  13.682  0.00  0.00    +0.000 A 
ATOM     16  C   UNL     1      38.792  -2.562  14.457  0.00  0.00    +0.000 A 
ATOM     17  C   UNL     1      39.348  -1.650  13.573  0.00  0.00    +0.000 A 
ENDROOT
BRANCH  12  18
ATOM     18  O   UNL     1      41.945  -7.849  14.432  0.00  0.00    +0.000 OA
ATOM     19  H   UNL     1      41.620  -7.853  15.351  0.00  0.00    +0.000 HD
ENDBRANCH  12  18
BRANCH  13  20
ATOM     20  O   UNL     1      41.130  -0.537  12.552  0.00  0.00    +0.000 OA
ATOM     21  C   UNL     1      41.685  -1.085  11.359  0.00  0.00    +0.000 C 
ENDBRANCH  13  20
BRANCH  15  22
ATOM     22  O   UNL     1      44.153  -8.351  13.022  0.00  0.00    +0.000 OA
ATOM     23  C   UNL     1      45.436  -8.933  12.824  0.00  0.00    +0.000 C 
ENDBRANCH  15  22
BRANCH  17  24
ATOM     24  O   UNL     1      38.504  -0.924  12.775  0.00  0.00    +0.000 OA
ATOM     25  H   UNL     1      37.773  -1.535  12.564  0.00  0.00    +0.000 HD
ENDBRANCH  17  24
TORSDOF 4
ENDMDL
MODEL 5
REMARK VINA RESULT:      -5.8     12.070     13.738
REMARK  Name = 
REMARK  6 active torsions:
REMARK  status: ('A' for Active; 'I' for Inactive)
REMARK    1  A    between atoms: O_3  and  C_16
REMARK    2  A    between atoms: O_4  and  C_17
REMARK    3  A    between atoms: O_4  and  C_22
REMARK    4  A    between atoms: O_5  and  C_19
REMARK    5  A    between atoms: O_5  and  C_23
REMARK    6  A    between atoms: O_6  and  C_21
REMARK                            x       y       z     vdW  Elec       q    Type
REMARK                         _______ _______ _______ _____ _____    ______ ____
ROOT
ATOM      1  O   UNL     1      49.438   4.770  10.485  0.00  0.00    +0.000 OA
ATOM      2  O   UNL     1      53.349   5.301  10.582  0.00  0.00    +0.000 OA
ATOM      3  C   UNL     1      51.381   4.692  11.921  0.00  0.00    +0.000 C 
ATOM      4  C   UNL     1      50.492   5.588  11.052  0.00  0.00    +0.000 C 
ATOM      5  C   UNL     1      51.080   3.370  11.303  0.00  0.00    +0.000 A 
ATOM      6  C   UNL     1      52.821   5.160  11.900  0.00  0.00    +0.000 C 
ATOM      7  C   UNL     1      51.237   6.304   9.946  0.00  0.00    +0.000 A 
ATOM      8  C   UNL     1      49.938   3.492  10.527  0.00  0.00    +0.000 A 
ATOM      9  C   UNL     1      52.616   6.112   9.757  0.00  0.00    +0.000 A 
ATOM     10  C   UNL     1      51.708   2.145  11.454  0.00  0.00    +0.000 A 
ATOM     11  C   UNL     1      50.532   7.170   9.091  0.00  0.00    +0.000 A 
ATOM     12  C   UNL     1      49.390   2.399   9.886  0.00  0.00    +0.000 A 
ATOM     13  C   UNL     1      53.267   6.745   8.688  0.00  0.00    +0.000 A 
ATOM     14  C   UNL     1      51.171   1.029  10.796  0.00  0.00    +0.000 A 
ATOM     15  C   UNL     1      50.011   1.149  10.012  0.00  0.00    +0.000 A 
ATOM     16  C   UNL     1      51.189   7.842   8.064  0.00  0.00    +0.000 A 
ATOM     17  C   UNL     1      52.546   7.629   7.877  0.00  0.00    +0.000 A 
ENDROOT
BRANCH  12  18
ATOM     18  O   UNL     1      48.258   2.534   9.131  0.00  0.00    +0.000 OA
ATOM     19  H   UNL     1      48.452   2.068   8.297  0.00  0.00    +0.000 HD
ENDBRANCH  12  18
BRANCH  13  20
ATOM     20  O   UNL     1      54.602   6.639   8.376  0.00  0.00    +0.000 OA
ATOM     21  C   UNL     1      54.932   5.501   7.581  0.00  0.00    +0.000 C 
ENDBRANCH  13  20
BRANCH  15  22
ATOM     22  O   UNL     1      49.393   0.129   9.331  0.00  0.00    +0.000 OA
ATOM     23  C   UNL     1      50.103  -0.429   8.231  0.00  0.00    +0.000 C 
ENDBRANCH  15  22
BRANCH  17  24
ATOM     24  O   UNL     1      53.173   8.298   6.860  0.00  0.00    +0.000 OA
ATOM     25  H   UNL     1      53.012   7.754   6.066  0.00  0.00    +0.000 HD
ENDBRANCH  17  24
TORSDOF 4
ENDMDL
MODEL 6
REMARK VINA RESULT:      -5.8      1.845      6.246
REMARK  Name = 
REMARK  6 active torsions:
REMARK  status: ('A' for Active; 'I' for Inactive)
REMARK    1  A    between atoms: O_3  and  C_16
REMARK    2  A    between atoms: O_4  and  C_17
REMARK    3  A    between atoms: O_4  and  C_22
REMARK    4  A    between atoms: O_5  and  C_19
REMARK    5  A    between atoms: O_5  and  C_23
REMARK    6  A    between atoms: O_6  and  C_21
REMARK                            x       y       z     vdW  Elec       q    Type
REMARK                         _______ _______ _______ _____ _____    ______ ____
ROOT
ATOM      1  O   UNL     1      38.597  -1.970  16.189  0.00  0.00    +0.000 OA
ATOM      2  O   UNL     1      41.247  -2.408  13.295  0.00  0.00    +0.000 OA
ATOM      3  C   UNL     1      38.969  -1.653  13.821  0.00  0.00    +0.000 C 
ATOM      4  C   UNL     1      38.873  -2.680  14.955  0.00  0.00    +0.000 C 
ATOM      5  C   UNL     1      39.305  -0.438  14.614  0.00  0.00    +0.000 A 
ATOM      6  C   UNL     1      39.960  -2.093  12.764  0.00  0.00    +0.000 C 
ATOM      7  C   UNL     1      40.114  -3.531  15.119  0.00  0.00    +0.000 A 
ATOM      8  C   UNL     1      39.032  -0.689  15.951  0.00  0.00    +0.000 A 
ATOM      9  C   UNL     1      41.238  -3.342  14.297  0.00  0.00    +0.000 A 
ATOM     10  C   UNL     1      39.750   0.808  14.203  0.00  0.00    +0.000 A 
ATOM     11  C   UNL     1      40.141  -4.522  16.117  0.00  0.00    +0.000 A 
ATOM     12  C   UNL     1      39.190   0.291  16.909  0.00  0.00    +0.000 A 
ATOM     13  C   UNL     1      42.393  -4.108  14.511  0.00  0.00    +0.000 A 
ATOM     14  C   UNL     1      39.928   1.809  15.169  0.00  0.00    +0.000 A 
ATOM     15  C   UNL     1      39.649   1.558  16.523  0.00  0.00    +0.000 A 
ATOM     16  C   UNL     1      41.268  -5.320  16.293  0.00  0.00    +0.000 A 
ATOM     17  C   UNL     1      42.376  -5.110  15.487  0.00  0.00    +0.000 A 
ENDROOT
BRANCH  12  18
ATOM     18  O   UNL     1      38.908   0.030  18.220  0.00  0.00    +0.000 OA
ATOM     19  H   UNL     1      39.451  -0.748  18.446  0.00  0.00    +0.000 HD
ENDBRANCH  12  18
BRANCH  13  20
ATOM     20  O   UNL     1      43.565  -4.021  13.797  0.00  0.00    +0.000 OA
ATOM     21  C   UNL     1      44.530  -3.131  14.353  0.00  0.00    +0.000 C 
ENDBRANCH  13  20
BRANCH  15  22
ATOM     22  O   UNL     1      39.779   2.460  17.550  0.00  0.00    +0.000 OA
ATOM     23  C   UNL     1      39.187   3.739  17.357  0.00  0.00    +0.000 C 
ENDBRANCH  15  22
BRANCH  17  24
ATOM     24  O   UNL     1      43.475  -5.905  15.677  0.00  0.00    +0.000 OA
ATOM     25  H   UNL     1      43.493  -6.497  14.901  0.00  0.00    +0.000 HD
ENDBRANCH  17  24
TORSDOF 4
ENDMDL
MODEL 7
REMARK VINA RESULT:      -5.5      9.951     12.051
REMARK  Name = 
REMARK  6 active torsions:
REMARK  status: ('A' for Active; 'I' for Inactive)
REMARK    1  A    between atoms: O_3  and  C_16
REMARK    2  A    between atoms: O_4  and  C_17
REMARK    3  A    between atoms: O_4  and  C_22
REMARK    4  A    between atoms: O_5  and  C_19
REMARK    5  A    between atoms: O_5  and  C_23
REMARK    6  A    between atoms: O_6  and  C_21
REMARK                            x       y       z     vdW  Elec       q    Type
REMARK                         _______ _______ _______ _____ _____    ______ ____
ROOT
ATOM      1  O   UNL     1      49.452   2.139   7.908  0.00  0.00    +0.000 OA
ATOM      2  O   UNL     1      50.149   0.458  11.412  0.00  0.00    +0.000 OA
ATOM      3  C   UNL     1      48.517   0.673   9.588  0.00  0.00    +0.000 C 
ATOM      4  C   UNL     1      49.013   2.092   9.289  0.00  0.00    +0.000 C 
ATOM      5  C   UNL     1      49.252  -0.075   8.530  0.00  0.00    +0.000 A 
ATOM      6  C   UNL     1      48.785   0.289  11.028  0.00  0.00    +0.000 C 
ATOM      7  C   UNL     1      50.131   2.555  10.199  0.00  0.00    +0.000 A 
ATOM      8  C   UNL     1      49.724   0.831   7.592  0.00  0.00    +0.000 A 
ATOM      9  C   UNL     1      50.651   1.714  11.197  0.00  0.00    +0.000 A 
ATOM     10  C   UNL     1      49.440  -1.436   8.359  0.00  0.00    +0.000 A 
ATOM     11  C   UNL     1      50.660   3.848  10.034  0.00  0.00    +0.000 A 
ATOM     12  C   UNL     1      50.391   0.405   6.461  0.00  0.00    +0.000 A 
ATOM     13  C   UNL     1      51.725   2.151  11.986  0.00  0.00    +0.000 A 
ATOM     14  C   UNL     1      50.128  -1.882   7.221  0.00  0.00    +0.000 A 
ATOM     15  C   UNL     1      50.604  -0.966   6.267  0.00  0.00    +0.000 A 
ATOM     16  C   UNL     1      51.689   4.303  10.854  0.00  0.00    +0.000 A 
ATOM     17  C   UNL     1      52.205   3.455  11.822  0.00  0.00    +0.000 A 
ENDROOT
BRANCH  12  18
ATOM     18  O   UNL     1      50.842   1.310   5.541  0.00  0.00    +0.000 OA
ATOM     19  H   UNL     1      51.694   0.953   5.231  0.00  0.00    +0.000 HD
ENDBRANCH  12  18
BRANCH  13  20
ATOM     20  O   UNL     1      52.341   1.433  12.984  0.00  0.00    +0.000 OA
ATOM     21  C   UNL     1      51.628   1.411  14.220  0.00  0.00    +0.000 C 
ENDBRANCH  13  20
BRANCH  15  22
ATOM     22  O   UNL     1      51.282  -1.286   5.116  0.00  0.00    +0.000 OA
ATOM     23  C   UNL     1      50.548  -1.981   4.114  0.00  0.00    +0.000 C 
ENDBRANCH  15  22
BRANCH  17  24
ATOM     24  O   UNL     1      53.218   3.921  12.618  0.00  0.00    +0.000 OA
ATOM     25  H   UNL     1      52.768   4.317  13.388  0.00  0.00    +0.000 HD
ENDBRANCH  17  24
TORSDOF 4
ENDMDL
MODEL 8
REMARK VINA RESULT:      -5.2     11.815     13.865
REMARK  Name = 
REMARK  6 active torsions:
REMARK  status: ('A' for Active; 'I' for Inactive)
REMARK    1  A    between atoms: O_3  and  C_16
REMARK    2  A    between atoms: O_4  and  C_17
REMARK    3  A    between atoms: O_4  and  C_22
REMARK    4  A    between atoms: O_5  and  C_19
REMARK    5  A    between atoms: O_5  and  C_23
REMARK    6  A    between atoms: O_6  and  C_21
REMARK                            x       y       z     vdW  Elec       q    Type
REMARK                         _______ _______ _______ _____ _____    ______ ____
ROOT
ATOM      1  O   UNL     1      50.726  -1.977   6.537  0.00  0.00    +0.000 OA
ATOM      2  O   UNL     1      52.431   1.335   7.845  0.00  0.00    +0.000 OA
ATOM      3  C   UNL     1      52.822  -1.022   7.271  0.00  0.00    +0.000 C 
ATOM      4  C   UNL     1      51.388  -1.376   7.679  0.00  0.00    +0.000 C 
ATOM      5  C   UNL     1      52.646  -0.932   5.794  0.00  0.00    +0.000 A 
ATOM      6  C   UNL     1      53.308   0.218   7.992  0.00  0.00    +0.000 C 
ATOM      7  C   UNL     1      50.582  -0.195   8.176  0.00  0.00    +0.000 A 
ATOM      8  C   UNL     1      51.442  -1.530   5.453  0.00  0.00    +0.000 A 
ATOM      9  C   UNL     1      51.135   1.096   8.218  0.00  0.00    +0.000 A 
ATOM     10  C   UNL     1      53.491  -0.432   4.818  0.00  0.00    +0.000 A 
ATOM     11  C   UNL     1      49.255  -0.397   8.596  0.00  0.00    +0.000 A 
ATOM     12  C   UNL     1      51.052  -1.649   4.135  0.00  0.00    +0.000 A 
ATOM     13  C   UNL     1      50.345   2.179   8.630  0.00  0.00    +0.000 A 
ATOM     14  C   UNL     1      53.099  -0.533   3.475  0.00  0.00    +0.000 A 
ATOM     15  C   UNL     1      51.882  -1.142   3.127  0.00  0.00    +0.000 A 
ATOM     16  C   UNL     1      48.488   0.669   9.057  0.00  0.00    +0.000 A 
ATOM     17  C   UNL     1      49.040   1.941   9.076  0.00  0.00    +0.000 A 
ENDROOT
BRANCH  12  18
ATOM     18  O   UNL     1      49.866  -2.249   3.815  0.00  0.00    +0.000 OA
ATOM     19  H   UNL     1      49.907  -2.394   2.852  0.00  0.00    +0.000 HD
ENDBRANCH  12  18
BRANCH  13  20
ATOM     20  O   UNL     1      50.748   3.492   8.707  0.00  0.00    +0.000 OA
ATOM     21  C   UNL     1      51.478   3.816   9.888  0.00  0.00    +0.000 C 
ENDBRANCH  13  20
BRANCH  15  22
ATOM     22  O   UNL     1      51.401  -1.303   1.850  0.00  0.00    +0.000 OA
ATOM     23  C   UNL     1      52.212  -2.050   0.950  0.00  0.00    +0.000 C 
ENDBRANCH  15  22
BRANCH  17  24
ATOM     24  O   UNL     1      48.269   2.976   9.532  0.00  0.00    +0.000 OA
ATOM     25  H   UNL     1      48.716   3.281  10.344  0.00  0.00    +0.000 HD
ENDBRANCH  17  24
TORSDOF 4
ENDMDL
MODEL 9
REMARK VINA RESULT:      -5.1     10.815     13.066
REMARK  Name = 
REMARK  6 active torsions:
REMARK  status: ('A' for Active; 'I' for Inactive)
REMARK    1  A    between atoms: O_3  and  C_16
REMARK    2  A    between atoms: O_4  and  C_17
REMARK    3  A    between atoms: O_4  and  C_22
REMARK    4  A    between atoms: O_5  and  C_19
REMARK    5  A    between atoms: O_5  and  C_23
REMARK    6  A    between atoms: O_6  and  C_21
REMARK                            x       y       z     vdW  Elec       q    Type
REMARK                         _______ _______ _______ _____ _____    ______ ____
ROOT
ATOM      1  O   UNL     1      50.997   0.857  10.888  0.00  0.00    +0.000 OA
ATOM      2  O   UNL     1      49.690   1.807   7.286  0.00  0.00    +0.000 OA
ATOM      3  C   UNL     1      49.004   1.265   9.582  0.00  0.00    +0.000 C 
ATOM      4  C   UNL     1      50.235   0.368   9.755  0.00  0.00    +0.000 C 
ATOM      5  C   UNL     1      49.494   2.494  10.266  0.00  0.00    +0.000 A 
ATOM      6  C   UNL     1      48.614   1.386   8.123  0.00  0.00    +0.000 C 
ATOM      7  C   UNL     1      51.122   0.300   8.530  0.00  0.00    +0.000 A 
ATOM      8  C   UNL     1      50.613   2.169  11.017  0.00  0.00    +0.000 A 
ATOM      9  C   UNL     1      50.817   1.032   7.370  0.00  0.00    +0.000 A 
ATOM     10  C   UNL     1      48.974   3.777  10.288  0.00  0.00    +0.000 A 
ATOM     11  C   UNL     1      52.275  -0.505   8.560  0.00  0.00    +0.000 A 
ATOM     12  C   UNL     1      51.238   3.109  11.811  0.00  0.00    +0.000 A 
ATOM     13  C   UNL     1      51.688   0.993   6.272  0.00  0.00    +0.000 A 
ATOM     14  C   UNL     1      49.608   4.746  11.079  0.00  0.00    +0.000 A 
ATOM     15  C   UNL     1      50.740   4.418  11.844  0.00  0.00    +0.000 A 
ATOM     16  C   UNL     1      53.112  -0.587   7.451  0.00  0.00    +0.000 A 
ATOM     17  C   UNL     1      52.808   0.155   6.320  0.00  0.00    +0.000 A 
ENDROOT
BRANCH  12  18
ATOM     18  O   UNL     1      52.335   2.769  12.553  0.00  0.00    +0.000 OA
ATOM     19  H   UNL     1      53.069   2.719  11.913  0.00  0.00    +0.000 HD
ENDBRANCH  12  18
BRANCH  13  20
ATOM     20  O   UNL     1      51.524   1.665   5.084  0.00  0.00    +0.000 OA
ATOM     21  C   UNL     1      51.953   3.025   5.112  0.00  0.00    +0.000 C 
ENDBRANCH  13  20
BRANCH  15  22
ATOM     22  O   UNL     1      51.435   5.278  12.658  0.00  0.00    +0.000 OA
ATOM     23  C   UNL     1      50.852   6.556  12.886  0.00  0.00    +0.000 C 
ENDBRANCH  15  22
BRANCH  17  24
ATOM     24  O   UNL     1      53.644   0.061   5.239  0.00  0.00    +0.000 OA
ATOM     25  H   UNL     1      53.287   0.697   4.591  0.00  0.00    +0.000 HD
ENDBRANCH  17  24
TORSDOF 4
ENDMDL
