MODEL 1
REMARK VINA RESULT:      -6.5      0.000      0.000
REMARK  Name = 
REMARK  9 active torsions:
REMARK  status: ('A' for Active; 'I' for Inactive)
REMARK    1  A    between atoms: O_1  and  N_7
REMARK    2  A    between atoms: O_1  and  C_20
REMARK    3  A    between atoms: O_2  and  C_14
REMARK    4  A    between atoms: O_3  and  C_18
REMARK    5  A    between atoms: O_4  and  C_25
REMARK    6  A    between atoms: C_8  and  C_10
REMARK    7  A    between atoms: C_17  and  C_18
REMARK    8  A    between atoms: C_17  and  C_20
REMARK    9  A    between atoms: C_18  and  C_25
REMARK                            x       y       z     vdW  Elec       q    Type
REMARK                         _______ _______ _______ _____ _____    ______ ____
ROOT
ATOM      1  N   UNL     1      33.181  17.902  18.075  0.00  0.00    +0.000 NA
ATOM      2  N   UNL     1      34.132  16.832  21.320  0.00  0.00    +0.000 NA
ATOM      3  C   UNL     1      34.032  17.864  19.070  0.00  0.00    +0.000 C 
ATOM      4  C   UNL     1      33.542  16.943  20.173  0.00  0.00    +0.000 C 
ATOM      5  C   UNL     1      32.312  16.374  19.640  0.00  0.00    +0.000 A 
ATOM      6  C   UNL     1      32.154  17.002  18.405  0.00  0.00    +0.000 A 
ATOM      7  C   UNL     1      31.403  15.450  20.125  0.00  0.00    +0.000 A 
ATOM      8  C   UNL     1      31.058  16.711  17.612  0.00  0.00    +0.000 A 
ATOM      9  C   UNL     1      30.295  15.155  19.326  0.00  0.00    +0.000 A 
ATOM     10  C   UNL     1      30.123  15.781  18.079  0.00  0.00    +0.000 A 
ENDROOT
BRANCH   3  12
ATOM     11  N   UNL     1      36.628  20.392  18.914  0.00  0.00    +0.000 N 
ATOM     12  C   UNL     1      35.242  18.651  19.034  0.00  0.00    +0.000 A 
ATOM     13  C   UNL     1      36.594  18.180  19.145  0.00  0.00    +0.000 A 
ATOM     14  C   UNL     1      37.435  19.289  19.054  0.00  0.00    +0.000 A 
ATOM     15  C   UNL     1      35.306  20.029  18.922  0.00  0.00    +0.000 A 
ATOM     16  C   UNL     1      37.185  16.908  19.302  0.00  0.00    +0.000 A 
ATOM     17  C   UNL     1      38.831  19.194  19.112  0.00  0.00    +0.000 A 
ATOM     18  C   UNL     1      38.578  16.793  19.362  0.00  0.00    +0.000 A 
ATOM     19  C   UNL     1      39.388  17.921  19.268  0.00  0.00    +0.000 A 
ATOM     20  H   UNL     1      36.976  21.336  18.845  0.00  0.00    +0.000 HD
BRANCH  15  21
ATOM     21  O   UNL     1      34.334  20.933  18.865  0.00  0.00    +0.000 OA
ATOM     22  H   UNL     1      33.787  20.796  18.075  0.00  0.00    +0.000 HD
ENDBRANCH  15  21
ENDBRANCH   3  12
BRANCH   2  23
ATOM     23  O   UNL     1      33.460  15.958  22.178  0.00  0.00    +0.000 OA
BRANCH  23  24
ATOM     24  C   UNL     1      34.209  15.848  23.385  0.00  0.00    +0.000 C 
BRANCH  24  25
ATOM     25  C   UNL     1      34.461  14.379  23.693  0.00  0.00    +0.000 C 
BRANCH  25  26
ATOM     26  C   UNL     1      35.636  13.772  22.926  0.00  0.00    +0.000 C 
BRANCH  26  27
ATOM     27  O   UNL     1      36.293  12.837  23.796  0.00  0.00    +0.000 OA
ATOM     28  H   UNL     1      35.817  11.995  23.651  0.00  0.00    +0.000 HD
ENDBRANCH  26  27
BRANCH  26  29
ATOM     29  C   UNL     1      35.232  13.033  21.647  0.00  0.00    +0.000 C 
BRANCH  29  30
ATOM     30  O   UNL     1      35.209  13.979  20.573  0.00  0.00    +0.000 OA
ATOM     31  H   UNL     1      34.363  13.851  20.108  0.00  0.00    +0.000 HD
ENDBRANCH  29  30
ENDBRANCH  26  29
ENDBRANCH  25  26
ENDBRANCH  24  25
ENDBRANCH  23  24
ENDBRANCH   2  23
TORSDOF 9
ENDMDL
MODEL 2
REMARK VINA RESULT:      -6.5     20.124     22.866
REMARK  Name = 
REMARK  9 active torsions:
REMARK  status: ('A' for Active; 'I' for Inactive)
REMARK    1  A    between atoms: O_1  and  N_7
REMARK    2  A    between atoms: O_1  and  C_20
REMARK    3  A    between atoms: O_2  and  C_14
REMARK    4  A    between atoms: O_3  and  C_18
REMARK    5  A    between atoms: O_4  and  C_25
REMARK    6  A    between atoms: C_8  and  C_10
REMARK    7  A    between atoms: C_17  and  C_18
REMARK    8  A    between atoms: C_17  and  C_20
REMARK    9  A    between atoms: C_18  and  C_25
REMARK                            x       y       z     vdW  Elec       q    Type
REMARK                         _______ _______ _______ _____ _____    ______ ____
ROOT
ATOM      1  N   UNL     1      50.973   4.302   9.015  0.00  0.00    +0.000 NA
ATOM      2  N   UNL     1      50.639   5.764  12.229  0.00  0.00    +0.000 NA
ATOM      3  C   UNL     1      50.686   4.222  10.290  0.00  0.00    +0.000 C 
ATOM      4  C   UNL     1      50.751   5.587  10.951  0.00  0.00    +0.000 C 
ATOM      5  C   UNL     1      51.037   6.500   9.854  0.00  0.00    +0.000 A 
ATOM      6  C   UNL     1      51.173   5.666   8.744  0.00  0.00    +0.000 A 
ATOM      7  C   UNL     1      51.190   7.873   9.773  0.00  0.00    +0.000 A 
ATOM      8  C   UNL     1      51.472   6.202   7.504  0.00  0.00    +0.000 A 
ATOM      9  C   UNL     1      51.491   8.416   8.521  0.00  0.00    +0.000 A 
ATOM     10  C   UNL     1      51.632   7.587   7.395  0.00  0.00    +0.000 A 
ENDROOT
BRANCH   3  12
ATOM     11  N   UNL     1      49.368   1.017  11.362  0.00  0.00    +0.000 N 
ATOM     12  C   UNL     1      50.379   2.948  10.897  0.00  0.00    +0.000 A 
ATOM     13  C   UNL     1      51.115   2.272  11.928  0.00  0.00    +0.000 A 
ATOM     14  C   UNL     1      50.451   1.077  12.205  0.00  0.00    +0.000 A 
ATOM     15  C   UNL     1      49.322   2.124  10.553  0.00  0.00    +0.000 A 
ATOM     16  C   UNL     1      52.280   2.573  12.667  0.00  0.00    +0.000 A 
ATOM     17  C   UNL     1      50.890   0.169  13.175  0.00  0.00    +0.000 A 
ATOM     18  C   UNL     1      52.734   1.677  13.641  0.00  0.00    +0.000 A 
ATOM     19  C   UNL     1      52.047   0.492  13.890  0.00  0.00    +0.000 A 
ATOM     20  H   UNL     1      48.721   0.244  11.335  0.00  0.00    +0.000 HD
BRANCH  15  21
ATOM     21  O   UNL     1      48.398   2.259   9.608  0.00  0.00    +0.000 OA
ATOM     22  H   UNL     1      47.542   1.923   9.918  0.00  0.00    +0.000 HD
ENDBRANCH  15  21
ENDBRANCH   3  12
BRANCH   2  23
ATOM     23  O   UNL     1      50.782   7.105  12.592  0.00  0.00    +0.000 OA
BRANCH  23  24
ATOM     24  C   UNL     1      50.522   7.223  13.988  0.00  0.00    +0.000 C 
BRANCH  24  25
ATOM     25  C   UNL     1      51.741   7.814  14.682  0.00  0.00    +0.000 C 
BRANCH  25  26
ATOM     26  C   UNL     1      52.873   8.204  13.731  0.00  0.00    +0.000 C 
BRANCH  26  27
ATOM     27  O   UNL     1      53.367   9.489  14.139  0.00  0.00    +0.000 OA
ATOM     28  H   UNL     1      53.139   9.547  15.089  0.00  0.00    +0.000 HD
ENDBRANCH  26  27
BRANCH  26  29
ATOM     29  C   UNL     1      54.048   7.220  13.723  0.00  0.00    +0.000 C 
BRANCH  29  30
ATOM     30  O   UNL     1      53.669   6.080  12.944  0.00  0.00    +0.000 OA
ATOM     31  H   UNL     1      54.325   6.002  12.229  0.00  0.00    +0.000 HD
ENDBRANCH  29  30
ENDBRANCH  26  29
ENDBRANCH  25  26
ENDBRANCH  24  25
ENDBRANCH  23  24
ENDBRANCH   2  23
TORSDOF 9
ENDMDL
MODEL 3
REMARK VINA RESULT:      -5.9     21.206     23.649
REMARK  Name = 
REMARK  9 active torsions:
REMARK  status: ('A' for Active; 'I' for Inactive)
REMARK    1  A    between atoms: O_1  and  N_7
REMARK    2  A    between atoms: O_1  and  C_20
REMARK    3  A    between atoms: O_2  and  C_14
REMARK    4  A    between atoms: O_3  and  C_18
REMARK    5  A    between atoms: O_4  and  C_25
REMARK    6  A    between atoms: C_8  and  C_10
REMARK    7  A    between atoms: C_17  and  C_18
REMARK    8  A    between atoms: C_17  and  C_20
REMARK    9  A    between atoms: C_18  and  C_25
REMARK                            x       y       z     vdW  Elec       q    Type
REMARK                         _______ _______ _______ _____ _____    ______ ____
ROOT
ATOM      1  N   UNL     1      52.765   4.874  12.049  0.00  0.00    +0.000 NA
ATOM      2  N   UNL     1      50.162   3.512  10.061  0.00  0.00    +0.000 NA
ATOM      3  C   UNL     1      51.798   5.003  11.176  0.00  0.00    +0.000 C 
ATOM      4  C   UNL     1      51.071   3.687  10.967  0.00  0.00    +0.000 C 
ATOM      5  C   UNL     1      51.700   2.779  11.917  0.00  0.00    +0.000 A 
ATOM      6  C   UNL     1      52.705   3.547  12.506  0.00  0.00    +0.000 A 
ATOM      7  C   UNL     1      51.487   1.453  12.251  0.00  0.00    +0.000 A 
ATOM      8  C   UNL     1      53.534   2.990  13.463  0.00  0.00    +0.000 A 
ATOM      9  C   UNL     1      52.323   0.889  13.218  0.00  0.00    +0.000 A 
ATOM     10  C   UNL     1      53.340   1.651  13.819  0.00  0.00    +0.000 A 
ENDROOT
BRANCH   3  12
ATOM     11  N   UNL     1      51.099   8.433  10.228  0.00  0.00    +0.000 N 
ATOM     12  C   UNL     1      51.550   6.272  10.534  0.00  0.00    +0.000 A 
ATOM     13  C   UNL     1      51.568   6.558   9.127  0.00  0.00    +0.000 A 
ATOM     14  C   UNL     1      51.270   7.912   8.968  0.00  0.00    +0.000 A 
ATOM     15  C   UNL     1      51.286   7.466  11.182  0.00  0.00    +0.000 A 
ATOM     16  C   UNL     1      51.795   5.787   7.967  0.00  0.00    +0.000 A 
ATOM     17  C   UNL     1      51.190   8.533   7.716  0.00  0.00    +0.000 A 
ATOM     18  C   UNL     1      51.720   6.390   6.707  0.00  0.00    +0.000 A 
ATOM     19  C   UNL     1      51.421   7.744   6.586  0.00  0.00    +0.000 A 
ATOM     20  H   UNL     1      50.894   9.404  10.409  0.00  0.00    +0.000 HD
BRANCH  15  21
ATOM     21  O   UNL     1      51.237   7.748  12.479  0.00  0.00    +0.000 OA
ATOM     22  H   UNL     1      51.405   6.951  13.008  0.00  0.00    +0.000 HD
ENDBRANCH  15  21
ENDBRANCH   3  12
BRANCH   2  23
ATOM     23  O   UNL     1      49.681   2.201  10.041  0.00  0.00    +0.000 OA
BRANCH  23  24
ATOM     24  C   UNL     1      48.676   2.107   9.034  0.00  0.00    +0.000 C 
BRANCH  24  25
ATOM     25  C   UNL     1      49.036   0.992   8.063  0.00  0.00    +0.000 C 
BRANCH  25  26
ATOM     26  C   UNL     1      50.079   1.387   7.017  0.00  0.00    +0.000 C 
BRANCH  26  27
ATOM     27  O   UNL     1      50.210   2.816   7.044  0.00  0.00    +0.000 OA
ATOM     28  H   UNL     1      49.922   3.070   7.943  0.00  0.00    +0.000 HD
ENDBRANCH  26  27
BRANCH  26  29
ATOM     29  C   UNL     1      51.464   0.775   7.254  0.00  0.00    +0.000 C 
BRANCH  29  30
ATOM     30  O   UNL     1      51.937   1.223   8.529  0.00  0.00    +0.000 OA
ATOM     31  H   UNL     1      51.645   2.147   8.624  0.00  0.00    +0.000 HD
ENDBRANCH  29  30
ENDBRANCH  26  29
ENDBRANCH  25  26
ENDBRANCH  24  25
ENDBRANCH  23  24
ENDBRANCH   2  23
TORSDOF 9
ENDMDL
MODEL 4
REMARK VINA RESULT:      -5.6      1.438      2.406
REMARK  Name = 
REMARK  9 active torsions:
REMARK  status: ('A' for Active; 'I' for Inactive)
REMARK    1  A    between atoms: O_1  and  N_7
REMARK    2  A    between atoms: O_1  and  C_20
REMARK    3  A    between atoms: O_2  and  C_14
REMARK    4  A    between atoms: O_3  and  C_18
REMARK    5  A    between atoms: O_4  and  C_25
REMARK    6  A    between atoms: C_8  and  C_10
REMARK    7  A    between atoms: C_17  and  C_18
REMARK    8  A    between atoms: C_17  and  C_20
REMARK    9  A    between atoms: C_18  and  C_25
REMARK                            x       y       z     vdW  Elec       q    Type
REMARK                         _______ _______ _______ _____ _____    ______ ____
ROOT
ATOM      1  N   UNL     1      33.056  17.614  18.009  0.00  0.00    +0.000 NA
ATOM      2  N   UNL     1      33.860  16.603  21.313  0.00  0.00    +0.000 NA
ATOM      3  C   UNL     1      33.865  17.586  19.038  0.00  0.00    +0.000 C 
ATOM      4  C   UNL     1      33.318  16.697  20.140  0.00  0.00    +0.000 C 
ATOM      5  C   UNL     1      32.102  16.133  19.570  0.00  0.00    +0.000 A 
ATOM      6  C   UNL     1      32.003  16.736  18.316  0.00  0.00    +0.000 A 
ATOM      7  C   UNL     1      31.160  15.233  20.037  0.00  0.00    +0.000 A 
ATOM      8  C   UNL     1      30.935  16.443  17.486  0.00  0.00    +0.000 A 
ATOM      9  C   UNL     1      30.082  14.935  19.201  0.00  0.00    +0.000 A 
ATOM     10  C   UNL     1      29.969  15.537  17.935  0.00  0.00    +0.000 A 
ENDROOT
BRANCH   3  12
ATOM     11  N   UNL     1      36.502  20.074  18.933  0.00  0.00    +0.000 N 
ATOM     12  C   UNL     1      35.087  18.355  19.034  0.00  0.00    +0.000 A 
ATOM     13  C   UNL     1      36.426  17.869  19.211  0.00  0.00    +0.000 A 
ATOM     14  C   UNL     1      37.287  18.963  19.130  0.00  0.00    +0.000 A 
ATOM     15  C   UNL     1      35.176  19.730  18.895  0.00  0.00    +0.000 A 
ATOM     16  C   UNL     1      36.992  16.592  19.419  0.00  0.00    +0.000 A 
ATOM     17  C   UNL     1      38.677  18.850  19.247  0.00  0.00    +0.000 A 
ATOM     18  C   UNL     1      38.380  16.459  19.538  0.00  0.00    +0.000 A 
ATOM     19  C   UNL     1      39.209  17.574  19.453  0.00  0.00    +0.000 A 
ATOM     20  H   UNL     1      36.867  21.012  18.858  0.00  0.00    +0.000 HD
BRANCH  15  21
ATOM     21  O   UNL     1      34.220  20.645  18.780  0.00  0.00    +0.000 OA
ATOM     22  H   UNL     1      34.592  21.490  18.479  0.00  0.00    +0.000 HD
ENDBRANCH  15  21
ENDBRANCH   3  12
BRANCH   2  23
ATOM     23  O   UNL     1      33.141  15.758  22.161  0.00  0.00    +0.000 OA
BRANCH  23  24
ATOM     24  C   UNL     1      33.978  15.403  23.258  0.00  0.00    +0.000 C 
BRANCH  24  25
ATOM     25  C   UNL     1      34.736  16.634  23.734  0.00  0.00    +0.000 C 
BRANCH  25  26
ATOM     26  C   UNL     1      33.975  17.480  24.755  0.00  0.00    +0.000 C 
BRANCH  26  27
ATOM     27  O   UNL     1      32.603  17.056  24.744  0.00  0.00    +0.000 OA
ATOM     28  H   UNL     1      32.286  17.234  25.652  0.00  0.00    +0.000 HD
ENDBRANCH  26  27
BRANCH  26  29
ATOM     29  C   UNL     1      34.503  17.353  26.188  0.00  0.00    +0.000 C 
BRANCH  29  30
ATOM     30  O   UNL     1      35.202  18.559  26.514  0.00  0.00    +0.000 OA
ATOM     31  H   UNL     1      35.134  18.666  27.480  0.00  0.00    +0.000 HD
ENDBRANCH  29  30
ENDBRANCH  26  29
ENDBRANCH  25  26
ENDBRANCH  24  25
ENDBRANCH  23  24
ENDBRANCH   2  23
TORSDOF 9
ENDMDL
MODEL 5
REMARK VINA RESULT:      -5.4     13.845     17.123
REMARK  Name = 
REMARK  9 active torsions:
REMARK  status: ('A' for Active; 'I' for Inactive)
REMARK    1  A    between atoms: O_1  and  N_7
REMARK    2  A    between atoms: O_1  and  C_20
REMARK    3  A    between atoms: O_2  and  C_14
REMARK    4  A    between atoms: O_3  and  C_18
REMARK    5  A    between atoms: O_4  and  C_25
REMARK    6  A    between atoms: C_8  and  C_10
REMARK    7  A    between atoms: C_17  and  C_18
REMARK    8  A    between atoms: C_17  and  C_20
REMARK    9  A    between atoms: C_18  and  C_25
REMARK                            x       y       z     vdW  Elec       q    Type
REMARK                         _______ _______ _______ _____ _____    ______ ____
ROOT
ATOM      1  N   UNL     1      49.789  20.685  16.690  0.00  0.00    +0.000 NA
ATOM      2  N   UNL     1      50.502  17.415  15.514  0.00  0.00    +0.000 NA
ATOM      3  C   UNL     1      49.815  19.386  16.850  0.00  0.00    +0.000 C 
ATOM      4  C   UNL     1      50.469  18.701  15.664  0.00  0.00    +0.000 C 
ATOM      5  C   UNL     1      50.906  19.801  14.815  0.00  0.00    +0.000 A 
ATOM      6  C   UNL     1      50.452  20.942  15.478  0.00  0.00    +0.000 A 
ATOM      7  C   UNL     1      51.587  19.864  13.612  0.00  0.00    +0.000 A 
ATOM      8  C   UNL     1      50.677  22.196  14.937  0.00  0.00    +0.000 A 
ATOM      9  C   UNL     1      51.816  21.129  13.065  0.00  0.00    +0.000 A 
ATOM     10  C   UNL     1      51.364  22.287  13.722  0.00  0.00    +0.000 A 
ENDROOT
BRANCH   3  12
ATOM     11  N   UNL     1      47.772  18.087  19.551  0.00  0.00    +0.000 N 
ATOM     12  C   UNL     1      49.248  18.779  18.032  0.00  0.00    +0.000 A 
ATOM     13  C   UNL     1      49.944  18.074  19.071  0.00  0.00    +0.000 A 
ATOM     14  C   UNL     1      48.996  17.666  20.010  0.00  0.00    +0.000 A 
ATOM     15  C   UNL     1      47.902  18.738  18.351  0.00  0.00    +0.000 A 
ATOM     16  C   UNL     1      51.298  17.756  19.311  0.00  0.00    +0.000 A 
ATOM     17  C   UNL     1      49.330  16.958  21.171  0.00  0.00    +0.000 A 
ATOM     18  C   UNL     1      51.651  17.048  20.465  0.00  0.00    +0.000 A 
ATOM     19  C   UNL     1      50.679  16.656  21.381  0.00  0.00    +0.000 A 
ATOM     20  H   UNL     1      46.902  17.907  20.029  0.00  0.00    +0.000 HD
BRANCH  15  21
ATOM     21  O   UNL     1      46.845  19.179  17.679  0.00  0.00    +0.000 OA
ATOM     22  H   UNL     1      46.308  19.767  18.234  0.00  0.00    +0.000 HD
ENDBRANCH  15  21
ENDBRANCH   3  12
BRANCH   2  23
ATOM     23  O   UNL     1      51.117  17.038  14.318  0.00  0.00    +0.000 OA
BRANCH  23  24
ATOM     24  C   UNL     1      50.532  15.815  13.878  0.00  0.00    +0.000 C 
BRANCH  24  25
ATOM     25  C   UNL     1      49.691  16.074  12.637  0.00  0.00    +0.000 C 
BRANCH  25  26
ATOM     26  C   UNL     1      50.343  17.019  11.626  0.00  0.00    +0.000 C 
BRANCH  26  27
ATOM     27  O   UNL     1      51.743  16.704  11.569  0.00  0.00    +0.000 OA
ATOM     28  H   UNL     1      52.034  17.048  10.701  0.00  0.00    +0.000 HD
ENDBRANCH  26  27
BRANCH  26  29
ATOM     29  C   UNL     1      49.770  16.909  10.210  0.00  0.00    +0.000 C 
BRANCH  29  30
ATOM     30  O   UNL     1      48.352  17.091  10.287  0.00  0.00    +0.000 OA
ATOM     31  H   UNL     1      48.204  17.886  10.830  0.00  0.00    +0.000 HD
ENDBRANCH  29  30
ENDBRANCH  26  29
ENDBRANCH  25  26
ENDBRANCH  24  25
ENDBRANCH  23  24
ENDBRANCH   2  23
TORSDOF 9
ENDMDL
MODEL 6
REMARK VINA RESULT:      -5.2     18.274     22.036
REMARK  Name = 
REMARK  9 active torsions:
REMARK  status: ('A' for Active; 'I' for Inactive)
REMARK    1  A    between atoms: O_1  and  N_7
REMARK    2  A    between atoms: O_1  and  C_20
REMARK    3  A    between atoms: O_2  and  C_14
REMARK    4  A    between atoms: O_3  and  C_18
REMARK    5  A    between atoms: O_4  and  C_25
REMARK    6  A    between atoms: C_8  and  C_10
REMARK    7  A    between atoms: C_17  and  C_18
REMARK    8  A    between atoms: C_17  and  C_20
REMARK    9  A    between atoms: C_18  and  C_25
REMARK                            x       y       z     vdW  Elec       q    Type
REMARK                         _______ _______ _______ _____ _____    ______ ____
ROOT
ATOM      1  N   UNL     1      51.477  19.907   8.552  0.00  0.00    +0.000 NA
ATOM      2  N   UNL     1      53.630  17.098   8.786  0.00  0.00    +0.000 NA
ATOM      3  C   UNL     1      51.763  18.712   9.005  0.00  0.00    +0.000 C 
ATOM      4  C   UNL     1      53.157  18.286   8.581  0.00  0.00    +0.000 C 
ATOM      5  C   UNL     1      53.687  19.448   7.882  0.00  0.00    +0.000 A 
ATOM      6  C   UNL     1      52.630  20.359   7.888  0.00  0.00    +0.000 A 
ATOM      7  C   UNL     1      54.902  19.727   7.282  0.00  0.00    +0.000 A 
ATOM      8  C   UNL     1      52.773  21.594   7.281  0.00  0.00    +0.000 A 
ATOM      9  C   UNL     1      55.049  20.974   6.669  0.00  0.00    +0.000 A 
ATOM     10  C   UNL     1      53.992  21.900   6.668  0.00  0.00    +0.000 A 
ENDROOT
BRANCH   3  12
ATOM     11  N   UNL     1      48.896  16.999  10.420  0.00  0.00    +0.000 N 
ATOM     12  C   UNL     1      50.798  17.968   9.781  0.00  0.00    +0.000 A 
ATOM     13  C   UNL     1      51.010  17.307  11.037  0.00  0.00    +0.000 A 
ATOM     14  C   UNL     1      49.801  16.723  11.415  0.00  0.00    +0.000 A 
ATOM     15  C   UNL     1      49.484  17.728   9.419  0.00  0.00    +0.000 A 
ATOM     16  C   UNL     1      52.118  17.161  11.900  0.00  0.00    +0.000 A 
ATOM     17  C   UNL     1      49.643  16.002  12.604  0.00  0.00    +0.000 A 
ATOM     18  C   UNL     1      51.979  16.444  13.093  0.00  0.00    +0.000 A 
ATOM     19  C   UNL     1      50.757  15.874  13.439  0.00  0.00    +0.000 A 
ATOM     20  H   UNL     1      47.940  16.677  10.426  0.00  0.00    +0.000 HD
BRANCH  15  21
ATOM     21  O   UNL     1      48.822  18.060   8.316  0.00  0.00    +0.000 OA
ATOM     22  H   UNL     1      48.080  17.452   8.168  0.00  0.00    +0.000 HD
ENDBRANCH  15  21
ENDBRANCH   3  12
BRANCH   2  23
ATOM     23  O   UNL     1      54.915  16.943   8.261  0.00  0.00    +0.000 OA
BRANCH  23  24
ATOM     24  C   UNL     1      55.822  16.742   9.342  0.00  0.00    +0.000 C 
BRANCH  24  25
ATOM     25  C   UNL     1      57.155  16.250   8.799  0.00  0.00    +0.000 C 
BRANCH  25  26
ATOM     26  C   UNL     1      57.152  14.784   8.367  0.00  0.00    +0.000 C 
BRANCH  26  27
ATOM     27  O   UNL     1      56.006  14.153   8.960  0.00  0.00    +0.000 OA
ATOM     28  H   UNL     1      55.943  13.288   8.507  0.00  0.00    +0.000 HD
ENDBRANCH  26  27
BRANCH  26  29
ATOM     29  C   UNL     1      57.079  14.580   6.850  0.00  0.00    +0.000 C 
BRANCH  29  30
ATOM     30  O   UNL     1      55.703  14.637   6.458  0.00  0.00    +0.000 OA
ATOM     31  H   UNL     1      55.419  13.717   6.312  0.00  0.00    +0.000 HD
ENDBRANCH  29  30
ENDBRANCH  26  29
ENDBRANCH  25  26
ENDBRANCH  24  25
ENDBRANCH  23  24
ENDBRANCH   2  23
TORSDOF 9
ENDMDL
MODEL 7
REMARK VINA RESULT:      -5.0      3.286      4.696
REMARK  Name = 
REMARK  9 active torsions:
REMARK  status: ('A' for Active; 'I' for Inactive)
REMARK    1  A    between atoms: O_1  and  N_7
REMARK    2  A    between atoms: O_1  and  C_20
REMARK    3  A    between atoms: O_2  and  C_14
REMARK    4  A    between atoms: O_3  and  C_18
REMARK    5  A    between atoms: O_4  and  C_25
REMARK    6  A    between atoms: C_8  and  C_10
REMARK    7  A    between atoms: C_17  and  C_18
REMARK    8  A    between atoms: C_17  and  C_20
REMARK    9  A    between atoms: C_18  and  C_25
REMARK                            x       y       z     vdW  Elec       q    Type
REMARK                         _______ _______ _______ _____ _____    ______ ____
ROOT
ATOM      1  N   UNL     1      33.686  16.010  19.857  0.00  0.00    +0.000 NA
ATOM      2  N   UNL     1      34.391  18.400  22.381  0.00  0.00    +0.000 NA
ATOM      3  C   UNL     1      34.528  16.719  20.566  0.00  0.00    +0.000 C 
ATOM      4  C   UNL     1      33.805  17.519  21.634  0.00  0.00    +0.000 C 
ATOM      5  C   UNL     1      32.414  17.108  21.506  0.00  0.00    +0.000 A 
ATOM      6  C   UNL     1      32.419  16.229  20.423  0.00  0.00    +0.000 A 
ATOM      7  C   UNL     1      31.257  17.435  22.192  0.00  0.00    +0.000 A 
ATOM      8  C   UNL     1      31.238  15.646  19.996  0.00  0.00    +0.000 A 
ATOM      9  C   UNL     1      30.065  16.847  21.763  0.00  0.00    +0.000 A 
ATOM     10  C   UNL     1      30.055  15.960  20.672  0.00  0.00    +0.000 A 
ENDROOT
BRANCH   3  12
ATOM     11  N   UNL     1      38.032  15.959  20.017  0.00  0.00    +0.000 N 
ATOM     12  C   UNL     1      35.942  16.689  20.275  0.00  0.00    +0.000 A 
ATOM     13  C   UNL     1      36.760  17.771  19.803  0.00  0.00    +0.000 A 
ATOM     14  C   UNL     1      38.060  17.287  19.664  0.00  0.00    +0.000 A 
ATOM     15  C   UNL     1      36.762  15.578  20.366  0.00  0.00    +0.000 A 
ATOM     16  C   UNL     1      36.518  19.127  19.493  0.00  0.00    +0.000 A 
ATOM     17  C   UNL     1      39.128  18.083  19.231  0.00  0.00    +0.000 A 
ATOM     18  C   UNL     1      37.572  19.938  19.058  0.00  0.00    +0.000 A 
ATOM     19  C   UNL     1      38.858  19.421  18.931  0.00  0.00    +0.000 A 
ATOM     20  H   UNL     1      38.839  15.355  19.990  0.00  0.00    +0.000 HD
BRANCH  15  21
ATOM     21  O   UNL     1      36.473  14.321  20.683  0.00  0.00    +0.000 OA
ATOM     22  H   UNL     1      37.060  13.707  20.212  0.00  0.00    +0.000 HD
ENDBRANCH  15  21
ENDBRANCH   3  12
BRANCH   2  23
ATOM     23  O   UNL     1      33.500  19.033  23.251  0.00  0.00    +0.000 OA
BRANCH  23  24
ATOM     24  C   UNL     1      33.485  20.425  22.945  0.00  0.00    +0.000 C 
BRANCH  24  25
ATOM     25  C   UNL     1      34.683  21.099  23.596  0.00  0.00    +0.000 C 
BRANCH  25  26
ATOM     26  C   UNL     1      34.597  21.193  25.119  0.00  0.00    +0.000 C 
BRANCH  26  27
ATOM     27  O   UNL     1      35.024  19.935  25.662  0.00  0.00    +0.000 OA
ATOM     28  H   UNL     1      34.361  19.292  25.339  0.00  0.00    +0.000 HD
ENDBRANCH  26  27
BRANCH  26  29
ATOM     29  C   UNL     1      35.468  22.297  25.727  0.00  0.00    +0.000 C 
BRANCH  29  30
ATOM     30  O   UNL     1      35.263  22.298  27.144  0.00  0.00    +0.000 OA
ATOM     31  H   UNL     1      34.773  23.113  27.353  0.00  0.00    +0.000 HD
ENDBRANCH  29  30
ENDBRANCH  26  29
ENDBRANCH  25  26
ENDBRANCH  24  25
ENDBRANCH  23  24
ENDBRANCH   2  23
TORSDOF 9
ENDMDL
MODEL 8
REMARK VINA RESULT:      -4.7     18.118     21.758
REMARK  Name = 
REMARK  9 active torsions:
REMARK  status: ('A' for Active; 'I' for Inactive)
REMARK    1  A    between atoms: O_1  and  N_7
REMARK    2  A    between atoms: O_1  and  C_20
REMARK    3  A    between atoms: O_2  and  C_14
REMARK    4  A    between atoms: O_3  and  C_18
REMARK    5  A    between atoms: O_4  and  C_25
REMARK    6  A    between atoms: C_8  and  C_10
REMARK    7  A    between atoms: C_17  and  C_18
REMARK    8  A    between atoms: C_17  and  C_20
REMARK    9  A    between atoms: C_18  and  C_25
REMARK                            x       y       z     vdW  Elec       q    Type
REMARK                         _______ _______ _______ _____ _____    ______ ____
ROOT
ATOM      1  N   UNL     1      54.305  20.514   7.880  0.00  0.00    +0.000 NA
ATOM      2  N   UNL     1      51.059  19.114   8.183  0.00  0.00    +0.000 NA
ATOM      3  C   UNL     1      53.000  20.618   7.849  0.00  0.00    +0.000 C 
ATOM      4  C   UNL     1      52.337  19.316   8.258  0.00  0.00    +0.000 C 
ATOM      5  C   UNL     1      53.449  18.449   8.620  0.00  0.00    +0.000 A 
ATOM      6  C   UNL     1      54.581  19.220   8.353  0.00  0.00    +0.000 A 
ATOM      7  C   UNL     1      53.530  17.154   9.101  0.00  0.00    +0.000 A 
ATOM      8  C   UNL     1      55.844  18.697   8.567  0.00  0.00    +0.000 A 
ATOM      9  C   UNL     1      54.805  16.624   9.318  0.00  0.00    +0.000 A 
ATOM     10  C   UNL     1      55.954  17.389   9.052  0.00  0.00    +0.000 A 
ENDROOT
BRANCH   3  12
ATOM     11  N   UNL     1      51.362  23.839   7.529  0.00  0.00    +0.000 N 
ATOM     12  C   UNL     1      52.371  21.854   7.443  0.00  0.00    +0.000 A 
ATOM     13  C   UNL     1      52.155  22.325   6.105  0.00  0.00    +0.000 A 
ATOM     14  C   UNL     1      51.512  23.560   6.191  0.00  0.00    +0.000 A 
ATOM     15  C   UNL     1      51.892  22.834   8.295  0.00  0.00    +0.000 A 
ATOM     16  C   UNL     1      52.434  21.810   4.821  0.00  0.00    +0.000 A 
ATOM     17  C   UNL     1      51.137  24.305   5.067  0.00  0.00    +0.000 A 
ATOM     18  C   UNL     1      52.067  22.539   3.685  0.00  0.00    +0.000 A 
ATOM     19  C   UNL     1      51.427  23.769   3.809  0.00  0.00    +0.000 A 
ATOM     20  H   UNL     1      50.942  24.686   7.881  0.00  0.00    +0.000 HD
BRANCH  15  21
ATOM     21  O   UNL     1      51.923  22.910   9.621  0.00  0.00    +0.000 OA
ATOM     22  H   UNL     1      51.972  22.023  10.013  0.00  0.00    +0.000 HD
ENDBRANCH  15  21
ENDBRANCH   3  12
BRANCH   2  23
ATOM     23  O   UNL     1      50.705  17.820   8.572  0.00  0.00    +0.000 OA
BRANCH  23  24
ATOM     24  C   UNL     1      49.380  17.856   9.096  0.00  0.00    +0.000 C 
BRANCH  24  25
ATOM     25  C   UNL     1      49.321  17.038  10.378  0.00  0.00    +0.000 C 
BRANCH  25  26
ATOM     26  C   UNL     1      50.543  17.204  11.282  0.00  0.00    +0.000 C 
BRANCH  26  27
ATOM     27  O   UNL     1      50.822  18.608  11.391  0.00  0.00    +0.000 OA
ATOM     28  H   UNL     1      50.906  18.766  12.353  0.00  0.00    +0.000 HD
ENDBRANCH  26  27
BRANCH  26  29
ATOM     29  C   UNL     1      50.355  16.642  12.695  0.00  0.00    +0.000 C 
BRANCH  29  30
ATOM     30  O   UNL     1      49.673  15.388  12.589  0.00  0.00    +0.000 OA
ATOM     31  H   UNL     1      50.356  14.714  12.422  0.00  0.00    +0.000 HD
ENDBRANCH  29  30
ENDBRANCH  26  29
ENDBRANCH  25  26
ENDBRANCH  24  25
ENDBRANCH  23  24
ENDBRANCH   2  23
TORSDOF 9
ENDMDL
MODEL 9
REMARK VINA RESULT:      -4.7     17.837     21.555
REMARK  Name = 
REMARK  9 active torsions:
REMARK  status: ('A' for Active; 'I' for Inactive)
REMARK    1  A    between atoms: O_1  and  N_7
REMARK    2  A    between atoms: O_1  and  C_20
REMARK    3  A    between atoms: O_2  and  C_14
REMARK    4  A    between atoms: O_3  and  C_18
REMARK    5  A    between atoms: O_4  and  C_25
REMARK    6  A    between atoms: C_8  and  C_10
REMARK    7  A    between atoms: C_17  and  C_18
REMARK    8  A    between atoms: C_17  and  C_20
REMARK    9  A    between atoms: C_18  and  C_25
REMARK                            x       y       z     vdW  Elec       q    Type
REMARK                         _______ _______ _______ _____ _____    ______ ____
ROOT
ATOM      1  N   UNL     1      51.203  20.572   9.352  0.00  0.00    +0.000 NA
ATOM      2  N   UNL     1      53.637  18.242   8.244  0.00  0.00    +0.000 NA
ATOM      3  C   UNL     1      51.684  19.356   9.285  0.00  0.00    +0.000 C 
ATOM      4  C   UNL     1      53.017  19.334   8.559  0.00  0.00    +0.000 C 
ATOM      5  C   UNL     1      53.294  20.737   8.282  0.00  0.00    +0.000 A 
ATOM      6  C   UNL     1      52.168  21.406   8.763  0.00  0.00    +0.000 A 
ATOM      7  C   UNL     1      54.349  21.399   7.680  0.00  0.00    +0.000 A 
ATOM      8  C   UNL     1      52.075  22.782   8.648  0.00  0.00    +0.000 A 
ATOM      9  C   UNL     1      54.258  22.788   7.563  0.00  0.00    +0.000 A 
ATOM     10  C   UNL     1      53.129  23.475   8.043  0.00  0.00    +0.000 A 
ENDROOT
BRANCH   3  12
ATOM     11  N   UNL     1      49.664  16.433  10.014  0.00  0.00    +0.000 N 
ATOM     12  C   UNL     1      50.952  18.243   9.844  0.00  0.00    +0.000 A 
ATOM     13  C   UNL     1      50.880  17.850  11.223  0.00  0.00    +0.000 A 
ATOM     14  C   UNL     1      50.059  16.725  11.298  0.00  0.00    +0.000 A 
ATOM     15  C   UNL     1      50.210  17.323   9.126  0.00  0.00    +0.000 A 
ATOM     16  C   UNL     1      51.427  18.355  12.423  0.00  0.00    +0.000 A 
ATOM     17  C   UNL     1      49.758  16.079  12.503  0.00  0.00    +0.000 A 
ATOM     18  C   UNL     1      51.138  17.723  13.637  0.00  0.00    +0.000 A 
ATOM     19  C   UNL     1      50.314  16.601  13.674  0.00  0.00    +0.000 A 
ATOM     20  H   UNL     1      49.076  15.649   9.774  0.00  0.00    +0.000 HD
BRANCH  15  21
ATOM     21  O   UNL     1      50.023  17.204   7.816  0.00  0.00    +0.000 OA
ATOM     22  H   UNL     1      50.490  17.909   7.339  0.00  0.00    +0.000 HD
ENDBRANCH  15  21
ENDBRANCH   3  12
BRANCH   2  23
ATOM     23  O   UNL     1      54.818  18.489   7.539  0.00  0.00    +0.000 OA
BRANCH  23  24
ATOM     24  C   UNL     1      55.516  17.256   7.386  0.00  0.00    +0.000 C 
BRANCH  24  25
ATOM     25  C   UNL     1      54.989  16.248   8.397  0.00  0.00    +0.000 C 
BRANCH  25  26
ATOM     26  C   UNL     1      55.741  16.247   9.728  0.00  0.00    +0.000 C 
BRANCH  26  27
ATOM     27  O   UNL     1      56.033  17.611  10.070  0.00  0.00    +0.000 OA
ATOM     28  H   UNL     1      56.831  17.827   9.548  0.00  0.00    +0.000 HD
ENDBRANCH  26  27
BRANCH  26  29
ATOM     29  C   UNL     1      54.958  15.621  10.887  0.00  0.00    +0.000 C 
BRANCH  29  30
ATOM     30  O   UNL     1      55.898  15.035  11.795  0.00  0.00    +0.000 OA
ATOM     31  H   UNL     1      55.658  14.095  11.874  0.00  0.00    +0.000 HD
ENDBRANCH  29  30
ENDBRANCH  26  29
ENDBRANCH  25  26
ENDBRANCH  24  25
ENDBRANCH  23  24
ENDBRANCH   2  23
TORSDOF 9
ENDMDL
