MODEL 1
REMARK VINA RESULT:      -6.2      0.000      0.000
REMARK  Name = IPA3.pdbqt.pdb
REMARK  5 active torsions:
REMARK  status: ('A' for Active; 'I' for Inactive)
REMARK    1  A    between atoms: S_1  and  S_2
REMARK    2  A    between atoms: S_1  and  C_15
REMARK    3  A    between atoms: S_2  and  C_3
REMARK    4  A    between atoms: C_10  and  O_13
REMARK    5  A    between atoms: C_22  and  O_25
REMARK                            x       y       z     vdW  Elec       q    Type
REMARK                         _______ _______ _______ _____ _____    ______ ____
ROOT
ATOM      1  S   UNL     1      50.383   5.247  11.627  0.00  0.00    +0.000 S 
ENDROOT
BRANCH   1   2
ATOM      2  C   UNL     1      50.804   3.499  11.661  0.00  0.00    +0.000 A 
ATOM      3  C   UNL     1      50.182   2.579  10.782  0.00  0.00    +0.000 A 
ATOM      4  C   UNL     1      50.569   1.219  10.828  0.00  0.00    +0.000 A 
ATOM      5  C   UNL     1      49.201   2.943   9.843  0.00  0.00    +0.000 A 
ATOM      6  C   UNL     1      51.533   0.788  11.737  0.00  0.00    +0.000 A 
ATOM      7  C   UNL     1      49.996   0.289   9.961  0.00  0.00    +0.000 A 
ATOM      8  C   UNL     1      52.129   1.689  12.609  0.00  0.00    +0.000 A 
ATOM      9  C   UNL     1      51.768   3.032  12.569  0.00  0.00    +0.000 A 
ATOM     10  C   UNL     1      49.032   0.683   9.038  0.00  0.00    +0.000 A 
ATOM     11  C   UNL     1      48.632   2.011   8.978  0.00  0.00    +0.000 A 
BRANCH   9  12
ATOM     12  O   UNL     1      52.406   3.862  13.452  0.00  0.00    +0.000 OA
ATOM     13  H   UNL     1      52.815   4.583  12.939  0.00  0.00    +0.000 HD
ENDBRANCH   9  12
ENDBRANCH   1   2
BRANCH   1  14
ATOM     14  S   UNL     1      52.144   6.087  10.964  0.00  0.00    +0.000 S 
BRANCH  14  15
ATOM     15  C   UNL     1      51.669   6.695   9.340  0.00  0.00    +0.000 A 
ATOM     16  C   UNL     1      51.683   5.845   8.208  0.00  0.00    +0.000 A 
ATOM     17  C   UNL     1      51.274   6.364   6.957  0.00  0.00    +0.000 A 
ATOM     18  C   UNL     1      52.073   4.494   8.254  0.00  0.00    +0.000 A 
ATOM     19  C   UNL     1      50.879   7.693   6.838  0.00  0.00    +0.000 A 
ATOM     20  C   UNL     1      51.253   5.550   5.824  0.00  0.00    +0.000 A 
ATOM     21  C   UNL     1      50.881   8.530   7.947  0.00  0.00    +0.000 A 
ATOM     22  C   UNL     1      51.271   8.033   9.185  0.00  0.00    +0.000 A 
ATOM     23  C   UNL     1      51.636   4.214   5.905  0.00  0.00    +0.000 A 
ATOM     24  C   UNL     1      52.050   3.685   7.122  0.00  0.00    +0.000 A 
BRANCH  22  25
ATOM     25  O   UNL     1      51.237   8.914  10.234  0.00  0.00    +0.000 OA
ATOM     26  H   UNL     1      50.313   9.206  10.345  0.00  0.00    +0.000 HD
ENDBRANCH  22  25
ENDBRANCH  14  15
ENDBRANCH   1  14
TORSDOF 5
ENDMDL
MODEL 2
REMARK VINA RESULT:      -6.1      2.754      4.436
REMARK  Name = IPA3.pdbqt.pdb
REMARK  5 active torsions:
REMARK  status: ('A' for Active; 'I' for Inactive)
REMARK    1  A    between atoms: S_1  and  S_2
REMARK    2  A    between atoms: S_1  and  C_15
REMARK    3  A    between atoms: S_2  and  C_3
REMARK    4  A    between atoms: C_10  and  O_13
REMARK    5  A    between atoms: C_22  and  O_25
REMARK                            x       y       z     vdW  Elec       q    Type
REMARK                         _______ _______ _______ _____ _____    ______ ____
ROOT
ATOM      1  S   UNL     1      50.711   2.936   6.926  0.00  0.00    +0.000 S 
ENDROOT
BRANCH   1   2
ATOM      2  C   UNL     1      49.979   1.472   7.673  0.00  0.00    +0.000 A 
ATOM      3  C   UNL     1      50.342   0.173   7.243  0.00  0.00    +0.000 A 
ATOM      4  C   UNL     1      49.759  -0.947   7.881  0.00  0.00    +0.000 A 
ATOM      5  C   UNL     1      51.269  -0.076   6.215  0.00  0.00    +0.000 A 
ATOM      6  C   UNL     1      48.830  -0.774   8.905  0.00  0.00    +0.000 A 
ATOM      7  C   UNL     1      50.110  -2.242   7.501  0.00  0.00    +0.000 A 
ATOM      8  C   UNL     1      48.464   0.502   9.313  0.00  0.00    +0.000 A 
ATOM      9  C   UNL     1      49.036   1.613   8.703  0.00  0.00    +0.000 A 
ATOM     10  C   UNL     1      51.037  -2.455   6.485  0.00  0.00    +0.000 A 
ATOM     11  C   UNL     1      51.617  -1.371   5.840  0.00  0.00    +0.000 A 
BRANCH   9  12
ATOM     12  O   UNL     1      48.633   2.838   9.166  0.00  0.00    +0.000 OA
ATOM     13  H   UNL     1      47.687   2.938   8.957  0.00  0.00    +0.000 HD
ENDBRANCH   9  12
ENDBRANCH   1   2
BRANCH   1  14
ATOM     14  S   UNL     1      52.404   3.187   8.073  0.00  0.00    +0.000 S 
BRANCH  14  15
ATOM     15  C   UNL     1      51.851   4.401   9.279  0.00  0.00    +0.000 A 
ATOM     16  C   UNL     1      51.724   5.768   8.935  0.00  0.00    +0.000 A 
ATOM     17  C   UNL     1      51.258   6.680   9.911  0.00  0.00    +0.000 A 
ATOM     18  C   UNL     1      52.026   6.280   7.660  0.00  0.00    +0.000 A 
ATOM     19  C   UNL     1      50.946   6.242  11.195  0.00  0.00    +0.000 A 
ATOM     20  C   UNL     1      51.099   8.030   9.602  0.00  0.00    +0.000 A 
ATOM     21  C   UNL     1      51.086   4.902  11.536  0.00  0.00    +0.000 A 
ATOM     22  C   UNL     1      51.533   3.992  10.584  0.00  0.00    +0.000 A 
ATOM     23  C   UNL     1      51.397   8.505   8.327  0.00  0.00    +0.000 A 
ATOM     24  C   UNL     1      51.863   7.629   7.354  0.00  0.00    +0.000 A 
BRANCH  22  25
ATOM     25  O   UNL     1      51.636   2.688  10.991  0.00  0.00    +0.000 OA
ATOM     26  H   UNL     1      51.136   2.140  10.357  0.00  0.00    +0.000 HD
ENDBRANCH  22  25
ENDBRANCH  14  15
ENDBRANCH   1  14
TORSDOF 5
ENDMDL
MODEL 3
REMARK VINA RESULT:      -6.0      2.890      6.336
REMARK  Name = IPA3.pdbqt.pdb
REMARK  5 active torsions:
REMARK  status: ('A' for Active; 'I' for Inactive)
REMARK    1  A    between atoms: S_1  and  S_2
REMARK    2  A    between atoms: S_1  and  C_15
REMARK    3  A    between atoms: S_2  and  C_3
REMARK    4  A    between atoms: C_10  and  O_13
REMARK    5  A    between atoms: C_22  and  O_25
REMARK                            x       y       z     vdW  Elec       q    Type
REMARK                         _______ _______ _______ _____ _____    ______ ____
ROOT
ATOM      1  S   UNL     1      52.316   3.220   7.675  0.00  0.00    +0.000 S 
ENDROOT
BRANCH   1   2
ATOM      2  C   UNL     1      51.770   4.620   8.664  0.00  0.00    +0.000 A 
ATOM      3  C   UNL     1      51.690   5.921   8.110  0.00  0.00    +0.000 A 
ATOM      4  C   UNL     1      51.228   6.984   8.921  0.00  0.00    +0.000 A 
ATOM      5  C   UNL     1      52.035   6.222   6.780  0.00  0.00    +0.000 A 
ATOM      6  C   UNL     1      50.873   6.758  10.249  0.00  0.00    +0.000 A 
ATOM      7  C   UNL     1      51.114   8.273   8.403  0.00  0.00    +0.000 A 
ATOM      8  C   UNL     1      50.968   5.484  10.795  0.00  0.00    +0.000 A 
ATOM      9  C   UNL     1      51.411   4.426  10.007  0.00  0.00    +0.000 A 
ATOM     10  C   UNL     1      51.455   8.537   7.079  0.00  0.00    +0.000 A 
ATOM     11  C   UNL     1      51.917   7.511   6.266  0.00  0.00    +0.000 A 
BRANCH   9  12
ATOM     12  O   UNL     1      51.468   3.198  10.611  0.00  0.00    +0.000 OA
ATOM     13  H   UNL     1      50.778   2.638  10.212  0.00  0.00    +0.000 HD
ENDBRANCH   9  12
ENDBRANCH   1   2
BRANCH   1  14
ATOM     14  S   UNL     1      50.622   2.799   6.580  0.00  0.00    +0.000 S 
BRANCH  14  15
ATOM     15  C   UNL     1      49.986   1.352   7.436  0.00  0.00    +0.000 A 
ATOM     16  C   UNL     1      50.338   0.044   7.025  0.00  0.00    +0.000 A 
ATOM     17  C   UNL     1      49.834  -1.062   7.749  0.00  0.00    +0.000 A 
ATOM     18  C   UNL     1      51.182  -0.226   5.932  0.00  0.00    +0.000 A 
ATOM     19  C   UNL     1      48.989  -0.867   8.838  0.00  0.00    +0.000 A 
ATOM     20  C   UNL     1      50.178  -2.364   7.386  0.00  0.00    +0.000 A 
ATOM     21  C   UNL     1      48.631   0.417   9.231  0.00  0.00    +0.000 A 
ATOM     22  C   UNL     1      49.127   1.514   8.536  0.00  0.00    +0.000 A 
ATOM     23  C   UNL     1      51.024  -2.598   6.305  0.00  0.00    +0.000 A 
ATOM     24  C   UNL     1      51.525  -1.527   5.575  0.00  0.00    +0.000 A 
BRANCH  22  25
ATOM     25  O   UNL     1      48.738   2.747   8.987  0.00  0.00    +0.000 OA
ATOM     26  H   UNL     1      49.201   2.913   9.829  0.00  0.00    +0.000 HD
ENDBRANCH  22  25
ENDBRANCH  14  15
ENDBRANCH   1  14
TORSDOF 5
ENDMDL
MODEL 4
REMARK VINA RESULT:      -6.0      2.892      4.419
REMARK  Name = IPA3.pdbqt.pdb
REMARK  5 active torsions:
REMARK  status: ('A' for Active; 'I' for Inactive)
REMARK    1  A    between atoms: S_1  and  S_2
REMARK    2  A    between atoms: S_1  and  C_15
REMARK    3  A    between atoms: S_2  and  C_3
REMARK    4  A    between atoms: C_10  and  O_13
REMARK    5  A    between atoms: C_22  and  O_25
REMARK                            x       y       z     vdW  Elec       q    Type
REMARK                         _______ _______ _______ _____ _____    ______ ____
ROOT
ATOM      1  S   UNL     1      50.780   3.132   7.237  0.00  0.00    +0.000 S 
ENDROOT
BRANCH   1   2
ATOM      2  C   UNL     1      50.014   1.628   7.858  0.00  0.00    +0.000 A 
ATOM      3  C   UNL     1      50.397   0.356   7.368  0.00  0.00    +0.000 A 
ATOM      4  C   UNL     1      49.784  -0.799   7.909  0.00  0.00    +0.000 A 
ATOM      5  C   UNL     1      51.371   0.167   6.372  0.00  0.00    +0.000 A 
ATOM      6  C   UNL     1      48.807  -0.685   8.895  0.00  0.00    +0.000 A 
ATOM      7  C   UNL     1      50.152  -2.070   7.468  0.00  0.00    +0.000 A 
ATOM      8  C   UNL     1      48.422   0.565   9.363  0.00  0.00    +0.000 A 
ATOM      9  C   UNL     1      49.022   1.709   8.849  0.00  0.00    +0.000 A 
ATOM     10  C   UNL     1      51.127  -2.223   6.486  0.00  0.00    +0.000 A 
ATOM     11  C   UNL     1      51.737  -1.104   5.936  0.00  0.00    +0.000 A 
BRANCH   9  12
ATOM     12  O   UNL     1      48.598   2.905   9.365  0.00  0.00    +0.000 OA
ATOM     13  H   UNL     1      47.780   3.156   8.899  0.00  0.00    +0.000 HD
ENDBRANCH   9  12
ENDBRANCH   1   2
BRANCH   1  14
ATOM     14  S   UNL     1      52.391   3.333   8.506  0.00  0.00    +0.000 S 
BRANCH  14  15
ATOM     15  C   UNL     1      52.237   5.049   9.021  0.00  0.00    +0.000 A 
ATOM     16  C   UNL     1      51.705   5.388  10.287  0.00  0.00    +0.000 A 
ATOM     17  C   UNL     1      51.630   6.752  10.657  0.00  0.00    +0.000 A 
ATOM     18  C   UNL     1      51.250   4.438  11.220  0.00  0.00    +0.000 A 
ATOM     19  C   UNL     1      52.058   7.746   9.782  0.00  0.00    +0.000 A 
ATOM     20  C   UNL     1      51.133   7.122  11.906  0.00  0.00    +0.000 A 
ATOM     21  C   UNL     1      52.566   7.412   8.531  0.00  0.00    +0.000 A 
ATOM     22  C   UNL     1      52.655   6.076   8.158  0.00  0.00    +0.000 A 
ATOM     23  C   UNL     1      50.699   6.156  12.811  0.00  0.00    +0.000 A 
ATOM     24  C   UNL     1      50.756   4.811  12.466  0.00  0.00    +0.000 A 
BRANCH  22  25
ATOM     25  O   UNL     1      53.175   5.824   6.916  0.00  0.00    +0.000 OA
ATOM     26  H   UNL     1      53.486   6.672   6.548  0.00  0.00    +0.000 HD
ENDBRANCH  22  25
ENDBRANCH  14  15
ENDBRANCH   1  14
TORSDOF 5
ENDMDL
MODEL 5
REMARK VINA RESULT:      -6.0      2.199      3.050
REMARK  Name = IPA3.pdbqt.pdb
REMARK  5 active torsions:
REMARK  status: ('A' for Active; 'I' for Inactive)
REMARK    1  A    between atoms: S_1  and  S_2
REMARK    2  A    between atoms: S_1  and  C_15
REMARK    3  A    between atoms: S_2  and  C_3
REMARK    4  A    between atoms: C_10  and  O_13
REMARK    5  A    between atoms: C_22  and  O_25
REMARK                            x       y       z     vdW  Elec       q    Type
REMARK                         _______ _______ _______ _____ _____    ______ ____
ROOT
ATOM      1  S   UNL     1      53.395   1.241  10.680  0.00  0.00    +0.000 S 
ENDROOT
BRANCH   1   2
ATOM      2  C   UNL     1      51.630   0.954  10.876  0.00  0.00    +0.000 A 
ATOM      3  C   UNL     1      50.739   1.105   9.785  0.00  0.00    +0.000 A 
ATOM      4  C   UNL     1      49.364   0.841   9.983  0.00  0.00    +0.000 A 
ATOM      5  C   UNL     1      51.147   1.494   8.497  0.00  0.00    +0.000 A 
ATOM      6  C   UNL     1      48.890   0.456  11.235  0.00  0.00    +0.000 A 
ATOM      7  C   UNL     1      48.461   0.955   8.927  0.00  0.00    +0.000 A 
ATOM      8  C   UNL     1      49.764   0.325  12.307  0.00  0.00    +0.000 A 
ATOM      9  C   UNL     1      51.121   0.570  12.127  0.00  0.00    +0.000 A 
ATOM     10  C   UNL     1      48.897   1.334   7.661  0.00  0.00    +0.000 A 
ATOM     11  C   UNL     1      50.241   1.605   7.444  0.00  0.00    +0.000 A 
BRANCH   9  12
ATOM     12  O   UNL     1      51.922   0.411  13.226  0.00  0.00    +0.000 OA
ATOM     13  H   UNL     1      52.050   1.289  13.630  0.00  0.00    +0.000 HD
ENDBRANCH   9  12
ENDBRANCH   1   2
BRANCH   1  14
ATOM     14  S   UNL     1      53.625   3.069  11.603  0.00  0.00    +0.000 S 
BRANCH  14  15
ATOM     15  C   UNL     1      52.320   4.034  10.828  0.00  0.00    +0.000 A 
ATOM     16  C   UNL     1      52.459   4.526   9.508  0.00  0.00    +0.000 A 
ATOM     17  C   UNL     1      51.393   5.256   8.933  0.00  0.00    +0.000 A 
ATOM     18  C   UNL     1      53.605   4.319   8.718  0.00  0.00    +0.000 A 
ATOM     19  C   UNL     1      50.232   5.502   9.659  0.00  0.00    +0.000 A 
ATOM     20  C   UNL     1      51.485   5.737   7.627  0.00  0.00    +0.000 A 
ATOM     21  C   UNL     1      50.103   5.032  10.961  0.00  0.00    +0.000 A 
ATOM     22  C   UNL     1      51.138   4.304  11.536  0.00  0.00    +0.000 A 
ATOM     23  C   UNL     1      52.630   5.507   6.867  0.00  0.00    +0.000 A 
ATOM     24  C   UNL     1      53.693   4.799   7.414  0.00  0.00    +0.000 A 
BRANCH  22  25
ATOM     25  O   UNL     1      50.935   3.865  12.818  0.00  0.00    +0.000 OA
ATOM     26  H   UNL     1      50.123   4.291  13.151  0.00  0.00    +0.000 HD
ENDBRANCH  22  25
ENDBRANCH  14  15
ENDBRANCH   1  14
TORSDOF 5
ENDMDL
MODEL 6
REMARK VINA RESULT:      -5.6      3.131      6.250
REMARK  Name = IPA3.pdbqt.pdb
REMARK  5 active torsions:
REMARK  status: ('A' for Active; 'I' for Inactive)
REMARK    1  A    between atoms: S_1  and  S_2
REMARK    2  A    between atoms: S_1  and  C_15
REMARK    3  A    between atoms: S_2  and  C_3
REMARK    4  A    between atoms: C_10  and  O_13
REMARK    5  A    between atoms: C_22  and  O_25
REMARK                            x       y       z     vdW  Elec       q    Type
REMARK                         _______ _______ _______ _____ _____    ______ ____
ROOT
ATOM      1  S   UNL     1      52.845   3.871   7.528  0.00  0.00    +0.000 S 
ENDROOT
BRANCH   1   2
ATOM      2  C   UNL     1      52.243   5.287   8.460  0.00  0.00    +0.000 A 
ATOM      3  C   UNL     1      51.745   5.139   9.777  0.00  0.00    +0.000 A 
ATOM      4  C   UNL     1      51.310   6.288  10.478  0.00  0.00    +0.000 A 
ATOM      5  C   UNL     1      51.670   3.904  10.445  0.00  0.00    +0.000 A 
ATOM      6  C   UNL     1      51.352   7.543   9.876  0.00  0.00    +0.000 A 
ATOM      7  C   UNL     1      50.836   6.183  11.786  0.00  0.00    +0.000 A 
ATOM      8  C   UNL     1      51.825   7.683   8.577  0.00  0.00    +0.000 A 
ATOM      9  C   UNL     1      52.267   6.565   7.878  0.00  0.00    +0.000 A 
ATOM     10  C   UNL     1      50.782   4.946  12.422  0.00  0.00    +0.000 A 
ATOM     11  C   UNL     1      51.198   3.804  11.752  0.00  0.00    +0.000 A 
BRANCH   9  12
ATOM     12  O   UNL     1      52.729   6.783   6.607  0.00  0.00    +0.000 OA
ATOM     13  H   UNL     1      51.957   6.818   6.013  0.00  0.00    +0.000 HD
ENDBRANCH   9  12
ENDBRANCH   1   2
BRANCH   1  14
ATOM     14  S   UNL     1      51.297   3.554   6.206  0.00  0.00    +0.000 S 
BRANCH  14  15
ATOM     15  C   UNL     1      51.044   1.780   6.360  0.00  0.00    +0.000 A 
ATOM     16  C   UNL     1      50.241   1.243   7.394  0.00  0.00    +0.000 A 
ATOM     17  C   UNL     1      50.050  -0.158   7.455  0.00  0.00    +0.000 A 
ATOM     18  C   UNL     1      49.601   2.028   8.370  0.00  0.00    +0.000 A 
ATOM     19  C   UNL     1      50.657  -0.995   6.525  0.00  0.00    +0.000 A 
ATOM     20  C   UNL     1      49.246  -0.721   8.446  0.00  0.00    +0.000 A 
ATOM     21  C   UNL     1      51.459  -0.467   5.519  0.00  0.00    +0.000 A 
ATOM     22  C   UNL     1      51.648   0.908   5.440  0.00  0.00    +0.000 A 
ATOM     23  C   UNL     1      48.618   0.085   9.392  0.00  0.00    +0.000 A 
ATOM     24  C   UNL     1      48.797   1.462   9.356  0.00  0.00    +0.000 A 
BRANCH  22  25
ATOM     25  O   UNL     1      52.442   1.355   4.417  0.00  0.00    +0.000 OA
ATOM     26  H   UNL     1      53.324   0.953   4.530  0.00  0.00    +0.000 HD
ENDBRANCH  22  25
ENDBRANCH  14  15
ENDBRANCH   1  14
TORSDOF 5
ENDMDL
MODEL 7
REMARK VINA RESULT:      -5.5      1.556      2.647
REMARK  Name = IPA3.pdbqt.pdb
REMARK  5 active torsions:
REMARK  status: ('A' for Active; 'I' for Inactive)
REMARK    1  A    between atoms: S_1  and  S_2
REMARK    2  A    between atoms: S_1  and  C_15
REMARK    3  A    between atoms: S_2  and  C_3
REMARK    4  A    between atoms: C_10  and  O_13
REMARK    5  A    between atoms: C_22  and  O_25
REMARK                            x       y       z     vdW  Elec       q    Type
REMARK                         _______ _______ _______ _____ _____    ______ ____
ROOT
ATOM      1  S   UNL     1      51.555   5.173  12.176  0.00  0.00    +0.000 S 
ENDROOT
BRANCH   1   2
ATOM      2  C   UNL     1      51.444   3.378  12.230  0.00  0.00    +0.000 A 
ATOM      3  C   UNL     1      50.601   2.669  11.340  0.00  0.00    +0.000 A 
ATOM      4  C   UNL     1      50.571   1.256  11.404  0.00  0.00    +0.000 A 
ATOM      5  C   UNL     1      49.792   3.293  10.375  0.00  0.00    +0.000 A 
ATOM      6  C   UNL     1      51.345   0.574  12.340  0.00  0.00    +0.000 A 
ATOM      7  C   UNL     1      49.771   0.524  10.528  0.00  0.00    +0.000 A 
ATOM      8  C   UNL     1      52.159   1.272  13.223  0.00  0.00    +0.000 A 
ATOM      9  C   UNL     1      52.208   2.661  13.166  0.00  0.00    +0.000 A 
ATOM     10  C   UNL     1      48.987   1.171   9.577  0.00  0.00    +0.000 A 
ATOM     11  C   UNL     1      48.995   2.557   9.500  0.00  0.00    +0.000 A 
BRANCH   9  12
ATOM     12  O   UNL     1      53.040   3.280  14.061  0.00  0.00    +0.000 OA
ATOM     13  H   UNL     1      53.262   4.158  13.702  0.00  0.00    +0.000 HD
ENDBRANCH   9  12
ENDBRANCH   1   2
BRANCH   1  14
ATOM     14  S   UNL     1      53.266   5.451  11.062  0.00  0.00    +0.000 S 
BRANCH  14  15
ATOM     15  C   UNL     1      52.655   5.206   9.389  0.00  0.00    +0.000 A 
ATOM     16  C   UNL     1      51.981   6.242   8.697  0.00  0.00    +0.000 A 
ATOM     17  C   UNL     1      51.544   6.009   7.372  0.00  0.00    +0.000 A 
ATOM     18  C   UNL     1      51.728   7.510   9.251  0.00  0.00    +0.000 A 
ATOM     19  C   UNL     1      51.757   4.775   6.764  0.00  0.00    +0.000 A 
ATOM     20  C   UNL     1      50.898   7.013   6.652  0.00  0.00    +0.000 A 
ATOM     21  C   UNL     1      52.405   3.754   7.450  0.00  0.00    +0.000 A 
ATOM     22  C   UNL     1      52.849   3.971   8.749  0.00  0.00    +0.000 A 
ATOM     23  C   UNL     1      50.671   8.261   7.225  0.00  0.00    +0.000 A 
ATOM     24  C   UNL     1      51.084   8.510   8.528  0.00  0.00    +0.000 A 
BRANCH  22  25
ATOM     25  O   UNL     1      53.487   2.922   9.358  0.00  0.00    +0.000 OA
ATOM     26  H   UNL     1      54.000   2.452   8.675  0.00  0.00    +0.000 HD
ENDBRANCH  22  25
ENDBRANCH  14  15
ENDBRANCH   1  14
TORSDOF 5
ENDMDL
MODEL 8
REMARK VINA RESULT:      -5.4      2.743      4.068
REMARK  Name = IPA3.pdbqt.pdb
REMARK  5 active torsions:
REMARK  status: ('A' for Active; 'I' for Inactive)
REMARK    1  A    between atoms: S_1  and  S_2
REMARK    2  A    between atoms: S_1  and  C_15
REMARK    3  A    between atoms: S_2  and  C_3
REMARK    4  A    between atoms: C_10  and  O_13
REMARK    5  A    between atoms: C_22  and  O_25
REMARK                            x       y       z     vdW  Elec       q    Type
REMARK                         _______ _______ _______ _____ _____    ______ ____
ROOT
ATOM      1  S   UNL     1      54.915   5.528  10.699  0.00  0.00    +0.000 S 
ENDROOT
BRANCH   1   2
ATOM      2  C   UNL     1      53.299   5.894  11.400  0.00  0.00    +0.000 A 
ATOM      3  C   UNL     1      52.135   5.230  10.942  0.00  0.00    +0.000 A 
ATOM      4  C   UNL     1      50.892   5.533  11.545  0.00  0.00    +0.000 A 
ATOM      5  C   UNL     1      52.143   4.265   9.919  0.00  0.00    +0.000 A 
ATOM      6  C   UNL     1      50.811   6.481  12.562  0.00  0.00    +0.000 A 
ATOM      7  C   UNL     1      49.729   4.882  11.136  0.00  0.00    +0.000 A 
ATOM      8  C   UNL     1      51.952   7.143  12.998  0.00  0.00    +0.000 A 
ATOM      9  C   UNL     1      53.184   6.849  12.423  0.00  0.00    +0.000 A 
ATOM     10  C   UNL     1      49.771   3.925  10.126  0.00  0.00    +0.000 A 
ATOM     11  C   UNL     1      50.979   3.617   9.515  0.00  0.00    +0.000 A 
BRANCH   9  12
ATOM     12  O   UNL     1      54.264   7.534  12.912  0.00  0.00    +0.000 OA
ATOM     13  H   UNL     1      53.952   8.408  13.208  0.00  0.00    +0.000 HD
ENDBRANCH   9  12
ENDBRANCH   1   2
BRANCH   1  14
ATOM     14  S   UNL     1      55.158   7.090   9.378  0.00  0.00    +0.000 S 
BRANCH  14  15
ATOM     15  C   UNL     1      54.210   6.519   7.961  0.00  0.00    +0.000 A 
ATOM     16  C   UNL     1      52.876   6.943   7.753  0.00  0.00    +0.000 A 
ATOM     17  C   UNL     1      52.182   6.488   6.608  0.00  0.00    +0.000 A 
ATOM     18  C   UNL     1      52.193   7.813   8.623  0.00  0.00    +0.000 A 
ATOM     19  C   UNL     1      52.795   5.621   5.708  0.00  0.00    +0.000 A 
ATOM     20  C   UNL     1      50.874   6.903   6.359  0.00  0.00    +0.000 A 
ATOM     21  C   UNL     1      54.100   5.193   5.921  0.00  0.00    +0.000 A 
ATOM     22  C   UNL     1      54.799   5.640   7.036  0.00  0.00    +0.000 A 
ATOM     23  C   UNL     1      50.229   7.773   7.235  0.00  0.00    +0.000 A 
ATOM     24  C   UNL     1      50.888   8.227   8.370  0.00  0.00    +0.000 A 
BRANCH  22  25
ATOM     25  O   UNL     1      56.083   5.183   7.174  0.00  0.00    +0.000 OA
ATOM     26  H   UNL     1      56.403   4.928   6.289  0.00  0.00    +0.000 HD
ENDBRANCH  22  25
ENDBRANCH  14  15
ENDBRANCH   1  14
TORSDOF 5
ENDMDL
MODEL 9
REMARK VINA RESULT:      -5.4      2.527      6.183
REMARK  Name = IPA3.pdbqt.pdb
REMARK  5 active torsions:
REMARK  status: ('A' for Active; 'I' for Inactive)
REMARK    1  A    between atoms: S_1  and  S_2
REMARK    2  A    between atoms: S_1  and  C_15
REMARK    3  A    between atoms: S_2  and  C_3
REMARK    4  A    between atoms: C_10  and  O_13
REMARK    5  A    between atoms: C_22  and  O_25
REMARK                            x       y       z     vdW  Elec       q    Type
REMARK                         _______ _______ _______ _____ _____    ______ ____
ROOT
ATOM      1  S   UNL     1      50.492   3.330   8.892  0.00  0.00    +0.000 S 
ENDROOT
BRANCH   1   2
ATOM      2  C   UNL     1      51.047   5.015   9.187  0.00  0.00    +0.000 A 
ATOM      3  C   UNL     1      50.948   5.604  10.471  0.00  0.00    +0.000 A 
ATOM      4  C   UNL     1      51.425   6.923  10.657  0.00  0.00    +0.000 A 
ATOM      5  C   UNL     1      50.410   4.944  11.589  0.00  0.00    +0.000 A 
ATOM      6  C   UNL     1      51.967   7.637   9.591  0.00  0.00    +0.000 A 
ATOM      7  C   UNL     1      51.366   7.527  11.913  0.00  0.00    +0.000 A 
ATOM      8  C   UNL     1      52.048   7.063   8.329  0.00  0.00    +0.000 A 
ATOM      9  C   UNL     1      51.593   5.763   8.131  0.00  0.00    +0.000 A 
ATOM     10  C   UNL     1      50.834   6.844  13.002  0.00  0.00    +0.000 A 
ATOM     11  C   UNL     1      50.354   5.551  12.842  0.00  0.00    +0.000 A 
BRANCH   9  12
ATOM     12  O   UNL     1      51.715   5.260   6.863  0.00  0.00    +0.000 OA
ATOM     13  H   UNL     1      52.222   5.904   6.336  0.00  0.00    +0.000 HD
ENDBRANCH   9  12
ENDBRANCH   1   2
BRANCH   1  14
ATOM     14  S   UNL     1      52.273   2.293   8.926  0.00  0.00    +0.000 S 
BRANCH  14  15
ATOM     15  C   UNL     1      52.894   2.690  10.566  0.00  0.00    +0.000 A 
ATOM     16  C   UNL     1      52.373   2.056  11.719  0.00  0.00    +0.000 A 
ATOM     17  C   UNL     1      52.914   2.382  12.984  0.00  0.00    +0.000 A 
ATOM     18  C   UNL     1      51.342   1.098  11.681  0.00  0.00    +0.000 A 
ATOM     19  C   UNL     1      53.932   3.324  13.096  0.00  0.00    +0.000 A 
ATOM     20  C   UNL     1      52.441   1.760  14.140  0.00  0.00    +0.000 A 
ATOM     21  C   UNL     1      54.433   3.957  11.964  0.00  0.00    +0.000 A 
ATOM     22  C   UNL     1      53.918   3.640  10.712  0.00  0.00    +0.000 A 
ATOM     23  C   UNL     1      51.427   0.809  14.068  0.00  0.00    +0.000 A 
ATOM     24  C   UNL     1      50.874   0.479  12.837  0.00  0.00    +0.000 A 
BRANCH  22  25
ATOM     25  O   UNL     1      54.467   4.297   9.643  0.00  0.00    +0.000 OA
ATOM     26  H   UNL     1      54.530   5.242   9.878  0.00  0.00    +0.000 HD
ENDBRANCH  22  25
ENDBRANCH  14  15
ENDBRANCH   1  14
TORSDOF 5
ENDMDL
