MODEL 1
REMARK VINA RESULT:      -7.3      0.000      0.000
REMARK  Name = 
REMARK  8 active torsions:
REMARK  status: ('A' for Active; 'I' for Inactive)
REMARK    1  A    between atoms: O_1  and  C_21
REMARK    2  A    between atoms: O_1  and  C_38
REMARK    3  A    between atoms: O_4  and  C_26
REMARK    4  A    between atoms: N_7  and  C_11
REMARK    5  A    between atoms: C_26  and  C_33
REMARK    6  A    between atoms: C_29  and  C_37
REMARK    7  A    between atoms: C_33  and  C_42
REMARK    8  A    between atoms: C_37  and  C_43
REMARK                            x       y       z     vdW  Elec       q    Type
REMARK                         _______ _______ _______ _____ _____    ______ ____
ROOT
ATOM      1  O   UNL     1      49.574  -3.920  24.791  0.00  0.00    +0.000 OA
ATOM      2  O   UNL     1      47.332  -0.509  23.748  0.00  0.00    +0.000 OA
ATOM      3  O   UNL     1      49.474  -6.161  24.659  0.00  0.00    +0.000 OA
ATOM      4  N   UNL     1      46.373  -1.583  21.961  0.00  0.00    +0.000 N 
ATOM      5  N   UNL     1      44.896  -3.221  19.132  0.00  0.00    +0.000 NA
ATOM      6  C   UNL     1      46.277  -2.682  21.131  0.00  0.00    +0.000 A 
ATOM      7  C   UNL     1      44.760  -1.129  20.359  0.00  0.00    +0.000 A 
ATOM      8  C   UNL     1      45.441  -0.527  21.555  0.00  0.00    +0.000 C 
ATOM      9  C   UNL     1      47.985  -3.776  22.432  0.00  0.00    +0.000 A 
ATOM     10  C   UNL     1      48.888  -4.966  22.639  0.00  0.00    +0.000 C 
ATOM     11  C   UNL     1      45.264  -2.401  20.120  0.00  0.00    +0.000 A 
ATOM     12  C   UNL     1      48.085  -2.706  23.245  0.00  0.00    +0.000 A 
ATOM     13  C   UNL     1      43.776  -0.621  19.523  0.00  0.00    +0.000 A 
ATOM     14  C   UNL     1      47.039  -3.763  21.322  0.00  0.00    +0.000 A 
ATOM     15  C   UNL     1      47.234  -1.494  23.023  0.00  0.00    +0.000 A 
ATOM     16  C   UNL     1      43.357  -1.450  18.442  0.00  0.00    +0.000 A 
ATOM     17  C   UNL     1      49.038  -2.643  24.386  0.00  0.00    +0.000 C 
ATOM     18  C   UNL     1      43.955  -2.745  18.303  0.00  0.00    +0.000 A 
ATOM     19  C   UNL     1      49.313  -5.064  24.122  0.00  0.00    +0.000 C 
ATOM     20  C   UNL     1      42.024  -1.915  16.456  0.00  0.00    +0.000 A 
ATOM     21  C   UNL     1      42.382  -1.062  17.498  0.00  0.00    +0.000 A 
ATOM     22  C   UNL     1      43.551  -3.570  17.261  0.00  0.00    +0.000 A 
ATOM     23  C   UNL     1      42.585  -3.175  16.336  0.00  0.00    +0.000 A 
ENDROOT
BRANCH  10  24
ATOM     24  O   UNL     1      48.166  -6.157  22.297  0.00  0.00    +0.000 OA
ATOM     25  H   UNL     1      47.425  -6.220  22.933  0.00  0.00    +0.000 HD
ENDBRANCH  10  24
BRANCH  10  26
ATOM     26  C   UNL     1      50.137  -4.861  21.739  0.00  0.00    +0.000 C 
ATOM     27  C   UNL     1      50.003  -5.555  20.387  0.00  0.00    +0.000 C 
ENDBRANCH  10  26
BRANCH  13  28
ATOM     28  C   UNL     1      43.229   0.765  19.763  0.00  0.00    +0.000 C 
ATOM     29  C   UNL     1      42.210   0.792  20.893  0.00  0.00    +0.000 C 
ENDBRANCH  13  28
BRANCH  20  30
ATOM     30  O   UNL     1      41.026  -1.519  15.565  0.00  0.00    +0.000 OA
BRANCH  30  38
ATOM     31  O   UNL     1      42.065   0.149  14.339  0.00  0.00    +0.000 OA
ATOM     32  N   UNL     1      40.199   0.639  15.597  0.00  0.00    +0.000 N 
ATOM     33  C   UNL     1      38.902   2.621  17.315  0.00  0.00    +0.000 C 
ATOM     34  C   UNL     1      38.994   1.118  17.682  0.00  0.00    +0.000 C 
ATOM     35  C   UNL     1      40.083   2.965  16.372  0.00  0.00    +0.000 C 
ATOM     36  C   UNL     1      39.103   0.219  16.453  0.00  0.00    +0.000 C 
ATOM     37  C   UNL     1      40.165   2.026  15.173  0.00  0.00    +0.000 C 
ATOM     38  C   UNL     1      41.172  -0.215  15.100  0.00  0.00    +0.000 C 
BRANCH  33  39
ATOM     39  N   UNL     1      38.886   3.496  18.529  0.00  0.00    +0.000 NA
ATOM     40  C   UNL     1      39.631   2.895  19.656  0.00  0.00    +0.000 C 
ATOM     41  C   UNL     1      39.406   4.851  18.249  0.00  0.00    +0.000 C 
ATOM     42  C   UNL     1      39.601   3.761  20.918  0.00  0.00    +0.000 C 
ATOM     43  C   UNL     1      39.371   5.766  19.475  0.00  0.00    +0.000 C 
ATOM     44  C   UNL     1      40.126   5.160  20.645  0.00  0.00    +0.000 C 
ENDBRANCH  33  39
ENDBRANCH  30  38
ENDBRANCH  20  30
TORSDOF 6
ENDMDL
MODEL 2
REMARK VINA RESULT:      -7.0     11.806     17.286
REMARK  Name = 
REMARK  8 active torsions:
REMARK  status: ('A' for Active; 'I' for Inactive)
REMARK    1  A    between atoms: O_1  and  C_21
REMARK    2  A    between atoms: O_1  and  C_38
REMARK    3  A    between atoms: O_4  and  C_26
REMARK    4  A    between atoms: N_7  and  C_11
REMARK    5  A    between atoms: C_26  and  C_33
REMARK    6  A    between atoms: C_29  and  C_37
REMARK    7  A    between atoms: C_33  and  C_42
REMARK    8  A    between atoms: C_37  and  C_43
REMARK                            x       y       z     vdW  Elec       q    Type
REMARK                         _______ _______ _______ _____ _____    ______ ____
ROOT
ATOM      1  O   UNL     1      34.476   3.751  23.231  0.00  0.00    +0.000 OA
ATOM      2  O   UNL     1      31.461   6.634  22.646  0.00  0.00    +0.000 OA
ATOM      3  O   UNL     1      36.587   3.305  22.603  0.00  0.00    +0.000 OA
ATOM      4  N   UNL     1      33.003   8.296  22.291  0.00  0.00    +0.000 N 
ATOM      5  N   UNL     1      35.391  10.924  21.780  0.00  0.00    +0.000 NA
ATOM      6  C   UNL     1      34.312   8.735  22.267  0.00  0.00    +0.000 A 
ATOM      7  C   UNL     1      32.994  10.537  21.699  0.00  0.00    +0.000 A 
ATOM      8  C   UNL     1      32.075   9.375  21.939  0.00  0.00    +0.000 C 
ATOM      9  C   UNL     1      35.032   6.524  22.900  0.00  0.00    +0.000 A 
ATOM     10  C   UNL     1      36.154   5.588  23.274  0.00  0.00    +0.000 C 
ATOM     11  C   UNL     1      34.312  10.145  21.897  0.00  0.00    +0.000 A 
ATOM     12  C   UNL     1      33.757   6.089  22.925  0.00  0.00    +0.000 A 
ATOM     13  C   UNL     1      32.724  11.850  21.339  0.00  0.00    +0.000 A 
ATOM     14  C   UNL     1      35.324   7.911  22.557  0.00  0.00    +0.000 A 
ATOM     15  C   UNL     1      32.625   7.018  22.607  0.00  0.00    +0.000 A 
ATOM     16  C   UNL     1      33.840  12.727  21.215  0.00  0.00    +0.000 A 
ATOM     17  C   UNL     1      33.385   4.693  23.280  0.00  0.00    +0.000 C 
ATOM     18  C   UNL     1      35.152  12.201  21.446  0.00  0.00    +0.000 A 
ATOM     19  C   UNL     1      35.750   4.124  22.985  0.00  0.00    +0.000 C 
ATOM     20  C   UNL     1      34.851  14.903  20.784  0.00  0.00    +0.000 A 
ATOM     21  C   UNL     1      33.720  14.093  20.877  0.00  0.00    +0.000 A 
ATOM     22  C   UNL     1      36.252  13.040  21.320  0.00  0.00    +0.000 A 
ATOM     23  C   UNL     1      36.120  14.387  20.984  0.00  0.00    +0.000 A 
ENDROOT
BRANCH  10  24
ATOM     24  O   UNL     1      37.304   5.905  22.478  0.00  0.00    +0.000 OA
ATOM     25  H   UNL     1      37.928   5.160  22.591  0.00  0.00    +0.000 HD
ENDBRANCH  10  24
BRANCH  10  26
ATOM     26  C   UNL     1      36.517   5.749  24.766  0.00  0.00    +0.000 C 
ATOM     27  C   UNL     1      37.806   6.525  25.023  0.00  0.00    +0.000 C 
ENDBRANCH  10  26
BRANCH  13  28
ATOM     28  C   UNL     1      31.296  12.293  21.133  0.00  0.00    +0.000 C 
ATOM     29  C   UNL     1      30.643  12.747  22.430  0.00  0.00    +0.000 C 
ENDBRANCH  13  28
BRANCH  20  30
ATOM     30  O   UNL     1      34.702  16.237  20.405  0.00  0.00    +0.000 OA
BRANCH  30  38
ATOM     31  O   UNL     1      33.543  17.174  22.178  0.00  0.00    +0.000 OA
ATOM     32  N   UNL     1      32.589  17.115  20.083  0.00  0.00    +0.000 N 
ATOM     33  C   UNL     1      30.110  16.749  18.572  0.00  0.00    +0.000 C 
ATOM     34  C   UNL     1      31.437  16.040  18.200  0.00  0.00    +0.000 C 
ATOM     35  C   UNL     1      30.135  17.065  20.089  0.00  0.00    +0.000 C 
ATOM     36  C   UNL     1      32.667  16.815  18.664  0.00  0.00    +0.000 C 
ATOM     37  C   UNL     1      31.394  17.818  20.508  0.00  0.00    +0.000 C 
ATOM     38  C   UNL     1      33.609  16.870  20.991  0.00  0.00    +0.000 C 
BRANCH  33  39
ATOM     39  N   UNL     1      28.912  15.936  18.192  0.00  0.00    +0.000 NA
ATOM     40  C   UNL     1      29.099  14.500  18.490  0.00  0.00    +0.000 C 
ATOM     41  C   UNL     1      27.677  16.426  18.838  0.00  0.00    +0.000 C 
ATOM     42  C   UNL     1      27.896  13.646  18.080  0.00  0.00    +0.000 C 
ATOM     43  C   UNL     1      26.437  15.621  18.439  0.00  0.00    +0.000 C 
ATOM     44  C   UNL     1      26.616  14.142  18.731  0.00  0.00    +0.000 C 
ENDBRANCH  33  39
ENDBRANCH  30  38
ENDBRANCH  20  30
TORSDOF 6
ENDMDL
MODEL 3
REMARK VINA RESULT:      -6.8     24.659     27.924
REMARK  Name = 
REMARK  8 active torsions:
REMARK  status: ('A' for Active; 'I' for Inactive)
REMARK    1  A    between atoms: O_1  and  C_21
REMARK    2  A    between atoms: O_1  and  C_38
REMARK    3  A    between atoms: O_4  and  C_26
REMARK    4  A    between atoms: N_7  and  C_11
REMARK    5  A    between atoms: C_26  and  C_33
REMARK    6  A    between atoms: C_29  and  C_37
REMARK    7  A    between atoms: C_33  and  C_42
REMARK    8  A    between atoms: C_37  and  C_43
REMARK                            x       y       z     vdW  Elec       q    Type
REMARK                         _______ _______ _______ _____ _____    ______ ____
ROOT
ATOM      1  O   UNL     1      26.998   7.077   3.406  0.00  0.00    +0.000 OA
ATOM      2  O   UNL     1      28.469   9.420   0.229  0.00  0.00    +0.000 OA
ATOM      3  O   UNL     1      27.396   6.664   5.579  0.00  0.00    +0.000 OA
ATOM      4  N   UNL     1      29.206  11.053   1.664  0.00  0.00    +0.000 N 
ATOM      5  N   UNL     1      30.322  13.643   3.879  0.00  0.00    +0.000 NA
ATOM      6  C   UNL     1      29.297  11.581   2.935  0.00  0.00    +0.000 A 
ATOM      7  C   UNL     1      30.389  13.041   1.526  0.00  0.00    +0.000 A 
ATOM      8  C   UNL     1      29.876  11.911   0.682  0.00  0.00    +0.000 C 
ATOM      9  C   UNL     1      28.055   9.695   3.776  0.00  0.00    +0.000 A 
ATOM     10  C   UNL     1      27.394   8.997   4.938  0.00  0.00    +0.000 C 
ATOM     11  C   UNL     1      30.039  12.834   2.855  0.00  0.00    +0.000 A 
ATOM     12  C   UNL     1      27.962   9.174   2.537  0.00  0.00    +0.000 A 
ATOM     13  C   UNL     1      31.105  14.179   1.183  0.00  0.00    +0.000 A 
ATOM     14  C   UNL     1      28.753  10.958   3.986  0.00  0.00    +0.000 A 
ATOM     15  C   UNL     1      28.566   9.879   1.362  0.00  0.00    +0.000 A 
ATOM     16  C   UNL     1      31.421  15.085   2.238  0.00  0.00    +0.000 A 
ATOM     17  C   UNL     1      27.252   7.898   2.247  0.00  0.00    +0.000 C 
ATOM     18  C   UNL     1      31.003  14.757   3.568  0.00  0.00    +0.000 A 
ATOM     19  C   UNL     1      27.287   7.480   4.662  0.00  0.00    +0.000 C 
ATOM     20  C   UNL     1      32.391  17.142   3.111  0.00  0.00    +0.000 A 
ATOM     21  C   UNL     1      32.125  16.293   2.039  0.00  0.00    +0.000 A 
ATOM     22  C   UNL     1      31.311  15.624   4.609  0.00  0.00    +0.000 A 
ATOM     23  C   UNL     1      32.008  16.814   4.400  0.00  0.00    +0.000 A 
ENDROOT
BRANCH  10  24
ATOM     24  O   UNL     1      28.201   9.187   6.109  0.00  0.00    +0.000 OA
ATOM     25  H   UNL     1      29.095   8.864   5.879  0.00  0.00    +0.000 HD
ENDBRANCH  10  24
BRANCH  10  26
ATOM     26  C   UNL     1      25.991   9.586   5.196  0.00  0.00    +0.000 C 
ATOM     27  C   UNL     1      25.518   9.485   6.643  0.00  0.00    +0.000 C 
ENDBRANCH  10  26
BRANCH  13  28
ATOM     28  C   UNL     1      31.481  14.423  -0.258  0.00  0.00    +0.000 C 
ATOM     29  C   UNL     1      30.406  15.196  -1.008  0.00  0.00    +0.000 C 
ENDBRANCH  13  28
BRANCH  20  30
ATOM     30  O   UNL     1      33.127  18.307   2.888  0.00  0.00    +0.000 OA
BRANCH  30  38
ATOM     31  O   UNL     1      31.678  19.678   1.710  0.00  0.00    +0.000 OA
ATOM     32  N   UNL     1      33.612  18.920   0.713  0.00  0.00    +0.000 N 
ATOM     33  C   UNL     1      34.829  17.964  -1.769  0.00  0.00    +0.000 C 
ATOM     34  C   UNL     1      35.022  17.251  -0.407  0.00  0.00    +0.000 C 
ATOM     35  C   UNL     1      33.485  18.734  -1.731  0.00  0.00    +0.000 C 
ATOM     36  C   UNL     1      34.872  18.201   0.778  0.00  0.00    +0.000 C 
ATOM     37  C   UNL     1      33.372  19.650  -0.517  0.00  0.00    +0.000 C 
ATOM     38  C   UNL     1      32.717  19.026   1.768  0.00  0.00    +0.000 C 
BRANCH  33  39
ATOM     39  N   UNL     1      34.889  17.006  -2.918  0.00  0.00    +0.000 NA
ATOM     40  C   UNL     1      36.160  16.252  -2.947  0.00  0.00    +0.000 C 
ATOM     41  C   UNL     1      33.748  16.066  -2.923  0.00  0.00    +0.000 C 
ATOM     42  C   UNL     1      36.254  15.289  -4.133  0.00  0.00    +0.000 C 
ATOM     43  C   UNL     1      33.780  15.097  -4.107  0.00  0.00    +0.000 C 
ATOM     44  C   UNL     1      35.084  14.320  -4.156  0.00  0.00    +0.000 C 
ENDBRANCH  33  39
ENDBRANCH  30  38
ENDBRANCH  20  30
TORSDOF 6
ENDMDL
MODEL 4
REMARK VINA RESULT:      -6.5      3.939      6.942
REMARK  Name = 
REMARK  8 active torsions:
REMARK  status: ('A' for Active; 'I' for Inactive)
REMARK    1  A    between atoms: O_1  and  C_21
REMARK    2  A    between atoms: O_1  and  C_38
REMARK    3  A    between atoms: O_4  and  C_26
REMARK    4  A    between atoms: N_7  and  C_11
REMARK    5  A    between atoms: C_26  and  C_33
REMARK    6  A    between atoms: C_29  and  C_37
REMARK    7  A    between atoms: C_33  and  C_42
REMARK    8  A    between atoms: C_37  and  C_43
REMARK                            x       y       z     vdW  Elec       q    Type
REMARK                         _______ _______ _______ _____ _____    ______ ____
ROOT
ATOM      1  O   UNL     1      46.192   2.122  27.731  0.00  0.00    +0.000 OA
ATOM      2  O   UNL     1      42.675   3.768  26.096  0.00  0.00    +0.000 OA
ATOM      3  O   UNL     1      47.456   0.269  27.602  0.00  0.00    +0.000 OA
ATOM      4  N   UNL     1      42.951   2.617  24.130  0.00  0.00    +0.000 N 
ATOM      5  N   UNL     1      43.383   0.868  21.028  0.00  0.00    +0.000 NA
ATOM      6  C   UNL     1      43.703   1.794  23.316  0.00  0.00    +0.000 A 
ATOM      7  C   UNL     1      41.780   2.306  22.154  0.00  0.00    +0.000 A 
ATOM      8  C   UNL     1      41.695   3.003  23.480  0.00  0.00    +0.000 C 
ATOM      9  C   UNL     1      45.389   1.685  25.034  0.00  0.00    +0.000 A 
ATOM     10  C   UNL     1      46.744   1.202  25.486  0.00  0.00    +0.000 C 
ATOM     11  C   UNL     1      42.972   1.596  22.069  0.00  0.00    +0.000 A 
ATOM     12  C   UNL     1      44.660   2.489  25.834  0.00  0.00    +0.000 A 
ATOM     13  C   UNL     1      40.900   2.282  21.081  0.00  0.00    +0.000 A 
ATOM     14  C   UNL     1      44.888   1.322  23.713  0.00  0.00    +0.000 A 
ATOM     15  C   UNL     1      43.335   3.021  25.381  0.00  0.00    +0.000 A 
ATOM     16  C   UNL     1      41.298   1.531  19.937  0.00  0.00    +0.000 A 
ATOM     17  C   UNL     1      45.115   2.912  27.186  0.00  0.00    +0.000 C 
ATOM     18  C   UNL     1      42.553   0.842  19.974  0.00  0.00    +0.000 A 
ATOM     19  C   UNL     1      46.806   1.146  27.029  0.00  0.00    +0.000 C 
ATOM     20  C   UNL     1      40.969   0.692  17.673  0.00  0.00    +0.000 A 
ATOM     21  C   UNL     1      40.518   1.432  18.764  0.00  0.00    +0.000 A 
ATOM     22  C   UNL     1      42.952   0.098  18.871  0.00  0.00    +0.000 A 
ATOM     23  C   UNL     1      42.171   0.006  17.719  0.00  0.00    +0.000 A 
ENDROOT
BRANCH  10  24
ATOM     24  O   UNL     1      46.955  -0.122  24.977  0.00  0.00    +0.000 OA
ATOM     25  H   UNL     1      47.600  -0.546  25.577  0.00  0.00    +0.000 HD
ENDBRANCH  10  24
BRANCH  10  26
ATOM     26  C   UNL     1      47.855   2.129  24.948  0.00  0.00    +0.000 C 
ATOM     27  C   UNL     1      49.127   2.148  25.791  0.00  0.00    +0.000 C 
ENDBRANCH  10  26
BRANCH  13  28
ATOM     28  C   UNL     1      39.608   3.059  21.153  0.00  0.00    +0.000 C 
ATOM     29  C   UNL     1      39.792   4.516  20.755  0.00  0.00    +0.000 C 
ENDBRANCH  13  28
BRANCH  20  30
ATOM     30  O   UNL     1      40.155   0.577  16.545  0.00  0.00    +0.000 OA
BRANCH  30  38
ATOM     31  O   UNL     1      38.506  -0.923  17.174  0.00  0.00    +0.000 OA
ATOM     32  N   UNL     1      39.993  -1.479  15.505  0.00  0.00    +0.000 N 
ATOM     33  C   UNL     1      41.580  -3.626  14.308  0.00  0.00    +0.000 C 
ATOM     34  C   UNL     1      42.160  -2.224  14.624  0.00  0.00    +0.000 C 
ATOM     35  C   UNL     1      40.392  -3.889  15.268  0.00  0.00    +0.000 C 
ATOM     36  C   UNL     1      41.093  -1.133  14.622  0.00  0.00    +0.000 C 
ATOM     37  C   UNL     1      39.366  -2.762  15.249  0.00  0.00    +0.000 C 
ATOM     38  C   UNL     1      39.467  -0.630  16.468  0.00  0.00    +0.000 C 
BRANCH  33  39
ATOM     39  N   UNL     1      42.620  -4.699  14.402  0.00  0.00    +0.000 NA
ATOM     40  C   UNL     1      42.979  -5.242  13.074  0.00  0.00    +0.000 C 
ATOM     41  C   UNL     1      43.837  -4.238  15.101  0.00  0.00    +0.000 C 
ATOM     42  C   UNL     1      44.019  -6.362  13.152  0.00  0.00    +0.000 C 
ATOM     43  C   UNL     1      44.900  -5.332  15.229  0.00  0.00    +0.000 C 
ATOM     44  C   UNL     1      45.275  -5.907  13.875  0.00  0.00    +0.000 C 
ENDBRANCH  33  39
ENDBRANCH  30  38
ENDBRANCH  20  30
TORSDOF 6
ENDMDL
MODEL 5
REMARK VINA RESULT:      -6.5      3.285      6.802
REMARK  Name = 
REMARK  8 active torsions:
REMARK  status: ('A' for Active; 'I' for Inactive)
REMARK    1  A    between atoms: O_1  and  C_21
REMARK    2  A    between atoms: O_1  and  C_38
REMARK    3  A    between atoms: O_4  and  C_26
REMARK    4  A    between atoms: N_7  and  C_11
REMARK    5  A    between atoms: C_26  and  C_33
REMARK    6  A    between atoms: C_29  and  C_37
REMARK    7  A    between atoms: C_33  and  C_42
REMARK    8  A    between atoms: C_37  and  C_43
REMARK                            x       y       z     vdW  Elec       q    Type
REMARK                         _______ _______ _______ _____ _____    ______ ____
ROOT
ATOM      1  O   UNL     1      47.116   1.187  27.366  0.00  0.00    +0.000 OA
ATOM      2  O   UNL     1      47.165  -1.029  23.783  0.00  0.00    +0.000 OA
ATOM      3  O   UNL     1      46.450   3.183  28.155  0.00  0.00    +0.000 OA
ATOM      4  N   UNL     1      45.272   0.016  23.013  0.00  0.00    +0.000 N 
ATOM      5  N   UNL     1      42.288   1.597  21.806  0.00  0.00    +0.000 NA
ATOM      6  C   UNL     1      44.213   0.878  23.209  0.00  0.00    +0.000 A 
ATOM      7  C   UNL     1      43.997   0.032  21.077  0.00  0.00    +0.000 A 
ATOM      8  C   UNL     1      45.231  -0.581  21.675  0.00  0.00    +0.000 C 
ATOM      9  C   UNL     1      45.031   1.330  25.430  0.00  0.00    +0.000 A 
ATOM     10  C   UNL     1      44.852   2.022  26.758  0.00  0.00    +0.000 C 
ATOM     11  C   UNL     1      43.405   0.891  21.995  0.00  0.00    +0.000 A 
ATOM     12  C   UNL     1      46.068   0.489  25.245  0.00  0.00    +0.000 A 
ATOM     13  C   UNL     1      43.411  -0.136  19.830  0.00  0.00    +0.000 A 
ATOM     14  C   UNL     1      44.057   1.533  24.364  0.00  0.00    +0.000 A 
ATOM     15  C   UNL     1      46.234  -0.248  23.952  0.00  0.00    +0.000 A 
ATOM     16  C   UNL     1      42.207   0.584  19.581  0.00  0.00    +0.000 A 
ATOM     17  C   UNL     1      47.091   0.222  26.293  0.00  0.00    +0.000 C 
ATOM     18  C   UNL     1      41.697   1.440  20.611  0.00  0.00    +0.000 A 
ATOM     19  C   UNL     1      46.216   2.189  27.465  0.00  0.00    +0.000 C 
ATOM     20  C   UNL     1      40.308   1.219  18.192  0.00  0.00    +0.000 A 
ATOM     21  C   UNL     1      41.487   0.498  18.369  0.00  0.00    +0.000 A 
ATOM     22  C   UNL     1      40.529   2.156  20.381  0.00  0.00    +0.000 A 
ATOM     23  C   UNL     1      39.828   2.064  19.179  0.00  0.00    +0.000 A 
ENDROOT
BRANCH  10  24
ATOM     24  O   UNL     1      44.300   3.326  26.526  0.00  0.00    +0.000 OA
ATOM     25  H   UNL     1      43.334   3.202  26.441  0.00  0.00    +0.000 HD
ENDBRANCH  10  24
BRANCH  10  26
ATOM     26  C   UNL     1      43.886   1.223  27.659  0.00  0.00    +0.000 C 
ATOM     27  C   UNL     1      42.480   1.808  27.756  0.00  0.00    +0.000 C 
ENDBRANCH  10  26
BRANCH  13  28
ATOM     28  C   UNL     1      44.036  -1.076  18.828  0.00  0.00    +0.000 C 
ATOM     29  C   UNL     1      43.499  -2.493  18.958  0.00  0.00    +0.000 C 
ENDBRANCH  13  28
BRANCH  20  30
ATOM     30  O   UNL     1      39.644   1.146  16.967  0.00  0.00    +0.000 OA
BRANCH  30  38
ATOM     31  O   UNL     1      38.140  -0.561  17.408  0.00  0.00    +0.000 OA
ATOM     32  N   UNL     1      39.588  -0.735  15.625  0.00  0.00    +0.000 N 
ATOM     33  C   UNL     1      41.276  -2.539  14.058  0.00  0.00    +0.000 C 
ATOM     34  C   UNL     1      41.764  -1.161  14.569  0.00  0.00    +0.000 C 
ATOM     35  C   UNL     1      40.155  -3.041  15.003  0.00  0.00    +0.000 C 
ATOM     36  C   UNL     1      40.620  -0.171  14.771  0.00  0.00    +0.000 C 
ATOM     37  C   UNL     1      39.047  -2.009  15.193  0.00  0.00    +0.000 C 
ATOM     38  C   UNL     1      39.045  -0.087  16.725  0.00  0.00    +0.000 C 
BRANCH  33  39
ATOM     39  N   UNL     1      42.396  -3.527  13.950  0.00  0.00    +0.000 NA
ATOM     40  C   UNL     1      43.718  -2.889  14.122  0.00  0.00    +0.000 C 
ATOM     41  C   UNL     1      42.250  -4.645  14.906  0.00  0.00    +0.000 C 
ATOM     42  C   UNL     1      44.878  -3.877  13.984  0.00  0.00    +0.000 C 
ATOM     43  C   UNL     1      43.373  -5.678  14.790  0.00  0.00    +0.000 C 
ATOM     44  C   UNL     1      44.739  -5.036  14.956  0.00  0.00    +0.000 C 
ENDBRANCH  33  39
ENDBRANCH  30  38
ENDBRANCH  20  30
TORSDOF 6
ENDMDL
MODEL 6
REMARK VINA RESULT:      -6.4     12.419     18.270
REMARK  Name = 
REMARK  8 active torsions:
REMARK  status: ('A' for Active; 'I' for Inactive)
REMARK    1  A    between atoms: O_1  and  C_21
REMARK    2  A    between atoms: O_1  and  C_38
REMARK    3  A    between atoms: O_4  and  C_26
REMARK    4  A    between atoms: N_7  and  C_11
REMARK    5  A    between atoms: C_26  and  C_33
REMARK    6  A    between atoms: C_29  and  C_37
REMARK    7  A    between atoms: C_33  and  C_42
REMARK    8  A    between atoms: C_37  and  C_43
REMARK                            x       y       z     vdW  Elec       q    Type
REMARK                         _______ _______ _______ _____ _____    ______ ____
ROOT
ATOM      1  O   UNL     1      34.312   4.255  23.604  0.00  0.00    +0.000 OA
ATOM      2  O   UNL     1      31.423   7.316  23.425  0.00  0.00    +0.000 OA
ATOM      3  O   UNL     1      36.225   3.623  22.609  0.00  0.00    +0.000 OA
ATOM      4  N   UNL     1      32.963   8.839  22.667  0.00  0.00    +0.000 N 
ATOM      5  N   UNL     1      35.358  11.254  21.529  0.00  0.00    +0.000 NA
ATOM      6  C   UNL     1      34.265   9.179  22.361  0.00  0.00    +0.000 A 
ATOM      7  C   UNL     1      32.973  11.040  21.940  0.00  0.00    +0.000 A 
ATOM      8  C   UNL     1      32.051   9.962  22.431  0.00  0.00    +0.000 C 
ATOM      9  C   UNL     1      34.960   6.958  22.987  0.00  0.00    +0.000 A 
ATOM     10  C   UNL     1      36.074   5.964  23.198  0.00  0.00    +0.000 C 
ATOM     11  C   UNL     1      34.278  10.564  21.905  0.00  0.00    +0.000 A 
ATOM     12  C   UNL     1      33.691   6.620  23.288  0.00  0.00    +0.000 A 
ATOM     13  C   UNL     1      32.718  12.349  21.553  0.00  0.00    +0.000 A 
ATOM     14  C   UNL     1      35.262   8.301  22.502  0.00  0.00    +0.000 A 
ATOM     15  C   UNL     1      32.577   7.610  23.135  0.00  0.00    +0.000 A 
ATOM     16  C   UNL     1      33.839  13.134  21.157  0.00  0.00    +0.000 A 
ATOM     17  C   UNL     1      33.312   5.275  23.801  0.00  0.00    +0.000 C 
ATOM     18  C   UNL     1      35.136  12.526  21.163  0.00  0.00    +0.000 A 
ATOM     19  C   UNL     1      35.533   4.521  23.091  0.00  0.00    +0.000 C 
ATOM     20  C   UNL     1      34.875  15.203  20.394  0.00  0.00    +0.000 A 
ATOM     21  C   UNL     1      33.738  14.485  20.758  0.00  0.00    +0.000 A 
ATOM     22  C   UNL     1      36.238  13.275  20.771  0.00  0.00    +0.000 A 
ATOM     23  C   UNL     1      36.125  14.608  20.377  0.00  0.00    +0.000 A 
ENDROOT
BRANCH  10  24
ATOM     24  O   UNL     1      37.061   6.154  22.175  0.00  0.00    +0.000 OA
ATOM     25  H   UNL     1      36.902   5.454  21.510  0.00  0.00    +0.000 HD
ENDBRANCH  10  24
BRANCH  10  26
ATOM     26  C   UNL     1      36.735   6.178  24.577  0.00  0.00    +0.000 C 
ATOM     27  C   UNL     1      36.816   7.636  25.021  0.00  0.00    +0.000 C 
ENDBRANCH  10  26
BRANCH  13  28
ATOM     28  C   UNL     1      31.307  12.883  21.600  0.00  0.00    +0.000 C 
ATOM     29  C   UNL     1      30.554  12.628  20.303  0.00  0.00    +0.000 C 
ENDBRANCH  13  28
BRANCH  20  30
ATOM     30  O   UNL     1      34.736  16.524  19.964  0.00  0.00    +0.000 OA
BRANCH  30  38
ATOM     31  O   UNL     1      33.467  17.265  21.754  0.00  0.00    +0.000 OA
ATOM     32  N   UNL     1      35.264  18.507  21.025  0.00  0.00    +0.000 N 
ATOM     33  C   UNL     1      36.301  21.204  20.561  0.00  0.00    +0.000 C 
ATOM     34  C   UNL     1      36.418  20.064  19.517  0.00  0.00    +0.000 C 
ATOM     35  C   UNL     1      35.074  20.915  21.462  0.00  0.00    +0.000 C 
ATOM     36  C   UNL     1      36.417  18.679  20.158  0.00  0.00    +0.000 C 
ATOM     37  C   UNL     1      35.105  19.512  22.059  0.00  0.00    +0.000 C 
ATOM     38  C   UNL     1      34.409  17.415  20.981  0.00  0.00    +0.000 C 
BRANCH  33  39
ATOM     39  N   UNL     1      36.212  22.551  19.915  0.00  0.00    +0.000 NA
ATOM     40  C   UNL     1      35.202  22.584  18.836  0.00  0.00    +0.000 C 
ATOM     41  C   UNL     1      35.937  23.623  20.894  0.00  0.00    +0.000 C 
ATOM     42  C   UNL     1      35.117  23.945  18.142  0.00  0.00    +0.000 C 
ATOM     43  C   UNL     1      35.870  25.011  20.252  0.00  0.00    +0.000 C 
ATOM     44  C   UNL     1      34.841  25.060  19.136  0.00  0.00    +0.000 C 
ENDBRANCH  33  39
ENDBRANCH  30  38
ENDBRANCH  20  30
TORSDOF 6
ENDMDL
MODEL 7
REMARK VINA RESULT:      -6.3     25.454     27.512
REMARK  Name = 
REMARK  8 active torsions:
REMARK  status: ('A' for Active; 'I' for Inactive)
REMARK    1  A    between atoms: O_1  and  C_21
REMARK    2  A    between atoms: O_1  and  C_38
REMARK    3  A    between atoms: O_4  and  C_26
REMARK    4  A    between atoms: N_7  and  C_11
REMARK    5  A    between atoms: C_26  and  C_33
REMARK    6  A    between atoms: C_29  and  C_37
REMARK    7  A    between atoms: C_33  and  C_42
REMARK    8  A    between atoms: C_37  and  C_43
REMARK                            x       y       z     vdW  Elec       q    Type
REMARK                         _______ _______ _______ _____ _____    ______ ____
ROOT
ATOM      1  O   UNL     1      20.794   0.821   3.425  0.00  0.00    +0.000 OA
ATOM      2  O   UNL     1      23.137   3.219   0.874  0.00  0.00    +0.000 OA
ATOM      3  O   UNL     1      20.567   0.324   5.604  0.00  0.00    +0.000 OA
ATOM      4  N   UNL     1      23.486   4.778   2.522  0.00  0.00    +0.000 N 
ATOM      5  N   UNL     1      24.007   7.255   5.063  0.00  0.00    +0.000 NA
ATOM      6  C   UNL     1      23.235   5.260   3.790  0.00  0.00    +0.000 A 
ATOM      7  C   UNL     1      24.706   6.729   2.797  0.00  0.00    +0.000 A 
ATOM      8  C   UNL     1      24.420   5.645   1.798  0.00  0.00    +0.000 C 
ATOM      9  C   UNL     1      21.767   3.390   4.179  0.00  0.00    +0.000 A 
ATOM     10  C   UNL     1      20.795   2.675   5.085  0.00  0.00    +0.000 C 
ATOM     11  C   UNL     1      23.999   6.490   3.969  0.00  0.00    +0.000 A 
ATOM     12  C   UNL     1      22.007   2.913   2.941  0.00  0.00    +0.000 A 
ATOM     13  C   UNL     1      25.515   7.854   2.711  0.00  0.00    +0.000 A 
ATOM     14  C   UNL     1      22.409   4.621   4.624  0.00  0.00    +0.000 A 
ATOM     15  C   UNL     1      22.928   3.637   2.008  0.00  0.00    +0.000 A 
ATOM     16  C   UNL     1      25.548   8.713   3.847  0.00  0.00    +0.000 A 
ATOM     17  C   UNL     1      21.376   1.672   2.415  0.00  0.00    +0.000 C 
ATOM     18  C   UNL     1      24.772   8.355   4.997  0.00  0.00    +0.000 A 
ATOM     19  C   UNL     1      20.734   1.173   4.727  0.00  0.00    +0.000 C 
ATOM     20  C   UNL     1      26.286  10.707   5.037  0.00  0.00    +0.000 A 
ATOM     21  C   UNL     1      26.307   9.903   3.900  0.00  0.00    +0.000 A 
ATOM     22  C   UNL     1      24.800   9.176   6.117  0.00  0.00    +0.000 A 
ATOM     23  C   UNL     1      25.555  10.348   6.157  0.00  0.00    +0.000 A 
ENDROOT
BRANCH  10  24
ATOM     24  O   UNL     1      21.252   2.800   6.439  0.00  0.00    +0.000 OA
ATOM     25  H   UNL     1      21.062   1.943   6.871  0.00  0.00    +0.000 HD
ENDBRANCH  10  24
BRANCH  10  26
ATOM     26  C   UNL     1      19.389   3.302   4.970  0.00  0.00    +0.000 C 
ATOM     27  C   UNL     1      18.421   2.891   6.077  0.00  0.00    +0.000 C 
ENDBRANCH  10  26
BRANCH  13  28
ATOM     28  C   UNL     1      26.279   8.133   1.439  0.00  0.00    +0.000 C 
ATOM     29  C   UNL     1      27.625   7.425   1.411  0.00  0.00    +0.000 C 
ENDBRANCH  13  28
BRANCH  20  30
ATOM     30  O   UNL     1      27.081  11.854   5.074  0.00  0.00    +0.000 OA
BRANCH  30  38
ATOM     31  O   UNL     1      29.107  10.787   5.422  0.00  0.00    +0.000 OA
ATOM     32  N   UNL     1      28.928  12.417   3.805  0.00  0.00    +0.000 N 
ATOM     33  C   UNL     1      30.263  14.663   2.487  0.00  0.00    +0.000 C 
ATOM     34  C   UNL     1      28.800  14.731   2.993  0.00  0.00    +0.000 C 
ATOM     35  C   UNL     1      31.022  13.607   3.331  0.00  0.00    +0.000 C 
ATOM     36  C   UNL     1      28.131  13.360   3.040  0.00  0.00    +0.000 C 
ATOM     37  C   UNL     1      30.302  12.263   3.368  0.00  0.00    +0.000 C 
ATOM     38  C   UNL     1      28.428  11.613   4.818  0.00  0.00    +0.000 C 
BRANCH  33  39
ATOM     39  N   UNL     1      30.936  15.999   2.532  0.00  0.00    +0.000 NA
ATOM     40  C   UNL     1      31.142  16.471   3.918  0.00  0.00    +0.000 C 
ATOM     41  C   UNL     1      32.222  16.002   1.804  0.00  0.00    +0.000 C 
ATOM     42  C   UNL     1      31.802  17.851   3.984  0.00  0.00    +0.000 C 
ATOM     43  C   UNL     1      32.911  17.369   1.817  0.00  0.00    +0.000 C 
ATOM     44  C   UNL     1      33.123  17.872   3.234  0.00  0.00    +0.000 C 
ENDBRANCH  33  39
ENDBRANCH  30  38
ENDBRANCH  20  30
TORSDOF 6
ENDMDL
MODEL 8
REMARK VINA RESULT:      -6.0      6.753     10.944
REMARK  Name = 
REMARK  8 active torsions:
REMARK  status: ('A' for Active; 'I' for Inactive)
REMARK    1  A    between atoms: O_1  and  C_21
REMARK    2  A    between atoms: O_1  and  C_38
REMARK    3  A    between atoms: O_4  and  C_26
REMARK    4  A    between atoms: N_7  and  C_11
REMARK    5  A    between atoms: C_26  and  C_33
REMARK    6  A    between atoms: C_29  and  C_37
REMARK    7  A    between atoms: C_33  and  C_42
REMARK    8  A    between atoms: C_37  and  C_43
REMARK                            x       y       z     vdW  Elec       q    Type
REMARK                         _______ _______ _______ _____ _____    ______ ____
ROOT
ATOM      1  O   UNL     1      43.976   1.174  22.106  0.00  0.00    +0.000 OA
ATOM      2  O   UNL     1      42.497   0.852  18.174  0.00  0.00    +0.000 OA
ATOM      3  O   UNL     1      44.362  -0.098  23.917  0.00  0.00    +0.000 OA
ATOM      4  N   UNL     1      43.183  -1.331  18.005  0.00  0.00    +0.000 N 
ATOM      5  N   UNL     1      44.288  -4.729  17.696  0.00  0.00    +0.000 NA
ATOM      6  C   UNL     1      43.852  -2.422  18.521  0.00  0.00    +0.000 A 
ATOM      7  C   UNL     1      43.020  -3.059  16.469  0.00  0.00    +0.000 A 
ATOM      8  C   UNL     1      42.609  -1.632  16.691  0.00  0.00    +0.000 C 
ATOM      9  C   UNL     1      44.391  -1.128  20.481  0.00  0.00    +0.000 A 
ATOM     10  C   UNL     1      45.100  -1.027  21.809  0.00  0.00    +0.000 C 
ATOM     11  C   UNL     1      43.755  -3.513  17.558  0.00  0.00    +0.000 A 
ATOM     12  C   UNL     1      43.740  -0.058  19.983  0.00  0.00    +0.000 A 
ATOM     13  C   UNL     1      42.789  -3.917  15.403  0.00  0.00    +0.000 A 
ATOM     14  C   UNL     1      44.452  -2.367  19.714  0.00  0.00    +0.000 A 
ATOM     15  C   UNL     1      43.076  -0.122  18.642  0.00  0.00    +0.000 A 
ATOM     16  C   UNL     1      43.349  -5.224  15.493  0.00  0.00    +0.000 A 
ATOM     17  C   UNL     1      43.651   1.242  20.702  0.00  0.00    +0.000 C 
ATOM     18  C   UNL     1      44.088  -5.571  16.671  0.00  0.00    +0.000 A 
ATOM     19  C   UNL     1      44.426   0.045  22.695  0.00  0.00    +0.000 C 
ATOM     20  C   UNL     1      43.799  -7.455  14.622  0.00  0.00    +0.000 A 
ATOM     21  C   UNL     1      43.216  -6.197  14.479  0.00  0.00    +0.000 A 
ATOM     22  C   UNL     1      44.633  -6.844  16.779  0.00  0.00    +0.000 A 
ATOM     23  C   UNL     1      44.493  -7.798  15.770  0.00  0.00    +0.000 A 
ENDROOT
BRANCH  10  24
ATOM     24  O   UNL     1      45.005  -2.292  22.478  0.00  0.00    +0.000 OA
ATOM     25  H   UNL     1      44.965  -2.970  21.775  0.00  0.00    +0.000 HD
ENDBRANCH  10  24
BRANCH  10  26
ATOM     26  C   UNL     1      46.589  -0.679  21.602  0.00  0.00    +0.000 C 
ATOM     27  C   UNL     1      47.480  -0.968  22.807  0.00  0.00    +0.000 C 
ENDBRANCH  10  26
BRANCH  13  28
ATOM     28  C   UNL     1      42.004  -3.433  14.208  0.00  0.00    +0.000 C 
ATOM     29  C   UNL     1      42.878  -2.689  13.210  0.00  0.00    +0.000 C 
ENDBRANCH  13  28
BRANCH  20  30
ATOM     30  O   UNL     1      43.612  -8.409  13.621  0.00  0.00    +0.000 OA
BRANCH  30  38
ATOM     31  O   UNL     1      45.566  -7.754  12.562  0.00  0.00    +0.000 OA
ATOM     32  N   UNL     1      44.819  -9.924  12.361  0.00  0.00    +0.000 N 
ATOM     33  C   UNL     1      44.543 -12.221  10.570  0.00  0.00    +0.000 C 
ATOM     34  C   UNL     1      43.385 -11.700  11.458  0.00  0.00    +0.000 C 
ATOM     35  C   UNL     1      45.508 -11.043  10.287  0.00  0.00    +0.000 C 
ATOM     36  C   UNL     1      43.882 -10.978  12.707  0.00  0.00    +0.000 C 
ATOM     37  C   UNL     1      45.958 -10.337  11.563  0.00  0.00    +0.000 C 
ATOM     38  C   UNL     1      44.737  -8.620  12.828  0.00  0.00    +0.000 C 
BRANCH  33  39
ATOM     39  N   UNL     1      44.043 -12.848   9.305  0.00  0.00    +0.000 NA
ATOM     40  C   UNL     1      42.657 -12.440   8.994  0.00  0.00    +0.000 C 
ATOM     41  C   UNL     1      44.923 -12.558   8.153  0.00  0.00    +0.000 C 
ATOM     42  C   UNL     1      42.117 -13.094   7.720  0.00  0.00    +0.000 C 
ATOM     43  C   UNL     1      44.440 -13.214   6.857  0.00  0.00    +0.000 C 
ATOM     44  C   UNL     1      43.014 -12.812   6.527  0.00  0.00    +0.000 C 
ENDBRANCH  33  39
ENDBRANCH  30  38
ENDBRANCH  20  30
TORSDOF 6
ENDMDL
MODEL 9
REMARK VINA RESULT:      -5.9      5.310      7.948
REMARK  Name = 
REMARK  8 active torsions:
REMARK  status: ('A' for Active; 'I' for Inactive)
REMARK    1  A    between atoms: O_1  and  C_21
REMARK    2  A    between atoms: O_1  and  C_38
REMARK    3  A    between atoms: O_4  and  C_26
REMARK    4  A    between atoms: N_7  and  C_11
REMARK    5  A    between atoms: C_26  and  C_33
REMARK    6  A    between atoms: C_29  and  C_37
REMARK    7  A    between atoms: C_33  and  C_42
REMARK    8  A    between atoms: C_37  and  C_43
REMARK                            x       y       z     vdW  Elec       q    Type
REMARK                         _______ _______ _______ _____ _____    ______ ____
ROOT
ATOM      1  O   UNL     1      46.001   3.403  30.660  0.00  0.00    +0.000 OA
ATOM      2  O   UNL     1      42.523   5.352  29.297  0.00  0.00    +0.000 OA
ATOM      3  O   UNL     1      47.142   1.491  30.359  0.00  0.00    +0.000 OA
ATOM      4  N   UNL     1      42.640   4.312  27.254  0.00  0.00    +0.000 N 
ATOM      5  N   UNL     1      42.826   2.738  24.036  0.00  0.00    +0.000 NA
ATOM      6  C   UNL     1      43.303   3.498  26.358  0.00  0.00    +0.000 A 
ATOM      7  C   UNL     1      41.366   4.194  25.321  0.00  0.00    +0.000 A 
ATOM      8  C   UNL     1      41.383   4.811  26.690  0.00  0.00    +0.000 C 
ATOM      9  C   UNL     1      45.054   3.184  27.983  0.00  0.00    +0.000 A 
ATOM     10  C   UNL     1      46.395   2.595  28.340  0.00  0.00    +0.000 C 
ATOM     11  C   UNL     1      42.507   3.422  25.138  0.00  0.00    +0.000 A 
ATOM     12  C   UNL     1      44.412   3.977  28.863  0.00  0.00    +0.000 A 
ATOM     13  C   UNL     1      40.439   4.289  24.293  0.00  0.00    +0.000 A 
ATOM     14  C   UNL     1      44.474   2.934  26.668  0.00  0.00    +0.000 A 
ATOM     15  C   UNL     1      43.104   4.614  28.508  0.00  0.00    +0.000 A 
ATOM     16  C   UNL     1      40.739   3.590  23.088  0.00  0.00    +0.000 A 
ATOM     17  C   UNL     1      44.951   4.288  30.215  0.00  0.00    +0.000 C 
ATOM     18  C   UNL     1      41.950   2.826  23.024  0.00  0.00    +0.000 A 
ATOM     19  C   UNL     1      46.522   2.438  29.872  0.00  0.00    +0.000 C 
ATOM     20  C   UNL     1      40.259   2.914  20.796  0.00  0.00    +0.000 A 
ATOM     21  C   UNL     1      39.903   3.610  21.950  0.00  0.00    +0.000 A 
ATOM     22  C   UNL     1      42.253   2.131  21.860  0.00  0.00    +0.000 A 
ATOM     23  C   UNL     1      41.418   2.157  20.743  0.00  0.00    +0.000 A 
ENDROOT
BRANCH  10  24
ATOM     24  O   UNL     1      46.501   1.295  27.743  0.00  0.00    +0.000 OA
ATOM     25  H   UNL     1      47.107   0.781  28.314  0.00  0.00    +0.000 HD
ENDBRANCH  10  24
BRANCH  10  26
ATOM     26  C   UNL     1      47.537   3.486  27.805  0.00  0.00    +0.000 C 
ATOM     27  C   UNL     1      48.201   2.968  26.533  0.00  0.00    +0.000 C 
ENDBRANCH  10  26
BRANCH  13  28
ATOM     28  C   UNL     1      39.202   5.135  24.473  0.00  0.00    +0.000 C 
ATOM     29  C   UNL     1      38.054   4.348  25.086  0.00  0.00    +0.000 C 
ENDBRANCH  13  28
BRANCH  20  30
ATOM     30  O   UNL     1      39.391   2.918  19.704  0.00  0.00    +0.000 OA
BRANCH  30  38
ATOM     31  O   UNL     1      38.629   0.767  20.103  0.00  0.00    +0.000 OA
ATOM     32  N   UNL     1      38.969   1.486  17.941  0.00  0.00    +0.000 N 
ATOM     33  C   UNL     1      39.891   0.734  15.267  0.00  0.00    +0.000 C 
ATOM     34  C   UNL     1      40.335   2.037  15.976  0.00  0.00    +0.000 C 
ATOM     35  C   UNL     1      39.511  -0.306  16.353  0.00  0.00    +0.000 C 
ATOM     36  C   UNL     1      39.310   2.532  16.993  0.00  0.00    +0.000 C 
ATOM     37  C   UNL     1      38.503   0.242  17.358  0.00  0.00    +0.000 C 
ATOM     38  C   UNL     1      38.966   1.650  19.318  0.00  0.00    +0.000 C 
BRANCH  33  39
ATOM     39  N   UNL     1      40.943   0.211  14.341  0.00  0.00    +0.000 NA
ATOM     40  C   UNL     1      41.540  -1.050  14.833  0.00  0.00    +0.000 C 
ATOM     41  C   UNL     1      40.435   0.022  12.966  0.00  0.00    +0.000 C 
ATOM     42  C   UNL     1      42.641  -1.585  13.914  0.00  0.00    +0.000 C 
ATOM     43  C   UNL     1      41.507  -0.487  12.000  0.00  0.00    +0.000 C 
ATOM     44  C   UNL     1      42.136  -1.778  12.495  0.00  0.00    +0.000 C 
ENDBRANCH  33  39
ENDBRANCH  30  38
ENDBRANCH  20  30
TORSDOF 6
ENDMDL
