MODEL 1
REMARK VINA RESULT:      -6.9      0.000      0.000
REMARK  Name = 
REMARK  8 active torsions:
REMARK  status: ('A' for Active; 'I' for Inactive)
REMARK    1  A    between atoms: O_1  and  C_21
REMARK    2  A    between atoms: O_1  and  C_38
REMARK    3  A    between atoms: O_4  and  C_26
REMARK    4  A    between atoms: N_7  and  C_11
REMARK    5  A    between atoms: C_26  and  C_33
REMARK    6  A    between atoms: C_29  and  C_37
REMARK    7  A    between atoms: C_33  and  C_42
REMARK    8  A    between atoms: C_37  and  C_43
REMARK                            x       y       z     vdW  Elec       q    Type
REMARK                         _______ _______ _______ _____ _____    ______ ____
ROOT
ATOM      1  O   UNL     1      27.091   7.038   3.752  0.00  0.00    +0.000 OA
ATOM      2  O   UNL     1      27.955   9.470   0.422  0.00  0.00    +0.000 OA
ATOM      3  O   UNL     1      27.879   6.574   5.804  0.00  0.00    +0.000 OA
ATOM      4  N   UNL     1      28.936  11.072   1.741  0.00  0.00    +0.000 N 
ATOM      5  N   UNL     1      30.431  13.614   3.783  0.00  0.00    +0.000 NA
ATOM      6  C   UNL     1      29.256  11.569   2.988  0.00  0.00    +0.000 A 
ATOM      7  C   UNL     1      30.070  13.071   1.442  0.00  0.00    +0.000 A 
ATOM      8  C   UNL     1      29.414  11.959   0.676  0.00  0.00    +0.000 C 
ATOM      9  C   UNL     1      28.192   9.654   3.991  0.00  0.00    +0.000 A 
ATOM     10  C   UNL     1      27.755   8.922   5.235  0.00  0.00    +0.000 C 
ATOM     11  C   UNL     1      29.968  12.829   2.807  0.00  0.00    +0.000 A 
ATOM     12  C   UNL     1      27.876   9.163   2.776  0.00  0.00    +0.000 A 
ATOM     13  C   UNL     1      30.710  14.223   1.004  0.00  0.00    +0.000 A 
ATOM     14  C   UNL     1      28.914  10.916   4.103  0.00  0.00    +0.000 A 
ATOM     15  C   UNL     1      28.255   9.902   1.530  0.00  0.00    +0.000 A 
ATOM     16  C   UNL     1      31.209  15.104   2.007  0.00  0.00    +0.000 A 
ATOM     17  C   UNL     1      27.128   7.890   2.588  0.00  0.00    +0.000 C 
ATOM     18  C   UNL     1      31.041  14.739   3.382  0.00  0.00    +0.000 A 
ATOM     19  C   UNL     1      27.603   7.412   4.944  0.00  0.00    +0.000 C 
ATOM     20  C   UNL     1      32.318  17.145   2.742  0.00  0.00    +0.000 A 
ATOM     21  C   UNL     1      31.863  16.321   1.715  0.00  0.00    +0.000 A 
ATOM     22  C   UNL     1      31.531  15.582   4.372  0.00  0.00    +0.000 A 
ATOM     23  C   UNL     1      32.176  16.782   4.070  0.00  0.00    +0.000 A 
ENDROOT
BRANCH  10  24
ATOM     24  O   UNL     1      28.761   9.088   6.245  0.00  0.00    +0.000 OA
ATOM     25  H   UNL     1      29.597   9.270   5.769  0.00  0.00    +0.000 HD
ENDBRANCH  10  24
BRANCH  10  26
ATOM     26  C   UNL     1      26.421   9.495   5.759  0.00  0.00    +0.000 C 
ATOM     27  C   UNL     1      25.351   8.445   6.046  0.00  0.00    +0.000 C 
ENDBRANCH  10  26
BRANCH  13  28
ATOM     28  C   UNL     1      30.816  14.505  -0.474  0.00  0.00    +0.000 C 
ATOM     29  C   UNL     1      32.003  13.798  -1.110  0.00  0.00    +0.000 C 
ENDBRANCH  13  28
BRANCH  20  30
ATOM     30  O   UNL     1      32.998  18.321   2.420  0.00  0.00    +0.000 OA
BRANCH  30  38
ATOM     31  O   UNL     1      31.394  19.471   1.207  0.00  0.00    +0.000 OA
ATOM     32  N   UNL     1      33.418  18.954   0.238  0.00  0.00    +0.000 N 
ATOM     33  C   UNL     1      34.771  18.123  -2.220  0.00  0.00    +0.000 C 
ATOM     34  C   UNL     1      35.043  17.464  -0.844  0.00  0.00    +0.000 C 
ATOM     35  C   UNL     1      33.338  18.711  -2.204  0.00  0.00    +0.000 C 
ATOM     36  C   UNL     1      34.761  18.406   0.324  0.00  0.00    +0.000 C 
ATOM     37  C   UNL     1      33.096  19.626  -1.007  0.00  0.00    +0.000 C 
ATOM     38  C   UNL     1      32.508  18.961   1.285  0.00  0.00    +0.000 C 
BRANCH  33  39
ATOM     39  N   UNL     1      34.965  17.161  -3.351  0.00  0.00    +0.000 NA
ATOM     40  C   UNL     1      36.358  17.160  -3.846  0.00  0.00    +0.000 C 
ATOM     41  C   UNL     1      34.559  15.786  -2.992  0.00  0.00    +0.000 C 
ATOM     42  C   UNL     1      36.570  16.206  -5.024  0.00  0.00    +0.000 C 
ATOM     43  C   UNL     1      34.726  14.796  -4.147  0.00  0.00    +0.000 C 
ATOM     44  C   UNL     1      36.151  14.789  -4.673  0.00  0.00    +0.000 C 
ENDBRANCH  33  39
ENDBRANCH  30  38
ENDBRANCH  20  30
TORSDOF 6
ENDMDL
MODEL 2
REMARK VINA RESULT:      -6.8     14.621     20.236
REMARK  Name = 
REMARK  8 active torsions:
REMARK  status: ('A' for Active; 'I' for Inactive)
REMARK    1  A    between atoms: O_1  and  C_21
REMARK    2  A    between atoms: O_1  and  C_38
REMARK    3  A    between atoms: O_4  and  C_26
REMARK    4  A    between atoms: N_7  and  C_11
REMARK    5  A    between atoms: C_26  and  C_33
REMARK    6  A    between atoms: C_29  and  C_37
REMARK    7  A    between atoms: C_33  and  C_42
REMARK    8  A    between atoms: C_37  and  C_43
REMARK                            x       y       z     vdW  Elec       q    Type
REMARK                         _______ _______ _______ _____ _____    ______ ____
ROOT
ATOM      1  O   UNL     1      28.924   1.636  -5.614  0.00  0.00    +0.000 OA
ATOM      2  O   UNL     1      26.707  -1.640  -4.164  0.00  0.00    +0.000 OA
ATOM      3  O   UNL     1      30.253   3.289  -4.872  0.00  0.00    +0.000 OA
ATOM      4  N   UNL     1      28.136  -1.929  -2.392  0.00  0.00    +0.000 N 
ATOM      5  N   UNL     1      30.380  -2.436   0.360  0.00  0.00    +0.000 NA
ATOM      6  C   UNL     1      29.296  -1.603  -1.720  0.00  0.00    +0.000 A 
ATOM      7  C   UNL     1      28.274  -3.277  -0.511  0.00  0.00    +0.000 A 
ATOM      8  C   UNL     1      27.403  -2.993  -1.700  0.00  0.00    +0.000 C 
ATOM      9  C   UNL     1      29.774   0.049  -3.409  0.00  0.00    +0.000 A 
ATOM     10  C   UNL     1      30.709   1.091  -3.969  0.00  0.00    +0.000 C 
ATOM     11  C   UNL     1      29.390  -2.449  -0.536  0.00  0.00    +0.000 A 
ATOM     12  C   UNL     1      28.643  -0.266  -4.070  0.00  0.00    +0.000 A 
ATOM     13  C   UNL     1      28.129  -4.189   0.525  0.00  0.00    +0.000 A 
ATOM     14  C   UNL     1      30.118  -0.653  -2.177  0.00  0.00    +0.000 A 
ATOM     15  C   UNL     1      27.729  -1.336  -3.558  0.00  0.00    +0.000 A 
ATOM     16  C   UNL     1      29.167  -4.226   1.501  0.00  0.00    +0.000 A 
ATOM     17  C   UNL     1      28.237   0.398  -5.339  0.00  0.00    +0.000 C 
ATOM     18  C   UNL     1      30.267  -3.319   1.364  0.00  0.00    +0.000 A 
ATOM     19  C   UNL     1      29.926   2.101  -4.838  0.00  0.00    +0.000 C 
ATOM     20  C   UNL     1      30.221  -5.110   3.513  0.00  0.00    +0.000 A 
ATOM     21  C   UNL     1      29.169  -5.114   2.599  0.00  0.00    +0.000 A 
ATOM     22  C   UNL     1      31.283  -3.336   2.311  0.00  0.00    +0.000 A 
ATOM     23  C   UNL     1      31.272  -4.216   3.393  0.00  0.00    +0.000 A 
ENDROOT
BRANCH  10  24
ATOM     24  O   UNL     1      31.310   1.804  -2.878  0.00  0.00    +0.000 OA
ATOM     25  H   UNL     1      30.584   2.292  -2.438  0.00  0.00    +0.000 HD
ENDBRANCH  10  24
BRANCH  10  26
ATOM     26  C   UNL     1      31.822   0.426  -4.806  0.00  0.00    +0.000 C 
ATOM     27  C   UNL     1      33.236   0.667  -4.285  0.00  0.00    +0.000 C 
ENDBRANCH  10  26
BRANCH  13  28
ATOM     28  C   UNL     1      26.929  -5.104   0.557  0.00  0.00    +0.000 C 
ATOM     29  C   UNL     1      25.751  -4.479   1.289  0.00  0.00    +0.000 C 
ENDBRANCH  13  28
BRANCH  20  30
ATOM     30  O   UNL     1      30.171  -5.969   4.611  0.00  0.00    +0.000 OA
BRANCH  30  38
ATOM     31  O   UNL     1      28.186  -4.961   5.250  0.00  0.00    +0.000 OA
ATOM     32  N   UNL     1      29.347  -6.268   6.749  0.00  0.00    +0.000 N 
ATOM     33  C   UNL     1      30.156  -6.593   9.542  0.00  0.00    +0.000 C 
ATOM     34  C   UNL     1      31.143  -6.735   8.357  0.00  0.00    +0.000 C 
ATOM     35  C   UNL     1      28.997  -5.664   9.102  0.00  0.00    +0.000 C 
ATOM     36  C   UNL     1      30.452  -7.158   7.064  0.00  0.00    +0.000 C 
ATOM     37  C   UNL     1      28.353  -6.112   7.793  0.00  0.00    +0.000 C 
ATOM     38  C   UNL     1      29.151  -5.674   5.511  0.00  0.00    +0.000 C 
BRANCH  33  39
ATOM     39  N   UNL     1      30.832  -6.092  10.780  0.00  0.00    +0.000 NA
ATOM     40  C   UNL     1      31.383  -4.732  10.599  0.00  0.00    +0.000 C 
ATOM     41  C   UNL     1      29.937  -6.119  11.956  0.00  0.00    +0.000 C 
ATOM     42  C   UNL     1      32.106  -4.213  11.845  0.00  0.00    +0.000 C 
ATOM     43  C   UNL     1      30.622  -5.634  13.236  0.00  0.00    +0.000 C 
ATOM     44  C   UNL     1      31.201  -4.240  13.064  0.00  0.00    +0.000 C 
ENDBRANCH  33  39
ENDBRANCH  30  38
ENDBRANCH  20  30
TORSDOF 6
ENDMDL
MODEL 3
REMARK VINA RESULT:      -6.5      7.433     11.452
REMARK  Name = 
REMARK  8 active torsions:
REMARK  status: ('A' for Active; 'I' for Inactive)
REMARK    1  A    between atoms: O_1  and  C_21
REMARK    2  A    between atoms: O_1  and  C_38
REMARK    3  A    between atoms: O_4  and  C_26
REMARK    4  A    between atoms: N_7  and  C_11
REMARK    5  A    between atoms: C_26  and  C_33
REMARK    6  A    between atoms: C_29  and  C_37
REMARK    7  A    between atoms: C_33  and  C_42
REMARK    8  A    between atoms: C_37  and  C_43
REMARK                            x       y       z     vdW  Elec       q    Type
REMARK                         _______ _______ _______ _____ _____    ______ ____
ROOT
ATOM      1  O   UNL     1      29.778  -2.223  -4.204  0.00  0.00    +0.000 OA
ATOM      2  O   UNL     1      27.317   0.768  -5.861  0.00  0.00    +0.000 OA
ATOM      3  O   UNL     1      31.832  -2.486  -3.333  0.00  0.00    +0.000 OA
ATOM      4  N   UNL     1      28.332   2.409  -4.619  0.00  0.00    +0.000 N 
ATOM      5  N   UNL     1      29.867   4.986  -2.652  0.00  0.00    +0.000 NA
ATOM      6  C   UNL     1      29.221   2.793  -3.635  0.00  0.00    +0.000 A 
ATOM      7  C   UNL     1      28.231   4.717  -4.428  0.00  0.00    +0.000 A 
ATOM      8  C   UNL     1      27.644   3.568  -5.195  0.00  0.00    +0.000 C 
ATOM      9  C   UNL     1      29.815   0.480  -3.310  0.00  0.00    +0.000 A 
ATOM     10  C   UNL     1      30.600  -0.557  -2.548  0.00  0.00    +0.000 C 
ATOM     11  C   UNL     1      29.160   4.245  -3.509  0.00  0.00    +0.000 A 
ATOM     12  C   UNL     1      28.949   0.098  -4.269  0.00  0.00    +0.000 A 
ATOM     13  C   UNL     1      27.985   6.081  -4.504  0.00  0.00    +0.000 A 
ATOM     14  C   UNL     1      29.957   1.893  -2.975  0.00  0.00    +0.000 A 
ATOM     15  C   UNL     1      28.121   1.110  -5.000  0.00  0.00    +0.000 A 
ATOM     16  C   UNL     1      28.703   6.917  -3.600  0.00  0.00    +0.000 A 
ATOM     17  C   UNL     1      28.741  -1.325  -4.652  0.00  0.00    +0.000 C 
ATOM     18  C   UNL     1      29.635   6.307  -2.699  0.00  0.00    +0.000 A 
ATOM     19  C   UNL     1      30.797  -1.823  -3.414  0.00  0.00    +0.000 C 
ATOM     20  C   UNL     1      29.266   9.080  -2.630  0.00  0.00    +0.000 A 
ATOM     21  C   UNL     1      28.543   8.319  -3.546  0.00  0.00    +0.000 A 
ATOM     22  C   UNL     1      30.350   7.109  -1.818  0.00  0.00    +0.000 A 
ATOM     23  C   UNL     1      30.184   8.493  -1.775  0.00  0.00    +0.000 A 
ENDROOT
BRANCH  10  24
ATOM     24  O   UNL     1      31.892  -0.019  -2.235  0.00  0.00    +0.000 OA
ATOM     25  H   UNL     1      31.830   0.328  -1.323  0.00  0.00    +0.000 HD
ENDBRANCH  10  24
BRANCH  10  26
ATOM     26  C   UNL     1      29.879  -0.925  -1.234  0.00  0.00    +0.000 C 
ATOM     27  C   UNL     1      30.205  -2.317  -0.700  0.00  0.00    +0.000 C 
ENDBRANCH  10  26
BRANCH  13  28
ATOM     28  C   UNL     1      26.969   6.606  -5.489  0.00  0.00    +0.000 C 
ATOM     29  C   UNL     1      25.549   6.521  -4.949  0.00  0.00    +0.000 C 
ENDBRANCH  13  28
BRANCH  20  30
ATOM     30  O   UNL     1      29.117  10.467  -2.630  0.00  0.00    +0.000 OA
BRANCH  30  38
ATOM     31  O   UNL     1      30.818  11.481  -1.429  0.00  0.00    +0.000 OA
ATOM     32  N   UNL     1      28.736  11.221  -0.480  0.00  0.00    +0.000 N 
ATOM     33  C   UNL     1      27.264  10.629   1.979  0.00  0.00    +0.000 C 
ATOM     34  C   UNL     1      26.943   9.954   0.622  0.00  0.00    +0.000 C 
ATOM     35  C   UNL     1      28.753  11.059   1.969  0.00  0.00    +0.000 C 
ATOM     36  C   UNL     1      27.343  10.818  -0.572  0.00  0.00    +0.000 C 
ATOM     37  C   UNL     1      29.110  11.899   0.747  0.00  0.00    +0.000 C 
ATOM     38  C   UNL     1      29.656  11.091  -1.509  0.00  0.00    +0.000 C 
BRANCH  33  39
ATOM     39  N   UNL     1      26.950   9.736   3.139  0.00  0.00    +0.000 NA
ATOM     40  C   UNL     1      26.753   8.331   2.720  0.00  0.00    +0.000 C 
ATOM     41  C   UNL     1      27.984   9.805   4.193  0.00  0.00    +0.000 C 
ATOM     42  C   UNL     1      26.401   7.407   3.888  0.00  0.00    +0.000 C 
ATOM     43  C   UNL     1      27.664   8.917   5.398  0.00  0.00    +0.000 C 
ATOM     44  C   UNL     1      27.450   7.471   4.984  0.00  0.00    +0.000 C 
ENDBRANCH  33  39
ENDBRANCH  30  38
ENDBRANCH  20  30
TORSDOF 6
ENDMDL
MODEL 4
REMARK VINA RESULT:      -6.4     12.698     18.247
REMARK  Name = 
REMARK  8 active torsions:
REMARK  status: ('A' for Active; 'I' for Inactive)
REMARK    1  A    between atoms: O_1  and  C_21
REMARK    2  A    between atoms: O_1  and  C_38
REMARK    3  A    between atoms: O_4  and  C_26
REMARK    4  A    between atoms: N_7  and  C_11
REMARK    5  A    between atoms: C_26  and  C_33
REMARK    6  A    between atoms: C_29  and  C_37
REMARK    7  A    between atoms: C_33  and  C_42
REMARK    8  A    between atoms: C_37  and  C_43
REMARK                            x       y       z     vdW  Elec       q    Type
REMARK                         _______ _______ _______ _____ _____    ______ ____
ROOT
ATOM      1  O   UNL     1      27.098   8.294  -3.475  0.00  0.00    +0.000 OA
ATOM      2  O   UNL     1      26.263   4.783  -5.650  0.00  0.00    +0.000 OA
ATOM      3  O   UNL     1      27.927   8.941  -1.490  0.00  0.00    +0.000 OA
ATOM      4  N   UNL     1      27.948   3.632  -4.599  0.00  0.00    +0.000 N 
ATOM      5  N   UNL     1      30.605   1.822  -3.009  0.00  0.00    +0.000 NA
ATOM      6  C   UNL     1      29.028   3.603  -3.741  0.00  0.00    +0.000 A 
ATOM      7  C   UNL     1      28.772   1.466  -4.563  0.00  0.00    +0.000 A 
ATOM      8  C   UNL     1      27.696   2.310  -5.181  0.00  0.00    +0.000 C 
ATOM      9  C   UNL     1      28.713   5.953  -3.313  0.00  0.00    +0.000 A 
ATOM     10  C   UNL     1      29.179   7.218  -2.636  0.00  0.00    +0.000 C 
ATOM     11  C   UNL     1      29.553   2.242  -3.716  0.00  0.00    +0.000 A 
ATOM     12  C   UNL     1      27.657   5.989  -4.150  0.00  0.00    +0.000 A 
ATOM     13  C   UNL     1      29.073   0.120  -4.718  0.00  0.00    +0.000 A 
ATOM     14  C   UNL     1      29.433   4.703  -3.100  0.00  0.00    +0.000 A 
ATOM     15  C   UNL     1      27.211   4.755  -4.873  0.00  0.00    +0.000 A 
ATOM     16  C   UNL     1      30.197  -0.377  -3.997  0.00  0.00    +0.000 A 
ATOM     17  C   UNL     1      26.886   7.231  -4.428  0.00  0.00    +0.000 C 
ATOM     18  C   UNL     1      30.922   0.527  -3.154  0.00  0.00    +0.000 A 
ATOM     19  C   UNL     1      28.001   8.206  -2.476  0.00  0.00    +0.000 C 
ATOM     20  C   UNL     1      31.751  -2.138  -3.349  0.00  0.00    +0.000 A 
ATOM     21  C   UNL     1      30.636  -1.717  -4.070  0.00  0.00    +0.000 A 
ATOM     22  C   UNL     1      32.014   0.056  -2.436  0.00  0.00    +0.000 A 
ATOM     23  C   UNL     1      32.437  -1.271  -2.516  0.00  0.00    +0.000 A 
ENDROOT
BRANCH  10  24
ATOM     24  O   UNL     1      29.672   6.886  -1.331  0.00  0.00    +0.000 OA
ATOM     25  H   UNL     1      29.838   5.922  -1.339  0.00  0.00    +0.000 HD
ENDBRANCH  10  24
BRANCH  10  26
ATOM     26  C   UNL     1      30.314   7.878  -3.448  0.00  0.00    +0.000 C 
ATOM     27  C   UNL     1      31.392   8.548  -2.599  0.00  0.00    +0.000 C 
ENDBRANCH  10  26
BRANCH  13  28
ATOM     28  C   UNL     1      28.241  -0.733  -5.646  0.00  0.00    +0.000 C 
ATOM     29  C   UNL     1      28.795  -0.747  -7.063  0.00  0.00    +0.000 C 
ENDBRANCH  13  28
BRANCH  20  30
ATOM     30  O   UNL     1      32.134  -3.479  -3.409  0.00  0.00    +0.000 OA
BRANCH  30  38
ATOM     31  O   UNL     1      31.462  -4.209  -1.316  0.00  0.00    +0.000 OA
ATOM     32  N   UNL     1      30.678  -5.262  -3.208  0.00  0.00    +0.000 N 
ATOM     33  C   UNL     1      29.942  -7.827  -4.409  0.00  0.00    +0.000 C 
ATOM     34  C   UNL     1      30.841  -6.788  -5.125  0.00  0.00    +0.000 C 
ATOM     35  C   UNL     1      30.082  -7.621  -2.880  0.00  0.00    +0.000 C 
ATOM     36  C   UNL     1      30.578  -5.360  -4.654  0.00  0.00    +0.000 C 
ATOM     37  C   UNL     1      29.835  -6.175  -2.461  0.00  0.00    +0.000 C 
ATOM     38  C   UNL     1      31.427  -4.305  -2.540  0.00  0.00    +0.000 C 
BRANCH  33  39
ATOM     39  N   UNL     1      30.272  -9.230  -4.814  0.00  0.00    +0.000 NA
ATOM     40  C   UNL     1      31.308  -9.274  -5.868  0.00  0.00    +0.000 C 
ATOM     41  C   UNL     1      30.688 -10.060  -3.665  0.00  0.00    +0.000 C 
ATOM     42  C   UNL     1      31.638 -10.700  -6.317  0.00  0.00    +0.000 C 
ATOM     43  C   UNL     1      31.003 -11.506  -4.058  0.00  0.00    +0.000 C 
ATOM     44  C   UNL     1      32.061 -11.569  -5.146  0.00  0.00    +0.000 C 
ENDBRANCH  33  39
ENDBRANCH  30  38
ENDBRANCH  20  30
TORSDOF 6
ENDMDL
MODEL 5
REMARK VINA RESULT:      -6.1     21.074     25.318
REMARK  Name = 
REMARK  8 active torsions:
REMARK  status: ('A' for Active; 'I' for Inactive)
REMARK    1  A    between atoms: O_1  and  C_21
REMARK    2  A    between atoms: O_1  and  C_38
REMARK    3  A    between atoms: O_4  and  C_26
REMARK    4  A    between atoms: N_7  and  C_11
REMARK    5  A    between atoms: C_26  and  C_33
REMARK    6  A    between atoms: C_29  and  C_37
REMARK    7  A    between atoms: C_33  and  C_42
REMARK    8  A    between atoms: C_37  and  C_43
REMARK                            x       y       z     vdW  Elec       q    Type
REMARK                         _______ _______ _______ _____ _____    ______ ____
ROOT
ATOM      1  O   UNL     1      40.142   4.977  -8.151  0.00  0.00    +0.000 OA
ATOM      2  O   UNL     1      37.997   1.409  -8.797  0.00  0.00    +0.000 OA
ATOM      3  O   UNL     1      42.250   5.699  -7.865  0.00  0.00    +0.000 OA
ATOM      4  N   UNL     1      39.774   0.438  -9.877  0.00  0.00    +0.000 N 
ATOM      5  N   UNL     1      42.519  -1.086 -11.612  0.00  0.00    +0.000 NA
ATOM      6  C   UNL     1      41.043   0.520 -10.414  0.00  0.00    +0.000 A 
ATOM      7  C   UNL     1      40.298  -1.628 -10.788  0.00  0.00    +0.000 A 
ATOM      8  C   UNL     1      39.205  -0.900 -10.061  0.00  0.00    +0.000 C 
ATOM      9  C   UNL     1      41.160   2.821  -9.708  0.00  0.00    +0.000 A 
ATOM     10  C   UNL     1      41.918   4.125  -9.671  0.00  0.00    +0.000 C 
ATOM     11  C   UNL     1      41.378  -0.777 -10.991  0.00  0.00    +0.000 A 
ATOM     12  C   UNL     1      39.921   2.748  -9.183  0.00  0.00    +0.000 A 
ATOM     13  C   UNL     1      40.368  -2.934 -11.254  0.00  0.00    +0.000 A 
ATOM     14  C   UNL     1      41.748   1.654 -10.356  0.00  0.00    +0.000 A 
ATOM     15  C   UNL     1      39.132   1.478  -9.257  0.00  0.00    +0.000 A 
ATOM     16  C   UNL     1      41.559  -3.311 -11.939  0.00  0.00    +0.000 A 
ATOM     17  C   UNL     1      39.253   3.903  -8.522  0.00  0.00    +0.000 C 
ATOM     18  C   UNL     1      42.602  -2.340 -12.082  0.00  0.00    +0.000 A 
ATOM     19  C   UNL     1      41.453   4.981  -8.471  0.00  0.00    +0.000 C 
ATOM     20  C   UNL     1      42.948  -4.900 -13.156  0.00  0.00    +0.000 A 
ATOM     21  C   UNL     1      41.765  -4.597 -12.486  0.00  0.00    +0.000 A 
ATOM     22  C   UNL     1      43.773  -2.695 -12.739  0.00  0.00    +0.000 A 
ATOM     23  C   UNL     1      43.966  -3.969 -13.274  0.00  0.00    +0.000 A 
ENDROOT
BRANCH  10  24
ATOM     24  O   UNL     1      43.315   3.841  -9.510  0.00  0.00    +0.000 OA
ATOM     25  H   UNL     1      43.391   2.867  -9.457  0.00  0.00    +0.000 HD
ENDBRANCH  10  24
BRANCH  10  26
ATOM     26  C   UNL     1      41.714   4.907 -10.986  0.00  0.00    +0.000 C 
ATOM     27  C   UNL     1      42.980   5.085 -11.820  0.00  0.00    +0.000 C 
ENDBRANCH  10  26
BRANCH  13  28
ATOM     28  C   UNL     1      39.197  -3.865 -11.052  0.00  0.00    +0.000 C 
ATOM     29  C   UNL     1      39.246  -4.564  -9.702  0.00  0.00    +0.000 C 
ENDBRANCH  13  28
BRANCH  20  30
ATOM     30  O   UNL     1      43.139  -6.192 -13.648  0.00  0.00    +0.000 OA
BRANCH  30  38
ATOM     31  O   UNL     1      42.518  -7.448 -11.803  0.00  0.00    +0.000 OA
ATOM     32  N   UNL     1      44.609  -7.720 -12.728  0.00  0.00    +0.000 N 
ATOM     33  C   UNL     1      47.443  -8.202 -12.182  0.00  0.00    +0.000 C 
ATOM     34  C   UNL     1      46.947  -7.097 -13.148  0.00  0.00    +0.000 C 
ATOM     35  C   UNL     1      46.324  -8.482 -11.147  0.00  0.00    +0.000 C 
ATOM     36  C   UNL     1      45.586  -7.420 -13.760  0.00  0.00    +0.000 C 
ATOM     37  C   UNL     1      44.980  -8.775 -11.805  0.00  0.00    +0.000 C 
ATOM     38  C   UNL     1      43.348  -7.146 -12.656  0.00  0.00    +0.000 C 
BRANCH  33  39
ATOM     39  N   UNL     1      48.734  -7.832 -11.520  0.00  0.00    +0.000 NA
ATOM     40  C   UNL     1      49.526  -6.888 -12.337  0.00  0.00    +0.000 C 
ATOM     41  C   UNL     1      48.528  -7.274 -10.167  0.00  0.00    +0.000 C 
ATOM     42  C   UNL     1      50.864  -6.521 -11.692  0.00  0.00    +0.000 C 
ATOM     43  C   UNL     1      49.841  -6.916  -9.466  0.00  0.00    +0.000 C 
ATOM     44  C   UNL     1      50.671  -5.953 -10.296  0.00  0.00    +0.000 C 
ENDBRANCH  33  39
ENDBRANCH  30  38
ENDBRANCH  20  30
TORSDOF 6
ENDMDL
MODEL 6
REMARK VINA RESULT:      -6.0      4.535      8.186
REMARK  Name = 
REMARK  8 active torsions:
REMARK  status: ('A' for Active; 'I' for Inactive)
REMARK    1  A    between atoms: O_1  and  C_21
REMARK    2  A    between atoms: O_1  and  C_38
REMARK    3  A    between atoms: O_4  and  C_26
REMARK    4  A    between atoms: N_7  and  C_11
REMARK    5  A    between atoms: C_26  and  C_33
REMARK    6  A    between atoms: C_29  and  C_37
REMARK    7  A    between atoms: C_33  and  C_42
REMARK    8  A    between atoms: C_37  and  C_43
REMARK                            x       y       z     vdW  Elec       q    Type
REMARK                         _______ _______ _______ _____ _____    ______ ____
ROOT
ATOM      1  O   UNL     1      19.758   2.891   7.004  0.00  0.00    +0.000 OA
ATOM      2  O   UNL     1      22.006   3.960   3.605  0.00  0.00    +0.000 OA
ATOM      3  O   UNL     1      19.758   3.167   9.234  0.00  0.00    +0.000 OA
ATOM      4  N   UNL     1      22.729   5.902   4.591  0.00  0.00    +0.000 N 
ATOM      5  N   UNL     1      23.836   8.967   6.090  0.00  0.00    +0.000 NA
ATOM      6  C   UNL     1      22.696   6.802   5.637  0.00  0.00    +0.000 A 
ATOM      7  C   UNL     1      24.180   7.638   4.086  0.00  0.00    +0.000 A 
ATOM      8  C   UNL     1      23.653   6.342   3.542  0.00  0.00    +0.000 C 
ATOM      9  C   UNL     1      21.093   5.394   6.758  0.00  0.00    +0.000 A 
ATOM     10  C   UNL     1      20.173   5.163   7.930  0.00  0.00    +0.000 C 
ATOM     11  C   UNL     1      23.606   7.898   5.324  0.00  0.00    +0.000 A 
ATOM     12  C   UNL     1      21.121   4.511   5.740  0.00  0.00    +0.000 A 
ATOM     13  C   UNL     1      25.089   8.543   3.557  0.00  0.00    +0.000 A 
ATOM     14  C   UNL     1      21.917   6.596   6.704  0.00  0.00    +0.000 A 
ATOM     15  C   UNL     1      21.989   4.750   4.543  0.00  0.00    +0.000 A 
ATOM     16  C   UNL     1      25.360   9.710   4.327  0.00  0.00    +0.000 A 
ATOM     17  C   UNL     1      20.297   3.272   5.721  0.00  0.00    +0.000 C 
ATOM     18  C   UNL     1      24.702   9.863   5.591  0.00  0.00    +0.000 A 
ATOM     19  C   UNL     1      19.903   3.651   8.110  0.00  0.00    +0.000 C 
ATOM     20  C   UNL     1      26.457  11.853   4.705  0.00  0.00    +0.000 A 
ATOM     21  C   UNL     1      26.244  10.729   3.910  0.00  0.00    +0.000 A 
ATOM     22  C   UNL     1      24.962  10.990   6.360  0.00  0.00    +0.000 A 
ATOM     23  C   UNL     1      25.839  11.989   5.936  0.00  0.00    +0.000 A 
ENDROOT
BRANCH  10  24
ATOM     24  O   UNL     1      20.809   5.653   9.119  0.00  0.00    +0.000 OA
ATOM     25  H   UNL     1      21.091   4.863   9.623  0.00  0.00    +0.000 HD
ENDBRANCH  10  24
BRANCH  10  26
ATOM     26  C   UNL     1      18.840   5.915   7.728  0.00  0.00    +0.000 C 
ATOM     27  C   UNL     1      18.552   6.985   8.778  0.00  0.00    +0.000 C 
ENDBRANCH  10  26
BRANCH  13  28
ATOM     28  C   UNL     1      25.711   8.279   2.207  0.00  0.00    +0.000 C 
ATOM     29  C   UNL     1      26.966   7.425   2.310  0.00  0.00    +0.000 C 
ENDBRANCH  13  28
BRANCH  20  30
ATOM     30  O   UNL     1      27.370  12.821   4.284  0.00  0.00    +0.000 OA
BRANCH  30  38
ATOM     31  O   UNL     1      29.137  11.488   4.966  0.00  0.00    +0.000 OA
ATOM     32  N   UNL     1      29.445  13.038   3.290  0.00  0.00    +0.000 N 
ATOM     33  C   UNL     1      31.284  14.989   2.119  0.00  0.00    +0.000 C 
ATOM     34  C   UNL     1      29.792  15.299   2.397  0.00  0.00    +0.000 C 
ATOM     35  C   UNL     1      31.743  13.880   3.100  0.00  0.00    +0.000 C 
ATOM     36  C   UNL     1      28.920  14.046   2.385  0.00  0.00    +0.000 C 
ATOM     37  C   UNL     1      30.828  12.660   3.070  0.00  0.00    +0.000 C 
ATOM     38  C   UNL     1      28.687  12.371   4.241  0.00  0.00    +0.000 C 
BRANCH  33  39
ATOM     39  N   UNL     1      32.141  16.212   2.223  0.00  0.00    +0.000 NA
ATOM     40  C   UNL     1      33.394  15.951   2.964  0.00  0.00    +0.000 C 
ATOM     41  C   UNL     1      32.452  16.791   0.899  0.00  0.00    +0.000 C 
ATOM     42  C   UNL     1      34.270  17.198   3.108  0.00  0.00    +0.000 C 
ATOM     43  C   UNL     1      33.306  18.058   0.990  0.00  0.00    +0.000 C 
ATOM     44  C   UNL     1      34.594  17.809   1.756  0.00  0.00    +0.000 C 
ENDBRANCH  33  39
ENDBRANCH  30  38
ENDBRANCH  20  30
TORSDOF 6
ENDMDL
MODEL 7
REMARK VINA RESULT:      -6.0     11.484     17.319
REMARK  Name = 
REMARK  8 active torsions:
REMARK  status: ('A' for Active; 'I' for Inactive)
REMARK    1  A    between atoms: O_1  and  C_21
REMARK    2  A    between atoms: O_1  and  C_38
REMARK    3  A    between atoms: O_4  and  C_26
REMARK    4  A    between atoms: N_7  and  C_11
REMARK    5  A    between atoms: C_26  and  C_33
REMARK    6  A    between atoms: C_29  and  C_37
REMARK    7  A    between atoms: C_33  and  C_42
REMARK    8  A    between atoms: C_37  and  C_43
REMARK                            x       y       z     vdW  Elec       q    Type
REMARK                         _______ _______ _______ _____ _____    ______ ____
ROOT
ATOM      1  O   UNL     1      26.392   7.556  -6.482  0.00  0.00    +0.000 OA
ATOM      2  O   UNL     1      25.415   3.458  -6.407  0.00  0.00    +0.000 OA
ATOM      3  O   UNL     1      27.634   9.058  -5.363  0.00  0.00    +0.000 OA
ATOM      4  N   UNL     1      27.433   2.909  -5.461  0.00  0.00    +0.000 N 
ATOM      5  N   UNL     1      30.598   2.016  -4.030  0.00  0.00    +0.000 NA
ATOM      6  C   UNL     1      28.696   3.266  -5.036  0.00  0.00    +0.000 A 
ATOM      7  C   UNL     1      28.474   1.007  -4.642  0.00  0.00    +0.000 A 
ATOM      8  C   UNL     1      27.187   1.479  -5.253  0.00  0.00    +0.000 C 
ATOM      9  C   UNL     1      28.244   5.539  -5.699  0.00  0.00    +0.000 A 
ATOM     10  C   UNL     1      28.727   6.958  -5.861  0.00  0.00    +0.000 C 
ATOM     11  C   UNL     1      29.358   2.073  -4.521  0.00  0.00    +0.000 A 
ATOM     12  C   UNL     1      27.009   5.196  -6.116  0.00  0.00    +0.000 A 
ATOM     13  C   UNL     1      28.872  -0.254  -4.221  0.00  0.00    +0.000 A 
ATOM     14  C   UNL     1      29.130   4.527  -5.134  0.00  0.00    +0.000 A 
ATOM     15  C   UNL     1      26.531   3.781  -6.012  0.00  0.00    +0.000 A 
ATOM     16  C   UNL     1      30.194  -0.374  -3.702  0.00  0.00    +0.000 A 
ATOM     17  C   UNL     1      26.058   6.172  -6.716  0.00  0.00    +0.000 C 
ATOM     18  C   UNL     1      31.008   0.803  -3.629  0.00  0.00    +0.000 A 
ATOM     19  C   UNL     1      27.529   7.935  -5.860  0.00  0.00    +0.000 C 
ATOM     20  C   UNL     1      32.050  -1.648  -2.769  0.00  0.00    +0.000 A 
ATOM     21  C   UNL     1      30.745  -1.595  -3.255  0.00  0.00    +0.000 A 
ATOM     22  C   UNL     1      32.296   0.706  -3.116  0.00  0.00    +0.000 A 
ATOM     23  C   UNL     1      32.828  -0.506  -2.676  0.00  0.00    +0.000 A 
ENDROOT
BRANCH  10  24
ATOM     24  O   UNL     1      29.577   7.285  -4.753  0.00  0.00    +0.000 OA
ATOM     25  H   UNL     1      29.025   7.197  -3.950  0.00  0.00    +0.000 HD
ENDBRANCH  10  24
BRANCH  10  26
ATOM     26  C   UNL     1      29.529   7.109  -7.171  0.00  0.00    +0.000 C 
ATOM     27  C   UNL     1      31.043   7.024  -6.999  0.00  0.00    +0.000 C 
ENDBRANCH  10  26
BRANCH  13  28
ATOM     28  C   UNL     1      27.928  -1.424  -4.359  0.00  0.00    +0.000 C 
ATOM     29  C   UNL     1      27.000  -1.556  -3.161  0.00  0.00    +0.000 C 
ENDBRANCH  13  28
BRANCH  20  30
ATOM     30  O   UNL     1      32.550  -2.861  -2.295  0.00  0.00    +0.000 OA
BRANCH  30  38
ATOM     31  O   UNL     1      31.704  -4.615  -3.549  0.00  0.00    +0.000 OA
ATOM     32  N   UNL     1      30.852  -4.183  -1.453  0.00  0.00    +0.000 N 
ATOM     33  C   UNL     1      28.441  -4.118   0.203  0.00  0.00    +0.000 C 
ATOM     34  C   UNL     1      29.473  -2.963   0.172  0.00  0.00    +0.000 C 
ATOM     35  C   UNL     1      28.518  -4.876  -1.146  0.00  0.00    +0.000 C 
ATOM     36  C   UNL     1      30.874  -3.438  -0.206  0.00  0.00    +0.000 C 
ATOM     37  C   UNL     1      29.939  -5.309  -1.492  0.00  0.00    +0.000 C 
ATOM     38  C   UNL     1      31.705  -3.944  -2.520  0.00  0.00    +0.000 C 
BRANCH  33  39
ATOM     39  N   UNL     1      27.055  -3.625   0.486  0.00  0.00    +0.000 NA
ATOM     40  C   UNL     1      26.999  -2.151   0.582  0.00  0.00    +0.000 C 
ATOM     41  C   UNL     1      26.078  -4.101  -0.515  0.00  0.00    +0.000 C 
ATOM     42  C   UNL     1      25.596  -1.630   0.902  0.00  0.00    +0.000 C 
ATOM     43  C   UNL     1      24.651  -3.628  -0.224  0.00  0.00    +0.000 C 
ATOM     44  C   UNL     1      24.577  -2.116  -0.115  0.00  0.00    +0.000 C 
ENDBRANCH  33  39
ENDBRANCH  30  38
ENDBRANCH  20  30
TORSDOF 6
ENDMDL
MODEL 8
REMARK VINA RESULT:      -5.9      4.762      9.014
REMARK  Name = 
REMARK  8 active torsions:
REMARK  status: ('A' for Active; 'I' for Inactive)
REMARK    1  A    between atoms: O_1  and  C_21
REMARK    2  A    between atoms: O_1  and  C_38
REMARK    3  A    between atoms: O_4  and  C_26
REMARK    4  A    between atoms: N_7  and  C_11
REMARK    5  A    between atoms: C_26  and  C_33
REMARK    6  A    between atoms: C_29  and  C_37
REMARK    7  A    between atoms: C_33  and  C_42
REMARK    8  A    between atoms: C_37  and  C_43
REMARK                            x       y       z     vdW  Elec       q    Type
REMARK                         _______ _______ _______ _____ _____    ______ ____
ROOT
ATOM      1  O   UNL     1      18.174   4.015   6.674  0.00  0.00    +0.000 OA
ATOM      2  O   UNL     1      20.568   7.151   8.152  0.00  0.00    +0.000 OA
ATOM      3  O   UNL     1      17.601   3.046   4.729  0.00  0.00    +0.000 OA
ATOM      4  N   UNL     1      22.045   6.957   6.406  0.00  0.00    +0.000 N 
ATOM      5  N   UNL     1      24.397   6.645   3.715  0.00  0.00    +0.000 NA
ATOM      6  C   UNL     1      22.488   6.301   5.275  0.00  0.00    +0.000 A 
ATOM      7  C   UNL     1      23.931   8.062   5.633  0.00  0.00    +0.000 A 
ATOM      8  C   UNL     1      22.900   8.105   6.724  0.00  0.00    +0.000 C 
ATOM      9  C   UNL     1      20.667   4.740   5.504  0.00  0.00    +0.000 A 
ATOM     10  C   UNL     1      19.960   3.499   5.020  0.00  0.00    +0.000 C 
ATOM     11  C   UNL     1      23.676   6.991   4.785  0.00  0.00    +0.000 A 
ATOM     12  C   UNL     1      20.229   5.375   6.609  0.00  0.00    +0.000 A 
ATOM     13  C   UNL     1      25.023   8.880   5.382  0.00  0.00    +0.000 A 
ATOM     14  C   UNL     1      21.852   5.224   4.805  0.00  0.00    +0.000 A 
ATOM     15  C   UNL     1      20.950   6.578   7.136  0.00  0.00    +0.000 A 
ATOM     16  C   UNL     1      25.835   8.546   4.259  0.00  0.00    +0.000 A 
ATOM     17  C   UNL     1      19.038   4.929   7.381  0.00  0.00    +0.000 C 
ATOM     18  C   UNL     1      25.465   7.415   3.461  0.00  0.00    +0.000 A 
ATOM     19  C   UNL     1      18.476   3.524   5.453  0.00  0.00    +0.000 C 
ATOM     20  C   UNL     1      27.748   8.887   2.789  0.00  0.00    +0.000 A 
ATOM     21  C   UNL     1      26.989   9.273   3.892  0.00  0.00    +0.000 A 
ATOM     22  C   UNL     1      26.240   7.081   2.358  0.00  0.00    +0.000 A 
ATOM     23  C   UNL     1      27.377   7.808   2.004  0.00  0.00    +0.000 A 
ENDROOT
BRANCH  10  24
ATOM     24  O   UNL     1      20.011   3.469   3.587  0.00  0.00    +0.000 OA
ATOM     25  H   UNL     1      19.961   4.401   3.292  0.00  0.00    +0.000 HD
ENDBRANCH  10  24
BRANCH  10  26
ATOM     26  C   UNL     1      20.649   2.233   5.573  0.00  0.00    +0.000 C 
ATOM     27  C   UNL     1      20.864   1.129   4.542  0.00  0.00    +0.000 C 
ENDBRANCH  10  26
BRANCH  13  28
ATOM     28  C   UNL     1      25.319  10.039   6.302  0.00  0.00    +0.000 C 
ATOM     29  C   UNL     1      24.621  11.317   5.860  0.00  0.00    +0.000 C 
ENDBRANCH  13  28
BRANCH  20  30
ATOM     30  O   UNL     1      28.858   9.651   2.427  0.00  0.00    +0.000 OA
BRANCH  30  38
ATOM     31  O   UNL     1      27.943  10.592   0.517  0.00  0.00    +0.000 OA
ATOM     32  N   UNL     1      29.035  11.923   2.046  0.00  0.00    +0.000 N 
ATOM     33  C   UNL     1      30.808  14.223   2.408  0.00  0.00    +0.000 C 
ATOM     34  C   UNL     1      31.016  12.875   3.143  0.00  0.00    +0.000 C 
ATOM     35  C   UNL     1      30.044  13.946   1.089  0.00  0.00    +0.000 C 
ATOM     36  C   UNL     1      29.715  12.096   3.319  0.00  0.00    +0.000 C 
ATOM     37  C   UNL     1      28.766  13.145   1.312  0.00  0.00    +0.000 C 
ATOM     38  C   UNL     1      28.557  10.710   1.574  0.00  0.00    +0.000 C 
BRANCH  33  39
ATOM     39  N   UNL     1      32.102  14.935   2.163  0.00  0.00    +0.000 NA
ATOM     40  C   UNL     1      32.017  15.861   1.014  0.00  0.00    +0.000 C 
ATOM     41  C   UNL     1      32.577  15.660   3.360  0.00  0.00    +0.000 C 
ATOM     42  C   UNL     1      33.340  16.576   0.727  0.00  0.00    +0.000 C 
ATOM     43  C   UNL     1      33.914  16.371   3.132  0.00  0.00    +0.000 C 
ATOM     44  C   UNL     1      33.845  17.322   1.950  0.00  0.00    +0.000 C 
ENDBRANCH  33  39
ENDBRANCH  30  38
ENDBRANCH  20  30
TORSDOF 6
ENDMDL
MODEL 9
REMARK VINA RESULT:      -5.8      5.429      9.404
REMARK  Name = 
REMARK  8 active torsions:
REMARK  status: ('A' for Active; 'I' for Inactive)
REMARK    1  A    between atoms: O_1  and  C_21
REMARK    2  A    between atoms: O_1  and  C_38
REMARK    3  A    between atoms: O_4  and  C_26
REMARK    4  A    between atoms: N_7  and  C_11
REMARK    5  A    between atoms: C_26  and  C_33
REMARK    6  A    between atoms: C_29  and  C_37
REMARK    7  A    between atoms: C_33  and  C_42
REMARK    8  A    between atoms: C_37  and  C_43
REMARK                            x       y       z     vdW  Elec       q    Type
REMARK                         _______ _______ _______ _____ _____    ______ ____
ROOT
ATOM      1  O   UNL     1      19.170   0.715   2.950  0.00  0.00    +0.000 OA
ATOM      2  O   UNL     1      21.037   3.233   0.135  0.00  0.00    +0.000 OA
ATOM      3  O   UNL     1      19.593  -0.301   4.909  0.00  0.00    +0.000 OA
ATOM      4  N   UNL     1      22.357   4.196   1.747  0.00  0.00    +0.000 N 
ATOM      5  N   UNL     1      24.396   5.754   4.253  0.00  0.00    +0.000 NA
ATOM      6  C   UNL     1      22.709   4.357   3.071  0.00  0.00    +0.000 A 
ATOM      7  C   UNL     1      24.084   5.739   1.843  0.00  0.00    +0.000 A 
ATOM      8  C   UNL     1      23.179   5.037   0.872  0.00  0.00    +0.000 C 
ATOM      9  C   UNL     1      21.014   2.757   3.685  0.00  0.00    +0.000 A 
ATOM     10  C   UNL     1      20.265   2.019   4.765  0.00  0.00    +0.000 C 
ATOM     11  C   UNL     1      23.795   5.328   3.139  0.00  0.00    +0.000 A 
ATOM     12  C   UNL     1      20.665   2.596   2.393  0.00  0.00    +0.000 A 
ATOM     13  C   UNL     1      25.089   6.674   1.637  0.00  0.00    +0.000 A 
ATOM     14  C   UNL     1      22.085   3.682   4.041  0.00  0.00    +0.000 A 
ATOM     15  C   UNL     1      21.362   3.361   1.311  0.00  0.00    +0.000 A 
ATOM     16  C   UNL     1      25.753   7.173   2.795  0.00  0.00    +0.000 A 
ATOM     17  C   UNL     1      19.573   1.683   1.959  0.00  0.00    +0.000 C 
ATOM     18  C   UNL     1      25.362   6.668   4.077  0.00  0.00    +0.000 A 
ATOM     19  C   UNL     1      19.670   0.707   4.205  0.00  0.00    +0.000 C 
ATOM     20  C   UNL     1      27.382   8.598   3.914  0.00  0.00    +0.000 A 
ATOM     21  C   UNL     1      26.779   8.142   2.744  0.00  0.00    +0.000 A 
ATOM     22  C   UNL     1      26.006   7.137   5.215  0.00  0.00    +0.000 A 
ATOM     23  C   UNL     1      27.020   8.093   5.152  0.00  0.00    +0.000 A 
ENDROOT
BRANCH  10  24
ATOM     24  O   UNL     1      21.182   1.686   5.817  0.00  0.00    +0.000 OA
ATOM     25  H   UNL     1      21.289   0.714   5.787  0.00  0.00    +0.000 HD
ENDBRANCH  10  24
BRANCH  10  26
ATOM     26  C   UNL     1      19.139   2.903   5.344  0.00  0.00    +0.000 C 
ATOM     27  C   UNL     1      19.338   3.308   6.801  0.00  0.00    +0.000 C 
ENDBRANCH  10  26
BRANCH  13  28
ATOM     28  C   UNL     1      25.404   7.139   0.236  0.00  0.00    +0.000 C 
ATOM     29  C   UNL     1      24.480   8.258  -0.219  0.00  0.00    +0.000 C 
ENDBRANCH  13  28
BRANCH  20  30
ATOM     30  O   UNL     1      28.422   9.524   3.827  0.00  0.00    +0.000 OA
BRANCH  30  38
ATOM     31  O   UNL     1      28.976   9.118   1.615  0.00  0.00    +0.000 OA
ATOM     32  N   UNL     1      28.728  11.283   2.361  0.00  0.00    +0.000 N 
ATOM     33  C   UNL     1      29.731  14.026   2.176  0.00  0.00    +0.000 C 
ATOM     34  C   UNL     1      29.444  13.323   3.526  0.00  0.00    +0.000 C 
ATOM     35  C   UNL     1      30.047  12.939   1.118  0.00  0.00    +0.000 C 
ATOM     36  C   UNL     1      28.384  12.231   3.406  0.00  0.00    +0.000 C 
ATOM     37  C   UNL     1      28.973  11.858   1.052  0.00  0.00    +0.000 C 
ATOM     38  C   UNL     1      28.727   9.906   2.524  0.00  0.00    +0.000 C 
BRANCH  33  39
ATOM     39  N   UNL     1      30.835  15.031   2.289  0.00  0.00    +0.000 NA
ATOM     40  C   UNL     1      31.099  15.409   3.693  0.00  0.00    +0.000 C 
ATOM     41  C   UNL     1      32.083  14.563   1.651  0.00  0.00    +0.000 C 
ATOM     42  C   UNL     1      32.205  16.459   3.828  0.00  0.00    +0.000 C 
ATOM     43  C   UNL     1      33.214  15.591   1.734  0.00  0.00    +0.000 C 
ATOM     44  C   UNL     1      33.494  15.997   3.171  0.00  0.00    +0.000 C 
ENDBRANCH  33  39
ENDBRANCH  30  38
ENDBRANCH  20  30
TORSDOF 6
ENDMDL
