MODEL 1
REMARK VINA RESULT:      -5.9      0.000      0.000
REMARK  Name = 
REMARK  4 active torsions:
REMARK  status: ('A' for Active; 'I' for Inactive)
REMARK    1  A    between atoms: C_1  and  C_6
REMARK    2  A    between atoms: C_1  and  C_7
REMARK    3  A    between atoms: C_9  and  C_14
REMARK    4  A    between atoms: C_11  and  C_15
REMARK                            x       y       z     vdW  Elec       q    Type
REMARK                         _______ _______ _______ _____ _____    ______ ____
ROOT
ATOM      1  C   UNL     1      42.755  -3.830  13.490  0.00  0.00    +0.000 C 
ATOM      2  C   UNL     1      41.287  -3.414  13.482  0.00  0.00    +0.000 C 
ATOM      3  C   UNL     1      42.209  -2.932  12.392  0.00  0.00    +0.000 C 
ATOM      4  C   UNL     1      40.768  -2.533  14.526  0.00  0.00    +0.000 C 
ATOM      5  C   UNL     1      42.536  -1.480  12.239  0.00  0.00    +0.000 C 
ATOM      6  C   UNL     1      43.718  -3.273  14.512  0.00  0.00    +0.000 C 
ATOM      7  C   UNL     1      43.064  -5.259  13.113  0.00  0.00    +0.000 C 
ATOM      8  C   UNL     1      40.502  -1.213  14.515  0.00  0.00    +0.000 C 
ATOM      9  C   UNL     1      40.449  -3.141  15.878  0.00  0.00    +0.000 C 
ATOM     10  C   UNL     1      41.255  -0.661  12.079  0.00  0.00    +0.000 C 
ATOM     11  C   UNL     1      40.656  -0.185  13.418  0.00  0.00    +0.000 C 
ATOM     12  C   UNL     1      40.015  -0.755  15.866  0.00  0.00    +0.000 C 
ATOM     13  C   UNL     1      40.400  -1.910  16.783  0.00  0.00    +0.000 C 
ATOM     14  C   UNL     1      39.127  -3.905  15.871  0.00  0.00    +0.000 C 
ATOM     15  C   UNL     1      39.317   0.509  13.130  0.00  0.00    +0.000 C 
ENDROOT
TORSDOF 0
ENDMDL
MODEL 2
REMARK VINA RESULT:      -5.9      1.413      3.940
REMARK  Name = 
REMARK  4 active torsions:
REMARK  status: ('A' for Active; 'I' for Inactive)
REMARK    1  A    between atoms: C_1  and  C_6
REMARK    2  A    between atoms: C_1  and  C_7
REMARK    3  A    between atoms: C_9  and  C_14
REMARK    4  A    between atoms: C_11  and  C_15
REMARK                            x       y       z     vdW  Elec       q    Type
REMARK                         _______ _______ _______ _____ _____    ______ ____
ROOT
ATOM      1  C   UNL     1      41.935  -1.045  16.465  0.00  0.00    +0.000 C 
ATOM      2  C   UNL     1      42.777  -1.078  15.193  0.00  0.00    +0.000 C 
ATOM      3  C   UNL     1      41.696  -0.039  15.351  0.00  0.00    +0.000 C 
ATOM      4  C   UNL     1      42.664  -2.203  14.267  0.00  0.00    +0.000 C 
ATOM      5  C   UNL     1      40.496  -0.028  14.458  0.00  0.00    +0.000 C 
ATOM      6  C   UNL     1      40.908  -2.116  16.750  0.00  0.00    +0.000 C 
ATOM      7  C   UNL     1      42.605  -0.531  17.717  0.00  0.00    +0.000 C 
ATOM      8  C   UNL     1      42.007  -2.320  13.097  0.00  0.00    +0.000 C 
ATOM      9  C   UNL     1      43.385  -3.490  14.618  0.00  0.00    +0.000 C 
ATOM     10  C   UNL     1      40.925   0.051  12.993  0.00  0.00    +0.000 C 
ATOM     11  C   UNL     1      41.153  -1.327  12.342  0.00  0.00    +0.000 C 
ATOM     12  C   UNL     1      42.164  -3.709  12.534  0.00  0.00    +0.000 C 
ATOM     13  C   UNL     1      42.679  -4.509  13.724  0.00  0.00    +0.000 C 
ATOM     14  C   UNL     1      44.882  -3.410  14.331  0.00  0.00    +0.000 C 
ATOM     15  C   UNL     1      41.700  -1.109  10.923  0.00  0.00    +0.000 C 
ENDROOT
TORSDOF 0
ENDMDL
MODEL 3
REMARK VINA RESULT:      -5.4      1.261      3.919
REMARK  Name = 
REMARK  4 active torsions:
REMARK  status: ('A' for Active; 'I' for Inactive)
REMARK    1  A    between atoms: C_1  and  C_6
REMARK    2  A    between atoms: C_1  and  C_7
REMARK    3  A    between atoms: C_9  and  C_14
REMARK    4  A    between atoms: C_11  and  C_15
REMARK                            x       y       z     vdW  Elec       q    Type
REMARK                         _______ _______ _______ _____ _____    ______ ____
ROOT
ATOM      1  C   UNL     1      39.853  -0.737  13.482  0.00  0.00    +0.000 C 
ATOM      2  C   UNL     1      41.257  -0.992  14.021  0.00  0.00    +0.000 C 
ATOM      3  C   UNL     1      40.931  -1.326  12.588  0.00  0.00    +0.000 C 
ATOM      4  C   UNL     1      41.477  -2.015  15.041  0.00  0.00    +0.000 C 
ATOM      5  C   UNL     1      40.951  -2.740  12.097  0.00  0.00    +0.000 C 
ATOM      6  C   UNL     1      38.683  -1.588  13.917  0.00  0.00    +0.000 C 
ATOM      7  C   UNL     1      39.467   0.702  13.231  0.00  0.00    +0.000 C 
ATOM      8  C   UNL     1      41.954  -3.271  14.943  0.00  0.00    +0.000 C 
ATOM      9  C   UNL     1      41.133  -1.675  16.478  0.00  0.00    +0.000 C 
ATOM     10  C   UNL     1      42.315  -3.374  12.362  0.00  0.00    +0.000 C 
ATOM     11  C   UNL     1      42.422  -4.057  13.740  0.00  0.00    +0.000 C 
ATOM     12  C   UNL     1      41.951  -3.950  16.289  0.00  0.00    +0.000 C 
ATOM     13  C   UNL     1      41.043  -3.057  17.125  0.00  0.00    +0.000 C 
ATOM     14  C   UNL     1      42.197  -0.798  17.134  0.00  0.00    +0.000 C 
ATOM     15  C   UNL     1      43.867  -4.538  13.933  0.00  0.00    +0.000 C 
ENDROOT
TORSDOF 0
ENDMDL
MODEL 4
REMARK VINA RESULT:      -5.1      2.518      4.789
REMARK  Name = 
REMARK  4 active torsions:
REMARK  status: ('A' for Active; 'I' for Inactive)
REMARK    1  A    between atoms: C_1  and  C_6
REMARK    2  A    between atoms: C_1  and  C_7
REMARK    3  A    between atoms: C_9  and  C_14
REMARK    4  A    between atoms: C_11  and  C_15
REMARK                            x       y       z     vdW  Elec       q    Type
REMARK                         _______ _______ _______ _____ _____    ______ ____
ROOT
ATOM      1  C   UNL     1      40.424  -0.784  14.373  0.00  0.00    +0.000 C 
ATOM      2  C   UNL     1      41.118   0.317  15.170  0.00  0.00    +0.000 C 
ATOM      3  C   UNL     1      41.804  -1.010  14.968  0.00  0.00    +0.000 C 
ATOM      4  C   UNL     1      40.579   0.739  16.461  0.00  0.00    +0.000 C 
ATOM      5  C   UNL     1      42.096  -1.916  16.122  0.00  0.00    +0.000 C 
ATOM      6  C   UNL     1      39.230  -1.520  14.935  0.00  0.00    +0.000 C 
ATOM      7  C   UNL     1      40.346  -0.601  12.876  0.00  0.00    +0.000 C 
ATOM      8  C   UNL     1      40.961   0.441  17.717  0.00  0.00    +0.000 C 
ATOM      9  C   UNL     1      39.386   1.675  16.463  0.00  0.00    +0.000 C 
ATOM     10  C   UNL     1      42.928  -1.184  17.174  0.00  0.00    +0.000 C 
ATOM     11  C   UNL     1      42.079  -0.440  18.225  0.00  0.00    +0.000 C 
ATOM     12  C   UNL     1      40.052   1.100  18.722  0.00  0.00    +0.000 C 
ATOM     13  C   UNL     1      38.847   1.509  17.884  0.00  0.00    +0.000 C 
ATOM     14  C   UNL     1      39.783   3.118  16.161  0.00  0.00    +0.000 C 
ATOM     15  C   UNL     1      43.024   0.352  19.139  0.00  0.00    +0.000 C 
ENDROOT
TORSDOF 0
ENDMDL
MODEL 5
REMARK VINA RESULT:      -5.0      1.512      3.833
REMARK  Name = 
REMARK  4 active torsions:
REMARK  status: ('A' for Active; 'I' for Inactive)
REMARK    1  A    between atoms: C_1  and  C_6
REMARK    2  A    between atoms: C_1  and  C_7
REMARK    3  A    between atoms: C_9  and  C_14
REMARK    4  A    between atoms: C_11  and  C_15
REMARK                            x       y       z     vdW  Elec       q    Type
REMARK                         _______ _______ _______ _____ _____    ______ ____
ROOT
ATOM      1  C   UNL     1      42.324  -1.535  16.509  0.00  0.00    +0.000 C 
ATOM      2  C   UNL     1      41.554  -2.650  15.808  0.00  0.00    +0.000 C 
ATOM      3  C   UNL     1      43.031  -2.805  16.066  0.00  0.00    +0.000 C 
ATOM      4  C   UNL     1      41.004  -2.434  14.471  0.00  0.00    +0.000 C 
ATOM      5  C   UNL     1      44.012  -2.885  14.938  0.00  0.00    +0.000 C 
ATOM      6  C   UNL     1      42.613  -0.227  15.810  0.00  0.00    +0.000 C 
ATOM      7  C   UNL     1      42.087  -1.365  17.990  0.00  0.00    +0.000 C 
ATOM      8  C   UNL     1      41.448  -2.821  13.260  0.00  0.00    +0.000 C 
ATOM      9  C   UNL     1      39.712  -1.649  14.351  0.00  0.00    +0.000 C 
ATOM     10  C   UNL     1      43.642  -4.028  13.993  0.00  0.00    +0.000 C 
ATOM     11  C   UNL     1      42.677  -3.609  12.866  0.00  0.00    +0.000 C 
ATOM     12  C   UNL     1      40.540  -2.311  12.170  0.00  0.00    +0.000 C 
ATOM     13  C   UNL     1      39.716  -1.243  12.877  0.00  0.00    +0.000 C 
ATOM     14  C   UNL     1      38.490  -2.490  14.714  0.00  0.00    +0.000 C 
ATOM     15  C   UNL     1      42.286  -4.863  12.071  0.00  0.00    +0.000 C 
ENDROOT
TORSDOF 0
ENDMDL
MODEL 6
REMARK VINA RESULT:      -5.0      2.328      4.040
REMARK  Name = 
REMARK  4 active torsions:
REMARK  status: ('A' for Active; 'I' for Inactive)
REMARK    1  A    between atoms: C_1  and  C_6
REMARK    2  A    between atoms: C_1  and  C_7
REMARK    3  A    between atoms: C_9  and  C_14
REMARK    4  A    between atoms: C_11  and  C_15
REMARK                            x       y       z     vdW  Elec       q    Type
REMARK                         _______ _______ _______ _____ _____    ______ ____
ROOT
ATOM      1  C   UNL     1      41.762  -1.286  17.807  0.00  0.00    +0.000 C 
ATOM      2  C   UNL     1      40.417  -1.096  17.111  0.00  0.00    +0.000 C 
ATOM      3  C   UNL     1      41.531  -1.828  16.407  0.00  0.00    +0.000 C 
ATOM      4  C   UNL     1      39.977   0.241  16.717  0.00  0.00    +0.000 C 
ATOM      5  C   UNL     1      42.159  -1.277  15.166  0.00  0.00    +0.000 C 
ATOM      6  C   UNL     1      42.701  -0.122  18.021  0.00  0.00    +0.000 C 
ATOM      7  C   UNL     1      41.815  -2.293  18.931  0.00  0.00    +0.000 C 
ATOM      8  C   UNL     1      39.987   0.856  15.519  0.00  0.00    +0.000 C 
ATOM      9  C   UNL     1      39.398   1.145  17.788  0.00  0.00    +0.000 C 
ATOM     10  C   UNL     1      41.095  -1.030  14.097  0.00  0.00    +0.000 C 
ATOM     11  C   UNL     1      40.463   0.375  14.167  0.00  0.00    +0.000 C 
ATOM     12  C   UNL     1      39.459   2.263  15.637  0.00  0.00    +0.000 C 
ATOM     13  C   UNL     1      39.502   2.524  17.137  0.00  0.00    +0.000 C 
ATOM     14  C   UNL     1      37.958   0.778  18.137  0.00  0.00    +0.000 C 
ATOM     15  C   UNL     1      39.331   0.450  13.133  0.00  0.00    +0.000 C 
ENDROOT
TORSDOF 0
ENDMDL
MODEL 7
REMARK VINA RESULT:      -4.9     14.663     17.116
REMARK  Name = 
REMARK  4 active torsions:
REMARK  status: ('A' for Active; 'I' for Inactive)
REMARK    1  A    between atoms: C_1  and  C_6
REMARK    2  A    between atoms: C_1  and  C_7
REMARK    3  A    between atoms: C_9  and  C_14
REMARK    4  A    between atoms: C_11  and  C_15
REMARK                            x       y       z     vdW  Elec       q    Type
REMARK                         _______ _______ _______ _____ _____    ______ ____
ROOT
ATOM      1  C   UNL     1      34.866   8.698  23.523  0.00  0.00    +0.000 C 
ATOM      2  C   UNL     1      34.266  10.099  23.587  0.00  0.00    +0.000 C 
ATOM      3  C   UNL     1      33.362   8.900  23.457  0.00  0.00    +0.000 C 
ATOM      4  C   UNL     1      34.489  11.044  22.495  0.00  0.00    +0.000 C 
ATOM      5  C   UNL     1      32.527   8.688  22.234  0.00  0.00    +0.000 C 
ATOM      6  C   UNL     1      35.619   8.227  22.301  0.00  0.00    +0.000 C 
ATOM      7  C   UNL     1      35.425   8.132  24.807  0.00  0.00    +0.000 C 
ATOM      8  C   UNL     1      33.691  11.419  21.476  0.00  0.00    +0.000 C 
ATOM      9  C   UNL     1      35.822  11.763  22.435  0.00  0.00    +0.000 C 
ATOM     10  C   UNL     1      31.632   9.901  21.984  0.00  0.00    +0.000 C 
ATOM     11  C   UNL     1      32.291  10.985  21.108  0.00  0.00    +0.000 C 
ATOM     12  C   UNL     1      34.399  12.402  20.578  0.00  0.00    +0.000 C 
ATOM     13  C   UNL     1      35.859  12.257  20.989  0.00  0.00    +0.000 C 
ATOM     14  C   UNL     1      35.904  12.911  23.439  0.00  0.00    +0.000 C 
ATOM     15  C   UNL     1      31.347  12.195  21.041  0.00  0.00    +0.000 C 
ENDROOT
TORSDOF 0
ENDMDL
MODEL 8
REMARK VINA RESULT:      -4.6      2.463      5.258
REMARK  Name = 
REMARK  4 active torsions:
REMARK  status: ('A' for Active; 'I' for Inactive)
REMARK    1  A    between atoms: C_1  and  C_6
REMARK    2  A    between atoms: C_1  and  C_7
REMARK    3  A    between atoms: C_9  and  C_14
REMARK    4  A    between atoms: C_11  and  C_15
REMARK                            x       y       z     vdW  Elec       q    Type
REMARK                         _______ _______ _______ _____ _____    ______ ____
ROOT
ATOM      1  C   UNL     1      39.493   1.795  16.992  0.00  0.00    +0.000 C 
ATOM      2  C   UNL     1      40.930   1.374  16.696  0.00  0.00    +0.000 C 
ATOM      3  C   UNL     1      39.979   1.652  15.559  0.00  0.00    +0.000 C 
ATOM      4  C   UNL     1      41.384   0.027  17.034  0.00  0.00    +0.000 C 
ATOM      5  C   UNL     1      39.555   0.568  14.619  0.00  0.00    +0.000 C 
ATOM      6  C   UNL     1      38.491   0.811  17.551  0.00  0.00    +0.000 C 
ATOM      7  C   UNL     1      39.283   3.198  17.507  0.00  0.00    +0.000 C 
ATOM      8  C   UNL     1      41.559  -1.065  16.264  0.00  0.00    +0.000 C 
ATOM      9  C   UNL     1      41.739  -0.264  18.479  0.00  0.00    +0.000 C 
ATOM     10  C   UNL     1      40.777  -0.086  13.976  0.00  0.00    +0.000 C 
ATOM     11  C   UNL     1      41.338  -1.273  14.783  0.00  0.00    +0.000 C 
ATOM     12  C   UNL     1      42.010  -2.238  17.096  0.00  0.00    +0.000 C 
ATOM     13  C   UNL     1      41.701  -1.792  18.520  0.00  0.00    +0.000 C 
ATOM     14  C   UNL     1      43.110   0.289  18.859  0.00  0.00    +0.000 C 
ATOM     15  C   UNL     1      42.628  -1.756  14.104  0.00  0.00    +0.000 C 
ENDROOT
TORSDOF 0
ENDMDL
MODEL 9
REMARK VINA RESULT:      -4.1     12.063     14.188
REMARK  Name = 
REMARK  4 active torsions:
REMARK  status: ('A' for Active; 'I' for Inactive)
REMARK    1  A    between atoms: C_1  and  C_6
REMARK    2  A    between atoms: C_1  and  C_7
REMARK    3  A    between atoms: C_9  and  C_14
REMARK    4  A    between atoms: C_11  and  C_15
REMARK                            x       y       z     vdW  Elec       q    Type
REMARK                         _______ _______ _______ _____ _____    ______ ____
ROOT
ATOM      1  C   UNL     1      51.611  -4.158   4.912  0.00  0.00    +0.000 C 
ATOM      2  C   UNL     1      52.195  -2.752   4.812  0.00  0.00    +0.000 C 
ATOM      3  C   UNL     1      51.723  -3.277   6.145  0.00  0.00    +0.000 C 
ATOM      4  C   UNL     1      51.481  -1.711   4.076  0.00  0.00    +0.000 C 
ATOM      5  C   UNL     1      50.563  -2.656   6.856  0.00  0.00    +0.000 C 
ATOM      6  C   UNL     1      50.252  -4.482   4.336  0.00  0.00    +0.000 C 
ATOM      7  C   UNL     1      52.580  -5.311   4.805  0.00  0.00    +0.000 C 
ATOM      8  C   UNL     1      50.711  -0.694   4.508  0.00  0.00    +0.000 C 
ATOM      9  C   UNL     1      51.581  -1.714   2.563  0.00  0.00    +0.000 C 
ATOM     10  C   UNL     1      50.809  -1.163   7.072  0.00  0.00    +0.000 C 
ATOM     11  C   UNL     1      50.315  -0.282   5.907  0.00  0.00    +0.000 C 
ATOM     12  C   UNL     1      50.160   0.090   3.344  0.00  0.00    +0.000 C 
ATOM     13  C   UNL     1      50.393  -0.839   2.159  0.00  0.00    +0.000 C 
ATOM     14  C   UNL     1      52.909  -1.146   2.070  0.00  0.00    +0.000 C 
ATOM     15  C   UNL     1      50.734   1.169   6.186  0.00  0.00    +0.000 C 
ENDROOT
TORSDOF 0
ENDMDL
