MODEL 1
REMARK VINA RESULT:      -7.0      0.000      0.000
REMARK  Name = JAK3_Inhibitor.pdbqt.pdb
REMARK  1 active torsions:
REMARK  status: ('A' for Active; 'I' for Inactive)
REMARK    1  A    between atoms: C_7  and  C_20
REMARK                            x       y       z     vdW  Elec       q    Type
REMARK                         _______ _______ _______ _____ _____    ______ ____
ROOT
ATOM      1  O   UNL     1      50.246   5.562  12.089  0.00  0.00    +0.000 OA
ATOM      2  N   UNL     1      50.104   3.242  11.799  0.00  0.00    +0.000 N 
ATOM      3  C   UNL     1      50.349   3.086   9.523  0.00  0.00    +0.000 A 
ATOM      4  C   UNL     1      50.161   2.373  10.709  0.00  0.00    +0.000 A 
ATOM      5  C   UNL     1      50.411   4.485   9.911  0.00  0.00    +0.000 C 
ATOM      6  C   UNL     1      50.435   2.436   8.308  0.00  0.00    +0.000 A 
ATOM      7  C   UNL     1      50.333   1.035   8.277  0.00  0.00    +0.000 A 
ATOM      8  C   UNL     1      50.249   4.564  11.395  0.00  0.00    +0.000 C 
ATOM      9  C   UNL     1      50.055   1.000  10.731  0.00  0.00    +0.000 A 
ATOM     10  C   UNL     1      50.574   5.516   9.143  0.00  0.00    +0.000 C 
ATOM     11  C   UNL     1      50.144   0.346   9.499  0.00  0.00    +0.000 A 
ATOM     12  H   UNL     1      49.975   2.972  12.764  0.00  0.00    +0.000 HD
ATOM     13  N   UNL     1      50.788   7.949   8.850  0.00  0.00    +0.000 N 
ATOM     14  C   UNL     1      50.751   6.675   8.347  0.00  0.00    +0.000 C 
ATOM     15  C   UNL     1      50.912   6.754   6.983  0.00  0.00    +0.000 C 
ATOM     16  C   UNL     1      50.971   8.838   7.824  0.00  0.00    +0.000 C 
ATOM     17  C   UNL     1      51.051   8.122   6.652  0.00  0.00    +0.000 C 
ATOM     18  H   UNL     1      50.696   8.193   9.827  0.00  0.00    +0.000 HD
ENDROOT
BRANCH   7  20
ATOM     19  N   UNL     1      50.594  -1.823   5.827  0.00  0.00    +0.000 NA
ATOM     20  C   UNL     1      50.420   0.302   7.009  0.00  0.00    +0.000 A 
ATOM     21  C   UNL     1      50.418   0.952   5.773  0.00  0.00    +0.000 A 
ATOM     22  C   UNL     1      50.511  -1.085   6.957  0.00  0.00    +0.000 A 
ATOM     23  C   UNL     1      50.501   0.240   4.582  0.00  0.00    +0.000 A 
ATOM     24  C   UNL     1      50.586  -1.138   4.665  0.00  0.00    +0.000 A 
ENDBRANCH   7  20
TORSDOF 1
ENDMDL
MODEL 2
REMARK VINA RESULT:      -6.8     21.833     24.681
REMARK  Name = JAK3_Inhibitor.pdbqt.pdb
REMARK  1 active torsions:
REMARK  status: ('A' for Active; 'I' for Inactive)
REMARK    1  A    between atoms: C_7  and  C_20
REMARK                            x       y       z     vdW  Elec       q    Type
REMARK                         _______ _______ _______ _____ _____    ______ ____
ROOT
ATOM      1  O   UNL     1      33.201  11.187  24.815  0.00  0.00    +0.000 OA
ATOM      2  N   UNL     1      34.396  11.329  22.806  0.00  0.00    +0.000 N 
ATOM      3  C   UNL     1      34.942  13.557  22.797  0.00  0.00    +0.000 A 
ATOM      4  C   UNL     1      35.047  12.347  22.108  0.00  0.00    +0.000 A 
ATOM      5  C   UNL     1      34.177  13.262  23.997  0.00  0.00    +0.000 C 
ATOM      6  C   UNL     1      35.509  14.713  22.298  0.00  0.00    +0.000 A 
ATOM      7  C   UNL     1      36.202  14.657  21.076  0.00  0.00    +0.000 A 
ATOM      8  C   UNL     1      33.832  11.808  23.983  0.00  0.00    +0.000 C 
ATOM      9  C   UNL     1      35.715  12.242  20.908  0.00  0.00    +0.000 A 
ATOM     10  C   UNL     1      33.829  14.081  24.939  0.00  0.00    +0.000 C 
ATOM     11  C   UNL     1      36.288  13.412  20.407  0.00  0.00    +0.000 A 
ATOM     12  H   UNL     1      34.331  10.364  22.517  0.00  0.00    +0.000 HD
ATOM     13  N   UNL     1      32.696  14.519  27.079  0.00  0.00    +0.000 N 
ATOM     14  C   UNL     1      33.425  14.935  25.995  0.00  0.00    +0.000 C 
ATOM     15  C   UNL     1      33.669  16.281  26.142  0.00  0.00    +0.000 C 
ATOM     16  C   UNL     1      32.472  15.583  27.912  0.00  0.00    +0.000 C 
ATOM     17  C   UNL     1      33.066  16.691  27.354  0.00  0.00    +0.000 C 
ATOM     18  H   UNL     1      32.375  13.573  27.236  0.00  0.00    +0.000 HD
ENDROOT
BRANCH   7  20
ATOM     19  N   UNL     1      36.775  18.271  20.156  0.00  0.00    +0.000 NA
ATOM     20  C   UNL     1      36.822  15.859  20.507  0.00  0.00    +0.000 A 
ATOM     21  C   UNL     1      38.016  15.809  19.785  0.00  0.00    +0.000 A 
ATOM     22  C   UNL     1      36.260  17.124  20.652  0.00  0.00    +0.000 A 
ATOM     23  C   UNL     1      38.588  16.960  19.254  0.00  0.00    +0.000 A 
ATOM     24  C   UNL     1      37.930  18.158  19.468  0.00  0.00    +0.000 A 
ENDBRANCH   7  20
TORSDOF 1
ENDMDL
MODEL 3
REMARK VINA RESULT:      -6.4      1.934      2.773
REMARK  Name = JAK3_Inhibitor.pdbqt.pdb
REMARK  1 active torsions:
REMARK  status: ('A' for Active; 'I' for Inactive)
REMARK    1  A    between atoms: C_7  and  C_20
REMARK                            x       y       z     vdW  Elec       q    Type
REMARK                         _______ _______ _______ _____ _____    ______ ____
ROOT
ATOM      1  O   UNL     1      50.510   2.576  11.355  0.00  0.00    +0.000 OA
ATOM      2  N   UNL     1      50.316   0.725   9.933  0.00  0.00    +0.000 N 
ATOM      3  C   UNL     1      50.659   1.721   7.895  0.00  0.00    +0.000 A 
ATOM      4  C   UNL     1      50.398   0.519   8.555  0.00  0.00    +0.000 A 
ATOM      5  C   UNL     1      50.743   2.732   8.936  0.00  0.00    +0.000 C 
ATOM      6  C   UNL     1      50.783   1.767   6.520  0.00  0.00    +0.000 A 
ATOM      7  C   UNL     1      50.643   0.577   5.785  0.00  0.00    +0.000 A 
ATOM      8  C   UNL     1      50.516   2.063  10.253  0.00  0.00    +0.000 C 
ATOM      9  C   UNL     1      50.253  -0.673   7.879  0.00  0.00    +0.000 A 
ATOM     10  C   UNL     1      50.969   3.999   8.796  0.00  0.00    +0.000 C 
ATOM     11  C   UNL     1      50.380  -0.623   6.489  0.00  0.00    +0.000 A 
ATOM     12  H   UNL     1      50.137   0.013  10.626  0.00  0.00    +0.000 HD
ATOM     13  N   UNL     1      51.265   6.238   9.774  0.00  0.00    +0.000 N 
ATOM     14  C   UNL     1      51.214   5.392   8.696  0.00  0.00    +0.000 C 
ATOM     15  C   UNL     1      51.439   6.138   7.562  0.00  0.00    +0.000 C 
ATOM     16  C   UNL     1      51.518   7.513   9.340  0.00  0.00    +0.000 C 
ATOM     17  C   UNL     1      51.631   7.479   7.970  0.00  0.00    +0.000 C 
ATOM     18  H   UNL     1      51.134   5.962  10.738  0.00  0.00    +0.000 HD
ENDROOT
BRANCH   7  20
ATOM     19  N   UNL     1      51.699   1.573   2.302  0.00  0.00    +0.000 NA
ATOM     20  C   UNL     1      50.767   0.577   4.323  0.00  0.00    +0.000 A 
ATOM     21  C   UNL     1      50.117  -0.363   3.521  0.00  0.00    +0.000 A 
ATOM     22  C   UNL     1      51.540   1.514   3.644  0.00  0.00    +0.000 A 
ATOM     23  C   UNL     1      50.247  -0.347   2.137  0.00  0.00    +0.000 A 
ATOM     24  C   UNL     1      51.046   0.637   1.582  0.00  0.00    +0.000 A 
ENDBRANCH   7  20
TORSDOF 1
ENDMDL
MODEL 4
REMARK VINA RESULT:      -6.1      4.440      6.617
REMARK  Name = JAK3_Inhibitor.pdbqt.pdb
REMARK  1 active torsions:
REMARK  status: ('A' for Active; 'I' for Inactive)
REMARK    1  A    between atoms: C_7  and  C_20
REMARK                            x       y       z     vdW  Elec       q    Type
REMARK                         _______ _______ _______ _____ _____    ______ ____
ROOT
ATOM      1  O   UNL     1      53.719   1.510   0.607  0.00  0.00    +0.000 OA
ATOM      2  N   UNL     1      52.505  -0.156   1.719  0.00  0.00    +0.000 N 
ATOM      3  C   UNL     1      51.872   0.976   3.612  0.00  0.00    +0.000 A 
ATOM      4  C   UNL     1      51.810  -0.240   2.926  0.00  0.00    +0.000 A 
ATOM      5  C   UNL     1      52.656   1.864   2.770  0.00  0.00    +0.000 C 
ATOM      6  C   UNL     1      51.256   1.134   4.837  0.00  0.00    +0.000 A 
ATOM      7  C   UNL     1      50.558   0.048   5.393  0.00  0.00    +0.000 A 
ATOM      8  C   UNL     1      53.058   1.107   1.544  0.00  0.00    +0.000 C 
ATOM      9  C   UNL     1      51.139  -1.332   3.429  0.00  0.00    +0.000 A 
ATOM     10  C   UNL     1      52.978   3.097   2.998  0.00  0.00    +0.000 C 
ATOM     11  C   UNL     1      50.516  -1.167   4.669  0.00  0.00    +0.000 A 
ATOM     12  H   UNL     1      52.606  -0.900   1.044  0.00  0.00    +0.000 HD
ATOM     13  N   UNL     1      54.107   5.173   2.314  0.00  0.00    +0.000 N 
ATOM     14  C   UNL     1      53.355   4.448   3.201  0.00  0.00    +0.000 C 
ATOM     15  C   UNL     1      53.060   5.263   4.270  0.00  0.00    +0.000 C 
ATOM     16  C   UNL     1      54.295   6.438   2.804  0.00  0.00    +0.000 C 
ATOM     17  C   UNL     1      53.655   6.522   4.018  0.00  0.00    +0.000 C 
ATOM     18  H   UNL     1      54.467   4.826   1.435  0.00  0.00    +0.000 HD
ENDROOT
BRANCH   7  20
ATOM     19  N   UNL     1      49.306  -0.809   8.848  0.00  0.00    +0.000 NA
ATOM     20  C   UNL     1      49.888   0.171   6.692  0.00  0.00    +0.000 A 
ATOM     21  C   UNL     1      49.194   1.324   7.065  0.00  0.00    +0.000 A 
ATOM     22  C   UNL     1      49.901  -0.853   7.634  0.00  0.00    +0.000 A 
ATOM     23  C   UNL     1      48.565   1.421   8.301  0.00  0.00    +0.000 A 
ATOM     24  C   UNL     1      48.652   0.332   9.150  0.00  0.00    +0.000 A 
ENDBRANCH   7  20
TORSDOF 1
ENDMDL
MODEL 5
REMARK VINA RESULT:      -6.1      3.958      8.106
REMARK  Name = JAK3_Inhibitor.pdbqt.pdb
REMARK  1 active torsions:
REMARK  status: ('A' for Active; 'I' for Inactive)
REMARK    1  A    between atoms: C_7  and  C_20
REMARK                            x       y       z     vdW  Elec       q    Type
REMARK                         _______ _______ _______ _____ _____    ______ ____
ROOT
ATOM      1  O   UNL     1      50.238   6.668   8.615  0.00  0.00    +0.000 OA
ATOM      2  N   UNL     1      51.557   7.678  10.266  0.00  0.00    +0.000 N 
ATOM      3  C   UNL     1      51.807   5.932  11.733  0.00  0.00    +0.000 A 
ATOM      4  C   UNL     1      52.121   7.268  11.475  0.00  0.00    +0.000 A 
ATOM      5  C   UNL     1      50.996   5.493  10.609  0.00  0.00    +0.000 C 
ATOM      6  C   UNL     1      52.256   5.303  12.877  0.00  0.00    +0.000 A 
ATOM      7  C   UNL     1      53.043   6.029  13.788  0.00  0.00    +0.000 A 
ATOM      8  C   UNL     1      50.846   6.644   9.667  0.00  0.00    +0.000 C 
ATOM      9  C   UNL     1      52.888   8.020  12.336  0.00  0.00    +0.000 A 
ATOM     10  C   UNL     1      50.474   4.325  10.415  0.00  0.00    +0.000 C 
ATOM     11  C   UNL     1      53.342   7.381  13.492  0.00  0.00    +0.000 A 
ATOM     12  H   UNL     1      51.640   8.598   9.858  0.00  0.00    +0.000 HD
ATOM     13  N   UNL     1      49.131   2.785   9.043  0.00  0.00    +0.000 N 
ATOM     14  C   UNL     1      49.881   3.063  10.156  0.00  0.00    +0.000 C 
ATOM     15  C   UNL     1      49.936   1.923  10.924  0.00  0.00    +0.000 C 
ATOM     16  C   UNL     1      48.706   1.484   9.093  0.00  0.00    +0.000 C 
ATOM     17  C   UNL     1      49.192   0.925  10.252  0.00  0.00    +0.000 C 
ATOM     18  H   UNL     1      48.924   3.441   8.301  0.00  0.00    +0.000 HD
ENDROOT
BRANCH   7  20
ATOM     19  N   UNL     1      54.452   3.441  16.145  0.00  0.00    +0.000 NA
ATOM     20  C   UNL     1      53.543   5.402  15.016  0.00  0.00    +0.000 A 
ATOM     21  C   UNL     1      53.612   6.092  16.229  0.00  0.00    +0.000 A 
ATOM     22  C   UNL     1      53.981   4.081  15.051  0.00  0.00    +0.000 A 
ATOM     23  C   UNL     1      54.089   5.480  17.382  0.00  0.00    +0.000 A 
ATOM     24  C   UNL     1      54.494   4.161  17.286  0.00  0.00    +0.000 A 
ENDBRANCH   7  20
TORSDOF 1
ENDMDL
MODEL 6
REMARK VINA RESULT:      -5.9      3.739      7.258
REMARK  Name = JAK3_Inhibitor.pdbqt.pdb
REMARK  1 active torsions:
REMARK  status: ('A' for Active; 'I' for Inactive)
REMARK    1  A    between atoms: C_7  and  C_20
REMARK                            x       y       z     vdW  Elec       q    Type
REMARK                         _______ _______ _______ _____ _____    ______ ____
ROOT
ATOM      1  O   UNL     1      53.531   4.501   1.970  0.00  0.00    +0.000 OA
ATOM      2  N   UNL     1      53.525   5.445   4.114  0.00  0.00    +0.000 N 
ATOM      3  C   UNL     1      52.225   3.926   5.239  0.00  0.00    +0.000 A 
ATOM      4  C   UNL     1      52.957   5.110   5.344  0.00  0.00    +0.000 A 
ATOM      5  C   UNL     1      52.351   3.506   3.854  0.00  0.00    +0.000 C 
ATOM      6  C   UNL     1      51.569   3.395   6.332  0.00  0.00    +0.000 A 
ATOM      7  C   UNL     1      51.649   4.066   7.565  0.00  0.00    +0.000 A 
ATOM      8  C   UNL     1      53.200   4.508   3.140  0.00  0.00    +0.000 C 
ATOM      9  C   UNL     1      53.064   5.804   6.529  0.00  0.00    +0.000 A 
ATOM     10  C   UNL     1      51.837   2.459   3.291  0.00  0.00    +0.000 C 
ATOM     11  C   UNL     1      52.401   5.263   7.633  0.00  0.00    +0.000 A 
ATOM     12  H   UNL     1      54.099   6.255   3.930  0.00  0.00    +0.000 HD
ATOM     13  N   UNL     1      51.499   1.051   1.302  0.00  0.00    +0.000 N 
ATOM     14  C   UNL     1      51.298   1.327   2.629  0.00  0.00    +0.000 C 
ATOM     15  C   UNL     1      50.509   0.330   3.154  0.00  0.00    +0.000 C 
ATOM     16  C   UNL     1      50.846  -0.108   0.974  0.00  0.00    +0.000 C 
ATOM     17  C   UNL     1      50.223  -0.577   2.107  0.00  0.00    +0.000 C 
ATOM     18  H   UNL     1      52.044   1.617   0.665  0.00  0.00    +0.000 HD
ENDROOT
BRANCH   7  20
ATOM     19  N   UNL     1      50.270   1.621  10.086  0.00  0.00    +0.000 NA
ATOM     20  C   UNL     1      50.969   3.539   8.753  0.00  0.00    +0.000 A 
ATOM     21  C   UNL     1      50.368   4.373   9.698  0.00  0.00    +0.000 A 
ATOM     22  C   UNL     1      50.879   2.175   9.014  0.00  0.00    +0.000 A 
ATOM     23  C   UNL     1      49.729   3.855  10.818  0.00  0.00    +0.000 A 
ATOM     24  C   UNL     1      49.709   2.479  10.963  0.00  0.00    +0.000 A 
ENDBRANCH   7  20
TORSDOF 1
ENDMDL
MODEL 7
REMARK VINA RESULT:      -5.7      4.087      7.354
REMARK  Name = JAK3_Inhibitor.pdbqt.pdb
REMARK  1 active torsions:
REMARK  status: ('A' for Active; 'I' for Inactive)
REMARK    1  A    between atoms: C_7  and  C_20
REMARK                            x       y       z     vdW  Elec       q    Type
REMARK                         _______ _______ _______ _____ _____    ______ ____
ROOT
ATOM      1  O   UNL     1      51.015   1.332   4.234  0.00  0.00    +0.000 OA
ATOM      2  N   UNL     1      51.600  -0.800   3.460  0.00  0.00    +0.000 N 
ATOM      3  C   UNL     1      50.988  -2.084   5.260  0.00  0.00    +0.000 A 
ATOM      4  C   UNL     1      51.536  -2.095   3.976  0.00  0.00    +0.000 A 
ATOM      5  C   UNL     1      50.696  -0.691   5.552  0.00  0.00    +0.000 C 
ATOM      6  C   UNL     1      50.825  -3.255   5.975  0.00  0.00    +0.000 A 
ATOM      7  C   UNL     1      51.220  -4.470   5.389  0.00  0.00    +0.000 A 
ATOM      8  C   UNL     1      51.102   0.127   4.369  0.00  0.00    +0.000 C 
ATOM      9  C   UNL     1      51.937  -3.260   3.359  0.00  0.00    +0.000 A 
ATOM     10  C   UNL     1      50.179  -0.197   6.632  0.00  0.00    +0.000 C 
ATOM     11  C   UNL     1      51.770  -4.441   4.085  0.00  0.00    +0.000 A 
ATOM     12  H   UNL     1      51.955  -0.544   2.550  0.00  0.00    +0.000 HD
ATOM     13  N   UNL     1      49.396   1.738   7.935  0.00  0.00    +0.000 N 
ATOM     14  C   UNL     1      49.616   0.393   7.792  0.00  0.00    +0.000 C 
ATOM     15  C   UNL     1      49.197  -0.230   8.945  0.00  0.00    +0.000 C 
ATOM     16  C   UNL     1      48.844   1.980   9.165  0.00  0.00    +0.000 C 
ATOM     17  C   UNL     1      48.710   0.775   9.814  0.00  0.00    +0.000 C 
ATOM     18  H   UNL     1      49.609   2.440   7.239  0.00  0.00    +0.000 HD
ENDROOT
BRANCH   7  20
ATOM     19  N   UNL     1      51.590  -8.110   6.309  0.00  0.00    +0.000 NA
ATOM     20  C   UNL     1      51.065  -5.738   6.110  0.00  0.00    +0.000 A 
ATOM     21  C   UNL     1      50.282  -5.848   7.261  0.00  0.00    +0.000 A 
ATOM     22  C   UNL     1      51.688  -6.910   5.694  0.00  0.00    +0.000 A 
ATOM     23  C   UNL     1      50.148  -7.058   7.932  0.00  0.00    +0.000 A 
ATOM     24  C   UNL     1      50.819  -8.152   7.416  0.00  0.00    +0.000 A 
ENDBRANCH   7  20
TORSDOF 1
ENDMDL
MODEL 8
REMARK VINA RESULT:      -5.5     22.164     25.368
REMARK  Name = JAK3_Inhibitor.pdbqt.pdb
REMARK  1 active torsions:
REMARK  status: ('A' for Active; 'I' for Inactive)
REMARK    1  A    between atoms: C_7  and  C_20
REMARK                            x       y       z     vdW  Elec       q    Type
REMARK                         _______ _______ _______ _____ _____    ______ ____
ROOT
ATOM      1  O   UNL     1      37.969  26.396  21.063  0.00  0.00    +0.000 OA
ATOM      2  N   UNL     1      36.562  24.532  21.242  0.00  0.00    +0.000 N 
ATOM      3  C   UNL     1      37.942  22.884  20.442  0.00  0.00    +0.000 A 
ATOM      4  C   UNL     1      36.676  23.171  20.956  0.00  0.00    +0.000 A 
ATOM      5  C   UNL     1      38.652  24.151  20.411  0.00  0.00    +0.000 C 
ATOM      6  C   UNL     1      38.289  21.596  20.083  0.00  0.00    +0.000 A 
ATOM      7  C   UNL     1      37.345  20.568  20.243  0.00  0.00    +0.000 A 
ATOM      8  C   UNL     1      37.736  25.210  20.935  0.00  0.00    +0.000 C 
ATOM      9  C   UNL     1      35.717  22.198  21.131  0.00  0.00    +0.000 A 
ATOM     10  C   UNL     1      39.862  24.374  20.008  0.00  0.00    +0.000 C 
ATOM     11  C   UNL     1      36.072  20.897  20.768  0.00  0.00    +0.000 A 
ATOM     12  H   UNL     1      35.745  24.989  21.623  0.00  0.00    +0.000 HD
ATOM     13  N   UNL     1      41.728  25.927  19.604  0.00  0.00    +0.000 N 
ATOM     14  C   UNL     1      41.181  24.670  19.580  0.00  0.00    +0.000 C 
ATOM     15  C   UNL     1      42.128  23.806  19.081  0.00  0.00    +0.000 C 
ATOM     16  C   UNL     1      43.011  25.874  19.126  0.00  0.00    +0.000 C 
ATOM     17  C   UNL     1      43.285  24.567  18.794  0.00  0.00    +0.000 C 
ATOM     18  H   UNL     1      41.256  26.762  19.925  0.00  0.00    +0.000 HD
ENDROOT
BRANCH   7  20
ATOM     19  N   UNL     1      39.234  17.592  18.896  0.00  0.00    +0.000 NA
ATOM     20  C   UNL     1      37.670  19.185  19.876  0.00  0.00    +0.000 A 
ATOM     21  C   UNL     1      36.794  18.125  20.121  0.00  0.00    +0.000 A 
ATOM     22  C   UNL     1      38.870  18.842  19.261  0.00  0.00    +0.000 A 
ATOM     23  C   UNL     1      37.120  16.821  19.765  0.00  0.00    +0.000 A 
ATOM     24  C   UNL     1      38.345  16.611  19.160  0.00  0.00    +0.000 A 
ENDBRANCH   7  20
TORSDOF 1
ENDMDL
MODEL 9
REMARK VINA RESULT:      -5.5     23.443     25.402
REMARK  Name = JAK3_Inhibitor.pdbqt.pdb
REMARK  1 active torsions:
REMARK  status: ('A' for Active; 'I' for Inactive)
REMARK    1  A    between atoms: C_7  and  C_20
REMARK                            x       y       z     vdW  Elec       q    Type
REMARK                         _______ _______ _______ _____ _____    ______ ____
ROOT
ATOM      1  O   UNL     1      27.608  15.588  16.723  0.00  0.00    +0.000 OA
ATOM      2  N   UNL     1      28.831  15.115  18.664  0.00  0.00    +0.000 N 
ATOM      3  C   UNL     1      30.849  16.071  18.134  0.00  0.00    +0.000 A 
ATOM      4  C   UNL     1      30.131  15.367  19.104  0.00  0.00    +0.000 A 
ATOM      5  C   UNL     1      29.928  16.263  17.025  0.00  0.00    +0.000 C 
ATOM      6  C   UNL     1      32.164  16.433  18.345  0.00  0.00    +0.000 A 
ATOM      7  C   UNL     1      32.779  16.085  19.560  0.00  0.00    +0.000 A 
ATOM      8  C   UNL     1      28.623  15.634  17.391  0.00  0.00    +0.000 C 
ATOM      9  C   UNL     1      30.689  15.004  20.309  0.00  0.00    +0.000 A 
ATOM     10  C   UNL     1      30.154  16.863  15.901  0.00  0.00    +0.000 C 
ATOM     11  C   UNL     1      32.020  15.373  20.519  0.00  0.00    +0.000 A 
ATOM     12  H   UNL     1      28.117  14.625  19.183  0.00  0.00    +0.000 HD
ATOM     13  N   UNL     1      29.384  17.618  13.689  0.00  0.00    +0.000 N 
ATOM     14  C   UNL     1      30.351  17.511  14.655  0.00  0.00    +0.000 C 
ATOM     15  C   UNL     1      31.487  18.129  14.187  0.00  0.00    +0.000 C 
ATOM     16  C   UNL     1      29.890  18.296  12.612  0.00  0.00    +0.000 C 
ATOM     17  C   UNL     1      31.196  18.625  12.895  0.00  0.00    +0.000 C 
ATOM     18  H   UNL     1      28.444  17.253  13.762  0.00  0.00    +0.000 HD
ENDROOT
BRANCH   7  20
ATOM     19  N   UNL     1      36.014  18.027  19.559  0.00  0.00    +0.000 NA
ATOM     20  C   UNL     1      34.175  16.450  19.828  0.00  0.00    +0.000 A 
ATOM     21  C   UNL     1      35.025  15.636  20.579  0.00  0.00    +0.000 A 
ATOM     22  C   UNL     1      34.739  17.629  19.351  0.00  0.00    +0.000 A 
ATOM     23  C   UNL     1      36.345  16.000  20.823  0.00  0.00    +0.000 A 
ATOM     24  C   UNL     1      36.786  17.199  20.293  0.00  0.00    +0.000 A 
ENDBRANCH   7  20
TORSDOF 1
ENDMDL
