MODEL 1
REMARK VINA RESULT:      -6.3      0.000      0.000
REMARK  Name = Leptomycin.pdbqt.pdb
REMARK  12 active torsions:
REMARK  status: ('A' for Active; 'I' for Inactive)
REMARK    1  A    between atoms: C_2  and  C_4
REMARK    2  A    between atoms: C_5  and  C_6
REMARK    3  A    between atoms: C_6  and  C_7
REMARK    4  A    between atoms: C_10  and  C_11
REMARK    5  A    between atoms: C_10  and  C_21
REMARK    6  A    between atoms: C_12  and  C_13
REMARK    7  A    between atoms: C_23  and  C_25
REMARK    8  A    between atoms: C_25  and  C_27
REMARK    9  A    between atoms: C_27  and  C_29
REMARK   10  A    between atoms: C_29  and  O_30
REMARK   11  A    between atoms: C_29  and  C_32
REMARK   12  A    between atoms: C_38  and  O_40
REMARK                            x       y       z     vdW  Elec       q    Type
REMARK                         _______ _______ _______ _____ _____    ______ ____
ROOT
ATOM      1  C   UNL     1      52.608   1.718   5.167  0.00  0.00    +0.000 C 
ATOM      2  C   UNL     1      52.707   2.888   5.709  0.00  0.00    +0.000 C 
ATOM      3  C   UNL     1      53.218   4.028   4.876  0.00  0.00    +0.000 C 
ATOM      4  C   UNL     1      52.432   0.427   4.609  0.00  0.00    +0.000 C 
ATOM      5  C   UNL     1      53.693  -0.420   4.530  0.00  0.00    +0.000 C 
ENDROOT
BRANCH   2   6
ATOM      6  C   UNL     1      51.913   3.183   6.845  0.00  0.00    +0.000 C 
ATOM      7  C   UNL     1      51.270   3.491   7.812  0.00  0.00    +0.000 C 
BRANCH   7   8
ATOM      8  C   UNL     1      50.513   3.992   9.045  0.00  0.00    +0.000 C 
BRANCH   8   9
ATOM      9  C   UNL     1      49.994   4.473  10.272  0.00  0.00    +0.000 C 
ATOM     10  C   UNL     1      48.626   4.051  10.712  0.00  0.00    +0.000 C 
ATOM     11  C   UNL     1      50.697   5.434  11.040  0.00  0.00    +0.000 C 
ATOM     12  C   UNL     1      51.471   6.316  11.595  0.00  0.00    +0.000 C 
BRANCH  12  13
ATOM     13  C   UNL     1      52.615   6.691  10.841  0.00  0.00    +0.000 C 
ATOM     14  C   UNL     1      53.498   7.017  10.095  0.00  0.00    +0.000 C 
BRANCH  14  15
ATOM     15  C   UNL     1      54.445   7.415   9.117  0.00  0.00    +0.000 A 
ATOM     16  O   UNL     1      55.753   7.833   9.609  0.00  0.00    +0.000 OA
ATOM     17  C   UNL     1      56.780   8.215   8.751  0.00  0.00    +0.000 A 
ATOM     18  O   UNL     1      57.902   8.539   9.109  0.00  0.00    +0.000 OA
ATOM     19  C   UNL     1      56.372   8.162   7.378  0.00  0.00    +0.000 A 
ATOM     20  C   UNL     1      55.317   7.834   6.926  0.00  0.00    +0.000 A 
ATOM     21  C   UNL     1      54.193   7.412   7.671  0.00  0.00    +0.000 A 
ATOM     22  C   UNL     1      52.933   6.978   6.990  0.00  0.00    +0.000 C 
ENDBRANCH  14  15
ENDBRANCH  12  13
BRANCH  12  23
ATOM     23  C   UNL     1      51.122   6.844  12.863  0.00  0.00    +0.000 C 
ATOM     24  C   UNL     1      50.737   7.414  14.233  0.00  0.00    +0.000 C 
ENDBRANCH  12  23
ENDBRANCH   8   9
ENDBRANCH   7   8
ENDBRANCH   2   6
BRANCH   4  25
ATOM     25  C   UNL     1      51.078  -0.207   4.660  0.00  0.00    +0.000 C 
ATOM     26  O   UNL     1      50.095   0.289   4.100  0.00  0.00    +0.000 OA
BRANCH  25  27
ATOM     27  C   UNL     1      50.941  -1.452   5.476  0.00  0.00    +0.000 C 
ATOM     28  C   UNL     1      50.375  -2.716   4.833  0.00  0.00    +0.000 C 
BRANCH  27  29
ATOM     29  C   UNL     1      51.072  -1.354   6.926  0.00  0.00    +0.000 C 
BRANCH  29  30
ATOM     30  C   UNL     1      50.687  -0.258   7.797  0.00  0.00    +0.000 C 
ATOM     31  C   UNL     1      49.324   0.387   7.660  0.00  0.00    +0.000 C 
ATOM     32  C   UNL     1      51.445   0.159   8.916  0.00  0.00    +0.000 C 
ATOM     33  C   UNL     1      52.163   0.630  10.036  0.00  0.00    +0.000 C 
ATOM     34  C   UNL     1      53.652   0.755   9.937  0.00  0.00    +0.000 C 
ATOM     35  C   UNL     1      51.560   0.834  11.156  0.00  0.00    +0.000 C 
ATOM     36  C   UNL     1      50.878   1.038  12.387  0.00  0.00    +0.000 C 
ATOM     37  O   UNL     1      50.290   0.147  12.972  0.00  0.00    +0.000 OA
BRANCH  36  38
ATOM     38  O   UNL     1      50.922   2.302  12.835  0.00  0.00    +0.000 OA
ATOM     39  H   UNL     1      51.136   2.836  12.042  0.00  0.00    +0.000 HD
ENDBRANCH  36  38
ENDBRANCH  29  30
BRANCH  29  40
ATOM     40  O   UNL     1      51.601  -2.478   7.564  0.00  0.00    +0.000 OA
ATOM     41  H   UNL     1      51.141  -3.301   7.298  0.00  0.00    +0.000 HD
ENDBRANCH  29  40
ENDBRANCH  27  29
ENDBRANCH  25  27
ENDBRANCH   4  25
TORSDOF 12
ENDMDL
MODEL 2
REMARK VINA RESULT:      -5.7     13.589     16.525
REMARK  Name = Leptomycin.pdbqt.pdb
REMARK  12 active torsions:
REMARK  status: ('A' for Active; 'I' for Inactive)
REMARK    1  A    between atoms: C_2  and  C_4
REMARK    2  A    between atoms: C_5  and  C_6
REMARK    3  A    between atoms: C_6  and  C_7
REMARK    4  A    between atoms: C_10  and  C_11
REMARK    5  A    between atoms: C_10  and  C_21
REMARK    6  A    between atoms: C_12  and  C_13
REMARK    7  A    between atoms: C_23  and  C_25
REMARK    8  A    between atoms: C_25  and  C_27
REMARK    9  A    between atoms: C_27  and  C_29
REMARK   10  A    between atoms: C_29  and  O_30
REMARK   11  A    between atoms: C_29  and  C_32
REMARK   12  A    between atoms: C_38  and  O_40
REMARK                            x       y       z     vdW  Elec       q    Type
REMARK                         _______ _______ _______ _____ _____    ______ ____
ROOT
ATOM      1  C   UNL     1      55.134  19.459  10.938  0.00  0.00    +0.000 C 
ATOM      2  C   UNL     1      54.574  20.613  11.105  0.00  0.00    +0.000 C 
ATOM      3  C   UNL     1      54.622  21.607   9.981  0.00  0.00    +0.000 C 
ATOM      4  C   UNL     1      55.688  18.162  10.791  0.00  0.00    +0.000 C 
ATOM      5  C   UNL     1      57.191  18.073  11.003  0.00  0.00    +0.000 C 
ENDROOT
BRANCH   2   6
ATOM      6  C   UNL     1      53.553  20.741  12.079  0.00  0.00    +0.000 C 
ATOM      7  C   UNL     1      52.683  20.913  12.890  0.00  0.00    +0.000 C 
BRANCH   7   8
ATOM      8  C   UNL     1      51.575  21.253  13.890  0.00  0.00    +0.000 C 
BRANCH   8   9
ATOM      9  C   UNL     1      50.499  21.374  14.804  0.00  0.00    +0.000 C 
ATOM     10  C   UNL     1      49.722  22.652  14.864  0.00  0.00    +0.000 C 
ATOM     11  C   UNL     1      50.212  20.350  15.739  0.00  0.00    +0.000 C 
ATOM     12  C   UNL     1      50.111  19.322  16.526  0.00  0.00    +0.000 C 
BRANCH  12  13
ATOM     13  C   UNL     1      51.128  18.340  16.388  0.00  0.00    +0.000 C 
ATOM     14  C   UNL     1      52.001  17.553  16.142  0.00  0.00    +0.000 C 
BRANCH  14  15
ATOM     15  C   UNL     1      53.042  16.683  15.727  0.00  0.00    +0.000 A 
ATOM     16  O   UNL     1      52.687  15.672  14.735  0.00  0.00    +0.000 OA
ATOM     17  C   UNL     1      53.624  14.779  14.220  0.00  0.00    +0.000 A 
ATOM     18  O   UNL     1      53.388  13.940  13.364  0.00  0.00    +0.000 OA
ATOM     19  C   UNL     1      54.919  14.976  14.800  0.00  0.00    +0.000 A 
ATOM     20  C   UNL     1      55.257  15.780  15.615  0.00  0.00    +0.000 A 
ATOM     21  C   UNL     1      54.424  16.752  16.214  0.00  0.00    +0.000 A 
ATOM     22  C   UNL     1      54.971  17.742  17.192  0.00  0.00    +0.000 C 
ENDBRANCH  14  15
ENDBRANCH  12  13
BRANCH  12  23
ATOM     23  C   UNL     1      49.041  19.262  17.453  0.00  0.00    +0.000 C 
ATOM     24  C   UNL     1      47.880  19.205  18.453  0.00  0.00    +0.000 C 
ENDBRANCH  12  23
ENDBRANCH   8   9
ENDBRANCH   7   8
ENDBRANCH   2   6
BRANCH   4  25
ATOM     25  C   UNL     1      54.807  16.970  10.996  0.00  0.00    +0.000 C 
ATOM     26  O   UNL     1      55.262  15.846  11.231  0.00  0.00    +0.000 OA
BRANCH  25  27
ATOM     27  C   UNL     1      53.335  17.179  10.844  0.00  0.00    +0.000 C 
ATOM     28  C   UNL     1      52.450  17.233  12.087  0.00  0.00    +0.000 C 
BRANCH  27  29
ATOM     29  C   UNL     1      52.743  17.033   9.519  0.00  0.00    +0.000 C 
BRANCH  29  30
ATOM     30  C   UNL     1      51.791  17.903   8.852  0.00  0.00    +0.000 C 
ATOM     31  C   UNL     1      52.276  19.048   7.989  0.00  0.00    +0.000 C 
ATOM     32  C   UNL     1      50.399  17.654   8.803  0.00  0.00    +0.000 C 
ATOM     33  C   UNL     1      49.003  17.469   8.732  0.00  0.00    +0.000 C 
ATOM     34  C   UNL     1      48.273  17.010   9.957  0.00  0.00    +0.000 C 
ATOM     35  C   UNL     1      48.389  17.578   7.605  0.00  0.00    +0.000 C 
ATOM     36  C   UNL     1      47.733  17.688   6.348  0.00  0.00    +0.000 C 
ATOM     37  O   UNL     1      48.009  16.982   5.395  0.00  0.00    +0.000 OA
BRANCH  36  38
ATOM     38  O   UNL     1      46.800  18.651   6.298  0.00  0.00    +0.000 OA
ATOM     39  H   UNL     1      45.953  18.167   6.213  0.00  0.00    +0.000 HD
ENDBRANCH  36  38
ENDBRANCH  29  30
BRANCH  29  40
ATOM     40  O   UNL     1      53.177  15.930   8.780  0.00  0.00    +0.000 OA
ATOM     41  H   UNL     1      52.848  15.954   7.858  0.00  0.00    +0.000 HD
ENDBRANCH  29  40
ENDBRANCH  27  29
ENDBRANCH  25  27
ENDBRANCH   4  25
TORSDOF 12
ENDMDL
MODEL 3
REMARK VINA RESULT:      -5.6      2.444      7.923
REMARK  Name = Leptomycin.pdbqt.pdb
REMARK  12 active torsions:
REMARK  status: ('A' for Active; 'I' for Inactive)
REMARK    1  A    between atoms: C_2  and  C_4
REMARK    2  A    between atoms: C_5  and  C_6
REMARK    3  A    between atoms: C_6  and  C_7
REMARK    4  A    between atoms: C_10  and  C_11
REMARK    5  A    between atoms: C_10  and  C_21
REMARK    6  A    between atoms: C_12  and  C_13
REMARK    7  A    between atoms: C_23  and  C_25
REMARK    8  A    between atoms: C_25  and  C_27
REMARK    9  A    between atoms: C_27  and  C_29
REMARK   10  A    between atoms: C_29  and  O_30
REMARK   11  A    between atoms: C_29  and  C_32
REMARK   12  A    between atoms: C_38  and  O_40
REMARK                            x       y       z     vdW  Elec       q    Type
REMARK                         _______ _______ _______ _____ _____    ______ ____
ROOT
ATOM      1  C   UNL     1      51.817   5.297   6.116  0.00  0.00    +0.000 C 
ATOM      2  C   UNL     1      51.627   4.201   5.457  0.00  0.00    +0.000 C 
ATOM      3  C   UNL     1      52.477   3.928   4.250  0.00  0.00    +0.000 C 
ATOM      4  C   UNL     1      52.016   6.458   6.904  0.00  0.00    +0.000 C 
ATOM      5  C   UNL     1      51.362   7.723   6.370  0.00  0.00    +0.000 C 
ENDROOT
BRANCH   2   6
ATOM      6  C   UNL     1      51.017   3.105   6.117  0.00  0.00    +0.000 C 
ATOM      7  C   UNL     1      50.544   2.136   6.648  0.00  0.00    +0.000 C 
BRANCH   7   8
ATOM      8  C   UNL     1      50.026   0.833   7.263  0.00  0.00    +0.000 C 
BRANCH   8   9
ATOM      9  C   UNL     1      49.730  -0.447   7.791  0.00  0.00    +0.000 C 
ATOM     10  C   UNL     1      49.030  -0.559   9.110  0.00  0.00    +0.000 C 
ATOM     11  C   UNL     1      50.180  -1.628   7.150  0.00  0.00    +0.000 C 
ATOM     12  C   UNL     1      50.684  -2.588   6.437  0.00  0.00    +0.000 C 
BRANCH  12  13
ATOM     13  C   UNL     1      51.495  -2.182   5.344  0.00  0.00    +0.000 C 
ATOM     14  C   UNL     1      52.288  -1.851   4.505  0.00  0.00    +0.000 C 
BRANCH  14  15
ATOM     15  C   UNL     1      53.323  -1.487   3.606  0.00  0.00    +0.000 A 
ATOM     16  O   UNL     1      54.587  -1.071   4.205  0.00  0.00    +0.000 OA
ATOM     17  C   UNL     1      55.693  -0.721   3.434  0.00  0.00    +0.000 A 
ATOM     18  O   UNL     1      56.782  -0.401   3.885  0.00  0.00    +0.000 OA
ATOM     19  C   UNL     1      55.408  -0.803   2.032  0.00  0.00    +0.000 A 
ATOM     20  C   UNL     1      54.394  -1.129   1.494  0.00  0.00    +0.000 A 
ATOM     21  C   UNL     1      53.202  -1.521   2.144  0.00  0.00    +0.000 A 
ATOM     22  C   UNL     1      52.003  -1.957   1.363  0.00  0.00    +0.000 C 
ENDBRANCH  14  15
ENDBRANCH  12  13
BRANCH  12  23
ATOM     23  C   UNL     1      50.418  -3.932   6.799  0.00  0.00    +0.000 C 
ATOM     24  C   UNL     1      50.130  -5.389   7.182  0.00  0.00    +0.000 C 
ENDBRANCH  12  23
ENDBRANCH   8   9
ENDBRANCH   7   8
ENDBRANCH   2   6
BRANCH   4  25
ATOM     25  C   UNL     1      52.320   6.303   8.361  0.00  0.00    +0.000 C 
ATOM     26  O   UNL     1      53.378   5.809   8.766  0.00  0.00    +0.000 OA
BRANCH  25  27
ATOM     27  C   UNL     1      51.257   6.720   9.325  0.00  0.00    +0.000 C 
ATOM     28  C   UNL     1      51.252   8.145   9.872  0.00  0.00    +0.000 C 
BRANCH  27  29
ATOM     29  C   UNL     1      50.432   5.687   9.943  0.00  0.00    +0.000 C 
BRANCH  29  30
ATOM     30  C   UNL     1      50.739   4.847  11.087  0.00  0.00    +0.000 C 
ATOM     31  C   UNL     1      50.506   5.355  12.493  0.00  0.00    +0.000 C 
ATOM     32  C   UNL     1      51.091   3.481  10.986  0.00  0.00    +0.000 C 
ATOM     33  C   UNL     1      51.460   2.120  10.950  0.00  0.00    +0.000 C 
ATOM     34  C   UNL     1      52.424   1.662   9.899  0.00  0.00    +0.000 C 
ATOM     35  C   UNL     1      50.889   1.270  11.731  0.00  0.00    +0.000 C 
ATOM     36  C   UNL     1      50.233   0.345  12.590  0.00  0.00    +0.000 C 
ATOM     37  O   UNL     1      49.031   0.156  12.564  0.00  0.00    +0.000 OA
BRANCH  36  38
ATOM     38  O   UNL     1      51.053  -0.284  13.446  0.00  0.00    +0.000 OA
ATOM     39  H   UNL     1      51.407  -1.041  12.935  0.00  0.00    +0.000 HD
ENDBRANCH  36  38
ENDBRANCH  29  30
BRANCH  29  40
ATOM     40  O   UNL     1      49.164   5.509   9.383  0.00  0.00    +0.000 OA
ATOM     41  H   UNL     1      49.207   5.379   8.413  0.00  0.00    +0.000 HD
ENDBRANCH  29  40
ENDBRANCH  27  29
ENDBRANCH  25  27
ENDBRANCH   4  25
TORSDOF 12
ENDMDL
MODEL 4
REMARK VINA RESULT:      -5.5     12.546     15.657
REMARK  Name = Leptomycin.pdbqt.pdb
REMARK  12 active torsions:
REMARK  status: ('A' for Active; 'I' for Inactive)
REMARK    1  A    between atoms: C_2  and  C_4
REMARK    2  A    between atoms: C_5  and  C_6
REMARK    3  A    between atoms: C_6  and  C_7
REMARK    4  A    between atoms: C_10  and  C_11
REMARK    5  A    between atoms: C_10  and  C_21
REMARK    6  A    between atoms: C_12  and  C_13
REMARK    7  A    between atoms: C_23  and  C_25
REMARK    8  A    between atoms: C_25  and  C_27
REMARK    9  A    between atoms: C_27  and  C_29
REMARK   10  A    between atoms: C_29  and  O_30
REMARK   11  A    between atoms: C_29  and  C_32
REMARK   12  A    between atoms: C_38  and  O_40
REMARK                            x       y       z     vdW  Elec       q    Type
REMARK                         _______ _______ _______ _____ _____    ______ ____
ROOT
ATOM      1  C   UNL     1      43.478  -5.595  20.079  0.00  0.00    +0.000 C 
ATOM      2  C   UNL     1      43.021  -4.841  21.025  0.00  0.00    +0.000 C 
ATOM      3  C   UNL     1      43.504  -5.071  22.428  0.00  0.00    +0.000 C 
ATOM      4  C   UNL     1      43.983  -6.359  18.997  0.00  0.00    +0.000 C 
ATOM      5  C   UNL     1      43.340  -7.725  18.813  0.00  0.00    +0.000 C 
ENDROOT
BRANCH   2   6
ATOM      6  C   UNL     1      42.497  -3.568  20.689  0.00  0.00    +0.000 C 
ATOM      7  C   UNL     1      41.992  -2.513  20.415  0.00  0.00    +0.000 C 
BRANCH   7   8
ATOM      8  C   UNL     1      41.238  -1.222  20.085  0.00  0.00    +0.000 C 
BRANCH   8   9
ATOM      9  C   UNL     1      40.577   0.026  19.969  0.00  0.00    +0.000 C 
ATOM     10  C   UNL     1      39.969   0.655  21.184  0.00  0.00    +0.000 C 
ATOM     11  C   UNL     1      40.382   0.639  18.708  0.00  0.00    +0.000 C 
ATOM     12  C   UNL     1      40.285   1.038  17.476  0.00  0.00    +0.000 C 
BRANCH  12  13
ATOM     13  C   UNL     1      40.763   0.128  16.496  0.00  0.00    +0.000 C 
ATOM     14  C   UNL     1      41.061  -0.602  15.590  0.00  0.00    +0.000 C 
BRANCH  14  15
ATOM     15  C   UNL     1      41.308  -1.409  14.449  0.00  0.00    +0.000 A 
ATOM     16  O   UNL     1      41.760  -0.715  13.247  0.00  0.00    +0.000 OA
ATOM     17  C   UNL     1      42.069  -1.395  12.072  0.00  0.00    +0.000 A 
ATOM     18  O   UNL     1      42.485  -0.868  11.052  0.00  0.00    +0.000 OA
ATOM     19  C   UNL     1      41.862  -2.807  12.206  0.00  0.00    +0.000 A 
ATOM     20  C   UNL     1      41.488  -3.419  13.161  0.00  0.00    +0.000 A 
ATOM     21  C   UNL     1      41.153  -2.868  14.418  0.00  0.00    +0.000 A 
ATOM     22  C   UNL     1      40.742  -3.741  15.559  0.00  0.00    +0.000 C 
ENDBRANCH  14  15
ENDBRANCH  12  13
BRANCH  12  23
ATOM     23  C   UNL     1      39.707   2.302  17.201  0.00  0.00    +0.000 C 
ATOM     24  C   UNL     1      39.088   3.674  16.907  0.00  0.00    +0.000 C 
ENDBRANCH  12  23
ENDBRANCH   8   9
ENDBRANCH   7   8
ENDBRANCH   2   6
BRANCH   4  25
ATOM     25  C   UNL     1      44.632  -5.651  17.850  0.00  0.00    +0.000 C 
ATOM     26  O   UNL     1      44.968  -6.238  16.816  0.00  0.00    +0.000 OA
BRANCH  25  27
ATOM     27  C   UNL     1      44.920  -4.195  18.026  0.00  0.00    +0.000 C 
ATOM     28  C   UNL     1      44.118  -3.168  17.230  0.00  0.00    +0.000 C 
BRANCH  27  29
ATOM     29  C   UNL     1      46.142  -3.804  18.720  0.00  0.00    +0.000 C 
BRANCH  29  30
ATOM     30  C   UNL     1      46.360  -3.636  20.145  0.00  0.00    +0.000 C 
ATOM     31  C   UNL     1      47.023  -4.732  20.952  0.00  0.00    +0.000 C 
ATOM     32  C   UNL     1      46.149  -2.419  20.834  0.00  0.00    +0.000 C 
ATOM     33  C   UNL     1      45.944  -1.239  21.579  0.00  0.00    +0.000 C 
ATOM     34  C   UNL     1      44.725  -0.414  21.302  0.00  0.00    +0.000 C 
ATOM     35  C   UNL     1      46.848  -0.820  22.396  0.00  0.00    +0.000 C 
ATOM     36  C   UNL     1      47.865  -0.367  23.280  0.00  0.00    +0.000 C 
ATOM     37  O   UNL     1      48.991  -0.094  22.908  0.00  0.00    +0.000 OA
BRANCH  36  38
ATOM     38  O   UNL     1      47.481  -0.288  24.563  0.00  0.00    +0.000 OA
ATOM     39  H   UNL     1      48.221   0.169  25.014  0.00  0.00    +0.000 HD
ENDBRANCH  36  38
ENDBRANCH  29  30
BRANCH  29  40
ATOM     40  O   UNL     1      47.261  -3.601  17.908  0.00  0.00    +0.000 OA
ATOM     41  H   UNL     1      47.112  -2.892  17.249  0.00  0.00    +0.000 HD
ENDBRANCH  29  40
ENDBRANCH  27  29
ENDBRANCH  25  27
ENDBRANCH   4  25
TORSDOF 12
ENDMDL
MODEL 5
REMARK VINA RESULT:      -5.5      2.890      9.241
REMARK  Name = Leptomycin.pdbqt.pdb
REMARK  12 active torsions:
REMARK  status: ('A' for Active; 'I' for Inactive)
REMARK    1  A    between atoms: C_2  and  C_4
REMARK    2  A    between atoms: C_5  and  C_6
REMARK    3  A    between atoms: C_6  and  C_7
REMARK    4  A    between atoms: C_10  and  C_11
REMARK    5  A    between atoms: C_10  and  C_21
REMARK    6  A    between atoms: C_12  and  C_13
REMARK    7  A    between atoms: C_23  and  C_25
REMARK    8  A    between atoms: C_25  and  C_27
REMARK    9  A    between atoms: C_27  and  C_29
REMARK   10  A    between atoms: C_29  and  O_30
REMARK   11  A    between atoms: C_29  and  C_32
REMARK   12  A    between atoms: C_38  and  O_40
REMARK                            x       y       z     vdW  Elec       q    Type
REMARK                         _______ _______ _______ _____ _____    ______ ____
ROOT
ATOM      1  C   UNL     1      49.470   2.956   9.534  0.00  0.00    +0.000 C 
ATOM      2  C   UNL     1      49.680   1.780   9.038  0.00  0.00    +0.000 C 
ATOM      3  C   UNL     1      48.960   1.389   7.780  0.00  0.00    +0.000 C 
ATOM      4  C   UNL     1      49.315   4.249  10.093  0.00  0.00    +0.000 C 
ATOM      5  C   UNL     1      48.072   4.440  10.948  0.00  0.00    +0.000 C 
ENDROOT
BRANCH   2   6
ATOM      6  C   UNL     1      50.881   1.104   9.368  0.00  0.00    +0.000 C 
ATOM      7  C   UNL     1      51.921   0.545   9.589  0.00  0.00    +0.000 C 
BRANCH   7   8
ATOM      8  C   UNL     1      53.281  -0.140   9.751  0.00  0.00    +0.000 C 
BRANCH   8   9
ATOM      9  C   UNL     1      54.470  -0.836  10.080  0.00  0.00    +0.000 C 
ATOM     10  C   UNL     1      55.498  -0.173  10.943  0.00  0.00    +0.000 C 
ATOM     11  C   UNL     1      54.757  -2.105   9.520  0.00  0.00    +0.000 C 
ATOM     12  C   UNL     1      54.855  -3.242   8.902  0.00  0.00    +0.000 C 
BRANCH  12  13
ATOM     13  C   UNL     1      53.824  -3.524   7.966  0.00  0.00    +0.000 C 
ATOM     14  C   UNL     1      52.950  -3.627   7.150  0.00  0.00    +0.000 C 
BRANCH  14  15
ATOM     15  C   UNL     1      51.931  -3.613   6.162  0.00  0.00    +0.000 A 
ATOM     16  O   UNL     1      52.236  -4.286   4.904  0.00  0.00    +0.000 OA
ATOM     17  C   UNL     1      51.310  -4.373   3.867  0.00  0.00    +0.000 A 
ATOM     18  O   UNL     1      51.502  -4.955   2.811  0.00  0.00    +0.000 OA
ATOM     19  C   UNL     1      50.081  -3.713   4.196  0.00  0.00    +0.000 A 
ATOM     20  C   UNL     1      49.787  -3.145   5.204  0.00  0.00    +0.000 A 
ATOM     21  C   UNL     1      50.614  -2.990   6.339  0.00  0.00    +0.000 A 
ATOM     22  C   UNL     1      50.118  -2.297   7.568  0.00  0.00    +0.000 C 
ENDBRANCH  14  15
ENDBRANCH  12  13
BRANCH  12  23
ATOM     23  C   UNL     1      55.958  -4.088   9.178  0.00  0.00    +0.000 C 
ATOM     24  C   UNL     1      57.152  -5.005   9.469  0.00  0.00    +0.000 C 
ENDBRANCH  12  23
ENDBRANCH   8   9
ENDBRANCH   7   8
ENDBRANCH   2   6
BRANCH   4  25
ATOM     25  C   UNL     1      50.528   5.103  10.293  0.00  0.00    +0.000 C 
ATOM     26  O   UNL     1      50.604   6.255   9.855  0.00  0.00    +0.000 OA
BRANCH  25  27
ATOM     27  C   UNL     1      51.687   4.481  11.002  0.00  0.00    +0.000 C 
ATOM     28  C   UNL     1      51.510   3.966  12.428  0.00  0.00    +0.000 C 
BRANCH  27  29
ATOM     29  C   UNL     1      53.021   4.644  10.434  0.00  0.00    +0.000 C 
BRANCH  29  30
ATOM     30  C   UNL     1      53.590   4.008   9.259  0.00  0.00    +0.000 C 
ATOM     31  C   UNL     1      54.913   3.279   9.349  0.00  0.00    +0.000 C 
ATOM     32  C   UNL     1      52.900   3.864   8.033  0.00  0.00    +0.000 C 
ATOM     33  C   UNL     1      52.270   3.702   6.781  0.00  0.00    +0.000 C 
ATOM     34  C   UNL     1      51.473   4.840   6.223  0.00  0.00    +0.000 C 
ATOM     35  C   UNL     1      52.284   2.558   6.189  0.00  0.00    +0.000 C 
ATOM     36  C   UNL     1      52.298   1.283   5.560  0.00  0.00    +0.000 C 
ATOM     37  O   UNL     1      51.825   0.287   6.075  0.00  0.00    +0.000 OA
BRANCH  36  38
ATOM     38  O   UNL     1      52.896   1.270   4.359  0.00  0.00    +0.000 OA
ATOM     39  H   UNL     1      53.761   1.704   4.512  0.00  0.00    +0.000 HD
ENDBRANCH  36  38
ENDBRANCH  29  30
BRANCH  29  40
ATOM     40  O   UNL     1      53.848   5.563  11.086  0.00  0.00    +0.000 OA
ATOM     41  H   UNL     1      54.267   6.188  10.459  0.00  0.00    +0.000 HD
ENDBRANCH  29  40
ENDBRANCH  27  29
ENDBRANCH  25  27
ENDBRANCH   4  25
TORSDOF 12
ENDMDL
MODEL 6
REMARK VINA RESULT:      -5.4      2.635      8.439
REMARK  Name = Leptomycin.pdbqt.pdb
REMARK  12 active torsions:
REMARK  status: ('A' for Active; 'I' for Inactive)
REMARK    1  A    between atoms: C_2  and  C_4
REMARK    2  A    between atoms: C_5  and  C_6
REMARK    3  A    between atoms: C_6  and  C_7
REMARK    4  A    between atoms: C_10  and  C_11
REMARK    5  A    between atoms: C_10  and  C_21
REMARK    6  A    between atoms: C_12  and  C_13
REMARK    7  A    between atoms: C_23  and  C_25
REMARK    8  A    between atoms: C_25  and  C_27
REMARK    9  A    between atoms: C_27  and  C_29
REMARK   10  A    between atoms: C_29  and  O_30
REMARK   11  A    between atoms: C_29  and  C_32
REMARK   12  A    between atoms: C_38  and  O_40
REMARK                            x       y       z     vdW  Elec       q    Type
REMARK                         _______ _______ _______ _____ _____    ______ ____
ROOT
ATOM      1  C   UNL     1      51.641   5.039   6.185  0.00  0.00    +0.000 C 
ATOM      2  C   UNL     1      51.546   3.975   5.457  0.00  0.00    +0.000 C 
ATOM      3  C   UNL     1      52.218   3.956   4.115  0.00  0.00    +0.000 C 
ATOM      4  C   UNL     1      51.755   6.161   7.045  0.00  0.00    +0.000 C 
ATOM      5  C   UNL     1      50.802   7.307   6.743  0.00  0.00    +0.000 C 
ENDROOT
BRANCH   2   6
ATOM      6  C   UNL     1      51.265   2.738   6.091  0.00  0.00    +0.000 C 
ATOM      7  C   UNL     1      50.977   1.682   6.586  0.00  0.00    +0.000 C 
BRANCH   7   8
ATOM      8  C   UNL     1      50.515   0.329   7.135  0.00  0.00    +0.000 C 
BRANCH   8   9
ATOM      9  C   UNL     1      50.107  -0.989   7.454  0.00  0.00    +0.000 C 
ATOM     10  C   UNL     1      49.509  -1.273   8.796  0.00  0.00    +0.000 C 
ATOM     11  C   UNL     1      50.355  -2.068   6.570  0.00  0.00    +0.000 C 
ATOM     12  C   UNL     1      50.678  -2.924   5.649  0.00  0.00    +0.000 C 
BRANCH  12  13
ATOM     13  C   UNL     1      51.442  -2.407   4.568  0.00  0.00    +0.000 C 
ATOM     14  C   UNL     1      51.989  -2.020   3.572  0.00  0.00    +0.000 C 
BRANCH  14  15
ATOM     15  C   UNL     1      52.527  -1.610   2.325  0.00  0.00    +0.000 A 
ATOM     16  O   UNL     1      52.144  -2.401   1.160  0.00  0.00    +0.000 OA
ATOM     17  C   UNL     1      52.576  -2.084  -0.125  0.00  0.00    +0.000 A 
ATOM     18  O   UNL     1      52.255  -2.691  -1.136  0.00  0.00    +0.000 OA
ATOM     19  C   UNL     1      53.433  -0.935  -0.129  0.00  0.00    +0.000 A 
ATOM     20  C   UNL     1      53.780  -0.261   0.793  0.00  0.00    +0.000 A 
ATOM     21  C   UNL     1      53.412  -0.454   2.144  0.00  0.00    +0.000 A 
ATOM     22  C   UNL     1      53.873   0.487   3.212  0.00  0.00    +0.000 C 
ENDBRANCH  14  15
ENDBRANCH  12  13
BRANCH  12  23
ATOM     23  C   UNL     1      50.280  -4.277   5.791  0.00  0.00    +0.000 C 
ATOM     24  C   UNL     1      49.846  -5.739   5.951  0.00  0.00    +0.000 C 
ENDBRANCH  12  23
ENDBRANCH   8   9
ENDBRANCH   7   8
ENDBRANCH   2   6
BRANCH   4  25
ATOM     25  C   UNL     1      52.321   5.969   8.416  0.00  0.00    +0.000 C 
ATOM     26  O   UNL     1      53.525   6.102   8.658  0.00  0.00    +0.000 OA
BRANCH  25  27
ATOM     27  C   UNL     1      51.372   5.547   9.490  0.00  0.00    +0.000 C 
ATOM     28  C   UNL     1      51.080   6.493  10.653  0.00  0.00    +0.000 C 
BRANCH  27  29
ATOM     29  C   UNL     1      50.977   4.144   9.560  0.00  0.00    +0.000 C 
BRANCH  29  30
ATOM     30  C   UNL     1      51.708   3.026  10.131  0.00  0.00    +0.000 C 
ATOM     31  C   UNL     1      53.199   2.893   9.908  0.00  0.00    +0.000 C 
ATOM     32  C   UNL     1      51.148   2.111  11.053  0.00  0.00    +0.000 C 
ATOM     33  C   UNL     1      50.644   1.159  11.963  0.00  0.00    +0.000 C 
ATOM     34  C   UNL     1      49.265   0.615  11.748  0.00  0.00    +0.000 C 
ATOM     35  C   UNL     1      51.311   0.854  13.022  0.00  0.00    +0.000 C 
ATOM     36  C   UNL     1      52.056   0.545  14.193  0.00  0.00    +0.000 C 
ATOM     37  O   UNL     1      52.354   1.380  15.027  0.00  0.00    +0.000 OA
BRANCH  36  38
ATOM     38  O   UNL     1      52.420  -0.743  14.287  0.00  0.00    +0.000 OA
ATOM     39  H   UNL     1      51.645  -1.188  14.688  0.00  0.00    +0.000 HD
ENDBRANCH  36  38
ENDBRANCH  29  30
BRANCH  29  40
ATOM     40  O   UNL     1      49.715   3.843   9.044  0.00  0.00    +0.000 OA
ATOM     41  H   UNL     1      49.036   4.483   9.341  0.00  0.00    +0.000 HD
ENDBRANCH  29  40
ENDBRANCH  27  29
ENDBRANCH  25  27
ENDBRANCH   4  25
TORSDOF 12
ENDMDL
MODEL 7
REMARK VINA RESULT:      -5.3      2.977      7.910
REMARK  Name = Leptomycin.pdbqt.pdb
REMARK  12 active torsions:
REMARK  status: ('A' for Active; 'I' for Inactive)
REMARK    1  A    between atoms: C_2  and  C_4
REMARK    2  A    between atoms: C_5  and  C_6
REMARK    3  A    between atoms: C_6  and  C_7
REMARK    4  A    between atoms: C_10  and  C_11
REMARK    5  A    between atoms: C_10  and  C_21
REMARK    6  A    between atoms: C_12  and  C_13
REMARK    7  A    between atoms: C_23  and  C_25
REMARK    8  A    between atoms: C_25  and  C_27
REMARK    9  A    between atoms: C_27  and  C_29
REMARK   10  A    between atoms: C_29  and  O_30
REMARK   11  A    between atoms: C_29  and  C_32
REMARK   12  A    between atoms: C_38  and  O_40
REMARK                            x       y       z     vdW  Elec       q    Type
REMARK                         _______ _______ _______ _____ _____    ______ ____
ROOT
ATOM      1  C   UNL     1      50.943   2.404   8.882  0.00  0.00    +0.000 C 
ATOM      2  C   UNL     1      50.023   1.522   8.659  0.00  0.00    +0.000 C 
ATOM      3  C   UNL     1      48.620   1.816   9.104  0.00  0.00    +0.000 C 
ATOM      4  C   UNL     1      51.980   3.354   9.057  0.00  0.00    +0.000 C 
ATOM      5  C   UNL     1      52.607   3.380  10.442  0.00  0.00    +0.000 C 
ENDROOT
BRANCH   2   6
ATOM      6  C   UNL     1      50.220   0.579   7.620  0.00  0.00    +0.000 C 
ATOM      7  C   UNL     1      50.342  -0.189   6.704  0.00  0.00    +0.000 C 
BRANCH   7   8
ATOM      8  C   UNL     1      50.406  -1.104   5.478  0.00  0.00    +0.000 C 
BRANCH   8   9
ATOM      9  C   UNL     1      50.587  -1.811   4.263  0.00  0.00    +0.000 C 
ATOM     10  C   UNL     1      50.160  -3.243   4.172  0.00  0.00    +0.000 C 
ATOM     11  C   UNL     1      51.264  -1.224   3.166  0.00  0.00    +0.000 C 
ATOM     12  C   UNL     1      51.916  -0.533   2.282  0.00  0.00    +0.000 C 
BRANCH  12  13
ATOM     13  C   UNL     1      52.395   0.731   2.719  0.00  0.00    +0.000 C 
ATOM     14  C   UNL     1      52.914   1.771   3.020  0.00  0.00    +0.000 C 
BRANCH  14  15
ATOM     15  C   UNL     1      53.634   2.962   3.295  0.00  0.00    +0.000 A 
ATOM     16  O   UNL     1      52.854   4.097   3.779  0.00  0.00    +0.000 OA
ATOM     17  C   UNL     1      53.445   5.311   4.117  0.00  0.00    +0.000 A 
ATOM     18  O   UNL     1      52.843   6.278   4.559  0.00  0.00    +0.000 OA
ATOM     19  C   UNL     1      54.862   5.289   3.905  0.00  0.00    +0.000 A 
ATOM     20  C   UNL     1      55.543   4.393   3.507  0.00  0.00    +0.000 A 
ATOM     21  C   UNL     1      55.086   3.107   3.141  0.00  0.00    +0.000 A 
ATOM     22  C   UNL     1      56.042   2.045   2.700  0.00  0.00    +0.000 C 
ENDBRANCH  14  15
ENDBRANCH  12  13
BRANCH  12  23
ATOM     23  C   UNL     1      52.119  -1.078   0.989  0.00  0.00    +0.000 C 
ATOM     24  C   UNL     1      52.345  -1.672  -0.406  0.00  0.00    +0.000 C 
ENDBRANCH  12  23
ENDBRANCH   8   9
ENDBRANCH   7   8
ENDBRANCH   2   6
BRANCH   4  25
ATOM     25  C   UNL     1      52.738   3.831   7.858  0.00  0.00    +0.000 C 
ATOM     26  O   UNL     1      53.123   3.061   6.972  0.00  0.00    +0.000 OA
BRANCH  25  27
ATOM     27  C   UNL     1      53.068   5.287   7.797  0.00  0.00    +0.000 C 
ATOM     28  C   UNL     1      54.528   5.730   7.830  0.00  0.00    +0.000 C 
BRANCH  27  29
ATOM     29  C   UNL     1      51.995   6.254   8.005  0.00  0.00    +0.000 C 
BRANCH  29  30
ATOM     30  C   UNL     1      51.857   7.240   9.062  0.00  0.00    +0.000 C 
ATOM     31  C   UNL     1      50.997   8.468   8.855  0.00  0.00    +0.000 C 
ATOM     32  C   UNL     1      52.343   7.055  10.377  0.00  0.00    +0.000 C 
ATOM     33  C   UNL     1      52.816   6.935  11.700  0.00  0.00    +0.000 C 
ATOM     34  C   UNL     1      54.176   6.350  11.930  0.00  0.00    +0.000 C 
ATOM     35  C   UNL     1      52.046   7.214  12.695  0.00  0.00    +0.000 C 
ATOM     36  C   UNL     1      51.173   7.511  13.778  0.00  0.00    +0.000 C 
ATOM     37  O   UNL     1      50.123   6.925  13.960  0.00  0.00    +0.000 OA
BRANCH  36  38
ATOM     38  O   UNL     1      51.601   8.508  14.567  0.00  0.00    +0.000 OA
ATOM     39  H   UNL     1      51.240   8.293  15.452  0.00  0.00    +0.000 HD
ENDBRANCH  36  38
ENDBRANCH  29  30
BRANCH  29  40
ATOM     40  O   UNL     1      50.987   6.257   7.038  0.00  0.00    +0.000 OA
ATOM     41  H   UNL     1      50.960   5.418   6.534  0.00  0.00    +0.000 HD
ENDBRANCH  29  40
ENDBRANCH  27  29
ENDBRANCH  25  27
ENDBRANCH   4  25
TORSDOF 12
ENDMDL
MODEL 8
REMARK VINA RESULT:      -5.2      2.456      8.104
REMARK  Name = Leptomycin.pdbqt.pdb
REMARK  12 active torsions:
REMARK  status: ('A' for Active; 'I' for Inactive)
REMARK    1  A    between atoms: C_2  and  C_4
REMARK    2  A    between atoms: C_5  and  C_6
REMARK    3  A    between atoms: C_6  and  C_7
REMARK    4  A    between atoms: C_10  and  C_11
REMARK    5  A    between atoms: C_10  and  C_21
REMARK    6  A    between atoms: C_12  and  C_13
REMARK    7  A    between atoms: C_23  and  C_25
REMARK    8  A    between atoms: C_25  and  C_27
REMARK    9  A    between atoms: C_27  and  C_29
REMARK   10  A    between atoms: C_29  and  O_30
REMARK   11  A    between atoms: C_29  and  C_32
REMARK   12  A    between atoms: C_38  and  O_40
REMARK                            x       y       z     vdW  Elec       q    Type
REMARK                         _______ _______ _______ _____ _____    ______ ____
ROOT
ATOM      1  C   UNL     1      52.377   5.925   5.891  0.00  0.00    +0.000 C 
ATOM      2  C   UNL     1      53.050   5.007   5.276  0.00  0.00    +0.000 C 
ATOM      3  C   UNL     1      53.466   5.248   3.854  0.00  0.00    +0.000 C 
ATOM      4  C   UNL     1      51.681   6.917   6.627  0.00  0.00    +0.000 C 
ATOM      5  C   UNL     1      50.182   6.974   6.379  0.00  0.00    +0.000 C 
ENDROOT
BRANCH   2   6
ATOM      6  C   UNL     1      53.780   4.067   6.045  0.00  0.00    +0.000 C 
ATOM      7  C   UNL     1      54.359   3.223   6.675  0.00  0.00    +0.000 C 
BRANCH   7   8
ATOM      8  C   UNL     1      55.012   2.065   7.434  0.00  0.00    +0.000 C 
BRANCH   8   9
ATOM      9  C   UNL     1      55.557   1.089   8.304  0.00  0.00    +0.000 C 
ATOM     10  C   UNL     1      56.841   1.372   9.020  0.00  0.00    +0.000 C 
ATOM     11  C   UNL     1      54.970  -0.194   8.427  0.00  0.00    +0.000 C 
ATOM     12  C   UNL     1      54.308  -1.311   8.398  0.00  0.00    +0.000 C 
BRANCH  12  13
ATOM     13  C   UNL     1      53.247  -1.372   7.455  0.00  0.00    +0.000 C 
ATOM     14  C   UNL     1      52.442  -1.384   6.563  0.00  0.00    +0.000 C 
BRANCH  14  15
ATOM     15  C   UNL     1      51.596  -1.367   5.425  0.00  0.00    +0.000 A 
ATOM     16  O   UNL     1      51.111  -2.660   4.956  0.00  0.00    +0.000 OA
ATOM     17  C   UNL     1      50.247  -2.778   3.870  0.00  0.00    +0.000 A 
ATOM     18  O   UNL     1      49.784  -3.832   3.461  0.00  0.00    +0.000 OA
ATOM     19  C   UNL     1      49.940  -1.502   3.295  0.00  0.00    +0.000 A 
ATOM     20  C   UNL     1      50.315  -0.421   3.636  0.00  0.00    +0.000 A 
ATOM     21  C   UNL     1      51.178  -0.148   4.722  0.00  0.00    +0.000 A 
ATOM     22  C   UNL     1      51.542   1.256   5.086  0.00  0.00    +0.000 C 
ENDBRANCH  14  15
ENDBRANCH  12  13
BRANCH  12  23
ATOM     23  C   UNL     1      54.690  -2.365   9.264  0.00  0.00    +0.000 C 
ATOM     24  C   UNL     1      55.103  -3.511  10.196  0.00  0.00    +0.000 C 
ENDBRANCH  12  23
ENDBRANCH   8   9
ENDBRANCH   7   8
ENDBRANCH   2   6
BRANCH   4  25
ATOM     25  C   UNL     1      52.271   7.416   7.908  0.00  0.00    +0.000 C 
ATOM     26  O   UNL     1      53.246   8.173   7.935  0.00  0.00    +0.000 OA
BRANCH  25  27
ATOM     27  C   UNL     1      51.665   6.910   9.177  0.00  0.00    +0.000 C 
ATOM     28  C   UNL     1      51.437   7.874  10.340  0.00  0.00    +0.000 C 
BRANCH  27  29
ATOM     29  C   UNL     1      51.579   5.468   9.383  0.00  0.00    +0.000 C 
BRANCH  29  30
ATOM     30  C   UNL     1      52.650   4.529   9.668  0.00  0.00    +0.000 C 
ATOM     31  C   UNL     1      54.060   5.026   9.907  0.00  0.00    +0.000 C 
ATOM     32  C   UNL     1      52.442   3.153   9.918  0.00  0.00    +0.000 C 
ATOM     33  C   UNL     1      52.300   1.771  10.161  0.00  0.00    +0.000 C 
ATOM     34  C   UNL     1      51.348   0.984   9.314  0.00  0.00    +0.000 C 
ATOM     35  C   UNL     1      52.890   1.223  11.167  0.00  0.00    +0.000 C 
ATOM     36  C   UNL     1      53.537   0.642  12.292  0.00  0.00    +0.000 C 
ATOM     37  O   UNL     1      53.321   1.000  13.435  0.00  0.00    +0.000 OA
BRANCH  36  38
ATOM     38  O   UNL     1      54.420  -0.319  11.981  0.00  0.00    +0.000 OA
ATOM     39  H   UNL     1      54.080  -1.119  12.431  0.00  0.00    +0.000 HD
ENDBRANCH  36  38
ENDBRANCH  29  30
BRANCH  29  40
ATOM     40  O   UNL     1      50.293   4.925   9.338  0.00  0.00    +0.000 OA
ATOM     41  H   UNL     1      50.102   4.509   8.472  0.00  0.00    +0.000 HD
ENDBRANCH  29  40
ENDBRANCH  27  29
ENDBRANCH  25  27
ENDBRANCH   4  25
TORSDOF 12
ENDMDL
MODEL 9
REMARK VINA RESULT:      -5.1     19.863     22.819
REMARK  Name = Leptomycin.pdbqt.pdb
REMARK  12 active torsions:
REMARK  status: ('A' for Active; 'I' for Inactive)
REMARK    1  A    between atoms: C_2  and  C_4
REMARK    2  A    between atoms: C_5  and  C_6
REMARK    3  A    between atoms: C_6  and  C_7
REMARK    4  A    between atoms: C_10  and  C_11
REMARK    5  A    between atoms: C_10  and  C_21
REMARK    6  A    between atoms: C_12  and  C_13
REMARK    7  A    between atoms: C_23  and  C_25
REMARK    8  A    between atoms: C_25  and  C_27
REMARK    9  A    between atoms: C_27  and  C_29
REMARK   10  A    between atoms: C_29  and  O_30
REMARK   11  A    between atoms: C_29  and  C_32
REMARK   12  A    between atoms: C_38  and  O_40
REMARK                            x       y       z     vdW  Elec       q    Type
REMARK                         _______ _______ _______ _____ _____    ______ ____
ROOT
ATOM      1  C   UNL     1      36.696   4.955  -9.703  0.00  0.00    +0.000 C 
ATOM      2  C   UNL     1      37.157   4.964 -10.911  0.00  0.00    +0.000 C 
ATOM      3  C   UNL     1      37.276   6.278 -11.628  0.00  0.00    +0.000 C 
ATOM      4  C   UNL     1      36.244   4.893  -8.361  0.00  0.00    +0.000 C 
ATOM      5  C   UNL     1      34.735   4.931  -8.184  0.00  0.00    +0.000 C 
ENDROOT
BRANCH   2   6
ATOM      6  C   UNL     1      37.967   3.883 -11.341  0.00  0.00    +0.000 C 
ATOM      7  C   UNL     1      38.656   2.994 -11.764  0.00  0.00    +0.000 C 
BRANCH   7   8
ATOM      8  C   UNL     1      39.530   1.919 -12.415  0.00  0.00    +0.000 C 
BRANCH   8   9
ATOM      9  C   UNL     1      40.491   1.054 -12.993  0.00  0.00    +0.000 C 
ATOM     10  C   UNL     1      40.063  -0.282 -13.515  0.00  0.00    +0.000 C 
ATOM     11  C   UNL     1      41.869   1.379 -12.987  0.00  0.00    +0.000 C 
ATOM     12  C   UNL     1      43.080   1.836 -12.876  0.00  0.00    +0.000 C 
BRANCH  12  13
ATOM     13  C   UNL     1      43.217   3.040 -12.133  0.00  0.00    +0.000 C 
ATOM     14  C   UNL     1      43.195   4.061 -11.501  0.00  0.00    +0.000 C 
BRANCH  14  15
ATOM     15  C   UNL     1      43.032   5.253 -10.750  0.00  0.00    +0.000 A 
ATOM     16  O   UNL     1      44.001   5.487  -9.684  0.00  0.00    +0.000 OA
ATOM     17  C   UNL     1      43.972   6.634  -8.895  0.00  0.00    +0.000 A 
ATOM     18  O   UNL     1      44.779   6.895  -8.016  0.00  0.00    +0.000 OA
ATOM     19  C   UNL     1      42.886   7.497  -9.255  0.00  0.00    +0.000 A 
ATOM     20  C   UNL     1      42.067   7.349 -10.110  0.00  0.00    +0.000 A 
ATOM     21  C   UNL     1      41.980   6.247 -10.991  0.00  0.00    +0.000 A 
ATOM     22  C   UNL     1      40.935   6.192 -12.059  0.00  0.00    +0.000 C 
ENDBRANCH  14  15
ENDBRANCH  12  13
BRANCH  12  23
ATOM     23  C   UNL     1      44.148   1.116 -13.464  0.00  0.00    +0.000 C 
ATOM     24  C   UNL     1      45.307   0.343 -14.105  0.00  0.00    +0.000 C 
ENDBRANCH  12  23
ENDBRANCH   8   9
ENDBRANCH   7   8
ENDBRANCH   2   6
BRANCH   4  25
ATOM     25  C   UNL     1      37.127   4.268  -7.327  0.00  0.00    +0.000 C 
ATOM     26  O   UNL     1      37.677   4.930  -6.441  0.00  0.00    +0.000 OA
BRANCH  25  27
ATOM     27  C   UNL     1      37.371   2.798  -7.441  0.00  0.00    +0.000 C 
ATOM     28  C   UNL     1      36.189   1.832  -7.400  0.00  0.00    +0.000 C 
BRANCH  27  29
ATOM     29  C   UNL     1      38.736   2.304  -7.291  0.00  0.00    +0.000 C 
BRANCH  29  30
ATOM     30  C   UNL     1      39.764   2.162  -8.307  0.00  0.00    +0.000 C 
ATOM     31  C   UNL     1      40.656   3.332  -8.662  0.00  0.00    +0.000 C 
ATOM     32  C   UNL     1      40.124   0.926  -8.893  0.00  0.00    +0.000 C 
ATOM     33  C   UNL     1      40.517  -0.273  -9.523  0.00  0.00    +0.000 C 
ATOM     34  C   UNL     1      39.461  -1.248  -9.943  0.00  0.00    +0.000 C 
ATOM     35  C   UNL     1      41.766  -0.573  -9.628  0.00  0.00    +0.000 C 
ATOM     36  C   UNL     1      43.149  -0.893  -9.718  0.00  0.00    +0.000 C 
ATOM     37  O   UNL     1      43.863  -1.017  -8.741  0.00  0.00    +0.000 OA
BRANCH  36  38
ATOM     38  O   UNL     1      43.599  -1.025 -10.975  0.00  0.00    +0.000 OA
ATOM     39  H   UNL     1      43.043  -0.414 -11.501  0.00  0.00    +0.000 HD
ENDBRANCH  36  38
ENDBRANCH  29  30
BRANCH  29  40
ATOM     40  O   UNL     1      39.116   1.957  -5.993  0.00  0.00    +0.000 OA
ATOM     41  H   UNL     1      38.768   2.587  -5.329  0.00  0.00    +0.000 HD
ENDBRANCH  29  40
ENDBRANCH  27  29
ENDBRANCH  25  27
ENDBRANCH   4  25
TORSDOF 12
ENDMDL
