MODEL 1
REMARK VINA RESULT:      -7.6      0.000      0.000
REMARK  Name = Lobelin.pdbqt.pdb
REMARK  3 active torsions:
REMARK  status: ('A' for Active; 'I' for Inactive)
REMARK    1  A    between atoms: C_9  and  O_10
REMARK    2  A    between atoms: C_9  and  C_12
REMARK    3  A    between atoms: C_19  and  C_21
REMARK                            x       y       z     vdW  Elec       q    Type
REMARK                         _______ _______ _______ _____ _____    ______ ____
ROOT
ATOM      1  N   UNL     1      34.295  15.131  20.877  0.00  0.00    +0.000 N 
ATOM      2  C   UNL     1      33.291  14.387  21.630  0.00  0.00    +0.000 C 
ATOM      3  C   UNL     1      35.716  14.894  21.118  0.00  0.00    +0.000 C 
ATOM      4  C   UNL     1      33.820  13.425  22.545  0.00  0.00    +0.000 C 
ATOM      5  C   UNL     1      35.998  13.882  22.086  0.00  0.00    +0.000 C 
ATOM      6  C   UNL     1      35.196  12.957  22.981  0.00  0.00    +0.000 C 
ATOM      7  C   UNL     1      33.889  16.192  19.982  0.00  0.00    +0.000 C 
ATOM      8  C   UNL     1      31.896  14.594  21.458  0.00  0.00    +0.000 C 
ATOM      9  C   UNL     1      30.504  14.788  21.261  0.00  0.00    +0.000 C 
ATOM     10  C   UNL     1      36.731  15.608  20.432  0.00  0.00    +0.000 C 
ATOM     11  C   UNL     1      37.761  16.309  19.712  0.00  0.00    +0.000 C 
ATOM     12  O   UNL     1      38.634  15.669  19.145  0.00  0.00    +0.000 OA
ENDROOT
BRANCH   9  13
ATOM     13  C   UNL     1      29.806  14.527  20.002  0.00  0.00    +0.000 A 
ATOM     14  C   UNL     1      29.244  13.274  19.742  0.00  0.00    +0.000 A 
ATOM     15  C   UNL     1      28.578  13.024  18.543  0.00  0.00    +0.000 A 
ATOM     16  C   UNL     1      28.467  14.029  17.588  0.00  0.00    +0.000 A 
ATOM     17  C   UNL     1      29.022  15.282  17.831  0.00  0.00    +0.000 A 
ATOM     18  C   UNL     1      29.687  15.526  19.031  0.00  0.00    +0.000 A 
ENDBRANCH   9  13
BRANCH  11  19
ATOM     19  C   UNL     1      37.730  17.782  19.696  0.00  0.00    +0.000 A 
ATOM     20  C   UNL     1      36.633  18.488  20.191  0.00  0.00    +0.000 A 
ATOM     21  C   UNL     1      36.636  19.880  20.169  0.00  0.00    +0.000 A 
ATOM     22  C   UNL     1      37.734  20.566  19.653  0.00  0.00    +0.000 A 
ATOM     23  C   UNL     1      38.831  19.860  19.161  0.00  0.00    +0.000 A 
ATOM     24  C   UNL     1      38.830  18.468  19.183  0.00  0.00    +0.000 A 
ENDBRANCH  11  19
BRANCH   9  25
ATOM     25  O   UNL     1      29.741  15.246  22.312  0.00  0.00    +0.000 OA
ATOM     26  H   UNL     1      30.142  16.020  22.741  0.00  0.00    +0.000 HD
ENDBRANCH   9  25
TORSDOF 3
ENDMDL
MODEL 2
REMARK VINA RESULT:      -7.4      3.359      8.154
REMARK  Name = Lobelin.pdbqt.pdb
REMARK  3 active torsions:
REMARK  status: ('A' for Active; 'I' for Inactive)
REMARK    1  A    between atoms: C_9  and  O_10
REMARK    2  A    between atoms: C_9  and  C_12
REMARK    3  A    between atoms: C_19  and  C_21
REMARK                            x       y       z     vdW  Elec       q    Type
REMARK                         _______ _______ _______ _____ _____    ______ ____
ROOT
ATOM      1  N   UNL     1      34.600  13.204  21.981  0.00  0.00    +0.000 N 
ATOM      2  C   UNL     1      33.969  14.484  21.679  0.00  0.00    +0.000 C 
ATOM      3  C   UNL     1      33.805  11.979  21.985  0.00  0.00    +0.000 C 
ATOM      4  C   UNL     1      32.578  14.407  21.363  0.00  0.00    +0.000 C 
ATOM      5  C   UNL     1      32.431  12.156  21.639  0.00  0.00    +0.000 C 
ATOM      6  C   UNL     1      31.527  13.316  21.267  0.00  0.00    +0.000 C 
ATOM      7  C   UNL     1      35.983  13.161  22.400  0.00  0.00    +0.000 C 
ATOM      8  C   UNL     1      34.685  15.712  21.687  0.00  0.00    +0.000 C 
ATOM      9  C   UNL     1      35.413  16.930  21.672  0.00  0.00    +0.000 C 
ATOM     10  C   UNL     1      34.364  10.713  22.297  0.00  0.00    +0.000 C 
ATOM     11  C   UNL     1      34.939   9.425  22.581  0.00  0.00    +0.000 C 
ATOM     12  O   UNL     1      34.768   8.508  21.790  0.00  0.00    +0.000 OA
ENDROOT
BRANCH   9  13
ATOM     13  C   UNL     1      36.518  17.218  20.757  0.00  0.00    +0.000 A 
ATOM     14  C   UNL     1      36.695  18.500  20.229  0.00  0.00    +0.000 A 
ATOM     15  C   UNL     1      37.747  18.775  19.358  0.00  0.00    +0.000 A 
ATOM     16  C   UNL     1      38.638  17.766  19.004  0.00  0.00    +0.000 A 
ATOM     17  C   UNL     1      38.475  16.484  19.520  0.00  0.00    +0.000 A 
ATOM     18  C   UNL     1      37.421  16.215  20.391  0.00  0.00    +0.000 A 
ENDBRANCH   9  13
BRANCH  11  19
ATOM     19  C   UNL     1      35.705   9.256  23.828  0.00  0.00    +0.000 A 
ATOM     20  C   UNL     1      35.866  10.310  24.726  0.00  0.00    +0.000 A 
ATOM     21  C   UNL     1      36.590  10.117  25.900  0.00  0.00    +0.000 A 
ATOM     22  C   UNL     1      37.151   8.872  26.175  0.00  0.00    +0.000 A 
ATOM     23  C   UNL     1      36.987   7.818  25.279  0.00  0.00    +0.000 A 
ATOM     24  C   UNL     1      36.263   8.008  24.105  0.00  0.00    +0.000 A 
ENDBRANCH  11  19
BRANCH   9  25
ATOM     25  O   UNL     1      35.070  17.921  22.563  0.00  0.00    +0.000 OA
ATOM     26  H   UNL     1      34.106  18.015  22.648  0.00  0.00    +0.000 HD
ENDBRANCH   9  25
TORSDOF 3
ENDMDL
MODEL 3
REMARK VINA RESULT:      -7.0     23.442     26.282
REMARK  Name = Lobelin.pdbqt.pdb
REMARK  3 active torsions:
REMARK  status: ('A' for Active; 'I' for Inactive)
REMARK    1  A    between atoms: C_9  and  O_10
REMARK    2  A    between atoms: C_9  and  C_12
REMARK    3  A    between atoms: C_19  and  C_21
REMARK                            x       y       z     vdW  Elec       q    Type
REMARK                         _______ _______ _______ _____ _____    ______ ____
ROOT
ATOM      1  N   UNL     1      52.302   5.212   5.296  0.00  0.00    +0.000 N 
ATOM      2  C   UNL     1      53.121   4.689   4.208  0.00  0.00    +0.000 C 
ATOM      3  C   UNL     1      52.281   6.646   5.572  0.00  0.00    +0.000 C 
ATOM      4  C   UNL     1      53.824   5.680   3.457  0.00  0.00    +0.000 C 
ATOM      5  C   UNL     1      53.071   7.438   4.684  0.00  0.00    +0.000 C 
ATOM      6  C   UNL     1      53.975   7.190   3.492  0.00  0.00    +0.000 C 
ATOM      7  C   UNL     1      51.610   4.303   6.182  0.00  0.00    +0.000 C 
ATOM      8  C   UNL     1      53.202   3.302   3.910  0.00  0.00    +0.000 C 
ATOM      9  C   UNL     1      53.258   1.917   3.603  0.00  0.00    +0.000 C 
ATOM     10  C   UNL     1      51.523   7.203   6.633  0.00  0.00    +0.000 C 
ATOM     11  C   UNL     1      50.727   7.771   7.689  0.00  0.00    +0.000 C 
ATOM     12  O   UNL     1      49.958   8.685   7.430  0.00  0.00    +0.000 OA
ENDROOT
BRANCH   9  13
ATOM     13  C   UNL     1      52.109   1.123   3.168  0.00  0.00    +0.000 A 
ATOM     14  C   UNL     1      51.842   0.934   1.809  0.00  0.00    +0.000 A 
ATOM     15  C   UNL     1      50.747   0.177   1.394  0.00  0.00    +0.000 A 
ATOM     16  C   UNL     1      49.905  -0.401   2.339  0.00  0.00    +0.000 A 
ATOM     17  C   UNL     1      50.156  -0.221   3.695  0.00  0.00    +0.000 A 
ATOM     18  C   UNL     1      51.251   0.537   4.104  0.00  0.00    +0.000 A 
ENDBRANCH   9  13
BRANCH  11  19
ATOM     19  C   UNL     1      50.881   7.235   9.052  0.00  0.00    +0.000 A 
ATOM     20  C   UNL     1      51.448   8.000  10.072  0.00  0.00    +0.000 A 
ATOM     21  C   UNL     1      51.574   7.467  11.352  0.00  0.00    +0.000 A 
ATOM     22  C   UNL     1      51.133   6.172  11.613  0.00  0.00    +0.000 A 
ATOM     23  C   UNL     1      50.563   5.409  10.596  0.00  0.00    +0.000 A 
ATOM     24  C   UNL     1      50.436   5.939   9.315  0.00  0.00    +0.000 A 
ENDBRANCH  11  19
BRANCH   9  25
ATOM     25  O   UNL     1      54.463   1.261   3.707  0.00  0.00    +0.000 OA
ATOM     26  H   UNL     1      55.094   1.745   4.267  0.00  0.00    +0.000 HD
ENDBRANCH   9  25
TORSDOF 3
ENDMDL
MODEL 4
REMARK VINA RESULT:      -6.9     20.989     23.327
REMARK  Name = Lobelin.pdbqt.pdb
REMARK  3 active torsions:
REMARK  status: ('A' for Active; 'I' for Inactive)
REMARK    1  A    between atoms: C_9  and  O_10
REMARK    2  A    between atoms: C_9  and  C_12
REMARK    3  A    between atoms: C_19  and  C_21
REMARK                            x       y       z     vdW  Elec       q    Type
REMARK                         _______ _______ _______ _____ _____    ______ ____
ROOT
ATOM      1  N   UNL     1      51.543   5.571  10.744  0.00  0.00    +0.000 N 
ATOM      2  C   UNL     1      51.435   5.362   9.304  0.00  0.00    +0.000 C 
ATOM      3  C   UNL     1      51.466   6.921  11.296  0.00  0.00    +0.000 C 
ATOM      4  C   UNL     1      51.216   6.550   8.542  0.00  0.00    +0.000 C 
ATOM      5  C   UNL     1      51.245   7.951  10.331  0.00  0.00    +0.000 C 
ATOM      6  C   UNL     1      51.075   8.035   8.827  0.00  0.00    +0.000 C 
ATOM      7  C   UNL     1      51.851   4.458  11.615  0.00  0.00    +0.000 C 
ATOM      8  C   UNL     1      51.529   4.076   8.708  0.00  0.00    +0.000 C 
ATOM      9  C   UNL     1      51.599   2.785   8.122  0.00  0.00    +0.000 C 
ATOM     10  C   UNL     1      51.591   7.181  12.685  0.00  0.00    +0.000 C 
ATOM     11  C   UNL     1      51.684   7.440  14.097  0.00  0.00    +0.000 C 
ATOM     12  O   UNL     1      50.809   8.098  14.642  0.00  0.00    +0.000 OA
ENDROOT
BRANCH   9  13
ATOM     13  C   UNL     1      50.643   1.709   8.386  0.00  0.00    +0.000 A 
ATOM     14  C   UNL     1      50.831   0.435   7.842  0.00  0.00    +0.000 A 
ATOM     15  C   UNL     1      49.921  -0.591   8.092  0.00  0.00    +0.000 A 
ATOM     16  C   UNL     1      48.810  -0.352   8.894  0.00  0.00    +0.000 A 
ATOM     17  C   UNL     1      48.607   0.910   9.443  0.00  0.00    +0.000 A 
ATOM     18  C   UNL     1      49.520   1.933   9.188  0.00  0.00    +0.000 A 
ENDBRANCH   9  13
BRANCH  11  19
ATOM     19  C   UNL     1      52.843   6.910  14.835  0.00  0.00    +0.000 A 
ATOM     20  C   UNL     1      52.765   6.626  16.199  0.00  0.00    +0.000 A 
ATOM     21  C   UNL     1      53.876   6.119  16.867  0.00  0.00    +0.000 A 
ATOM     22  C   UNL     1      55.063   5.895  16.174  0.00  0.00    +0.000 A 
ATOM     23  C   UNL     1      55.140   6.175  14.811  0.00  0.00    +0.000 A 
ATOM     24  C   UNL     1      54.030   6.682  14.140  0.00  0.00    +0.000 A 
ENDBRANCH  11  19
BRANCH   9  25
ATOM     25  O   UNL     1      52.619   2.508   7.241  0.00  0.00    +0.000 OA
ATOM     26  H   UNL     1      52.999   1.626   7.392  0.00  0.00    +0.000 HD
ENDBRANCH   9  25
TORSDOF 3
ENDMDL
MODEL 5
REMARK VINA RESULT:      -6.8      1.827      8.246
REMARK  Name = Lobelin.pdbqt.pdb
REMARK  3 active torsions:
REMARK  status: ('A' for Active; 'I' for Inactive)
REMARK    1  A    between atoms: C_9  and  O_10
REMARK    2  A    between atoms: C_9  and  C_12
REMARK    3  A    between atoms: C_19  and  C_21
REMARK                            x       y       z     vdW  Elec       q    Type
REMARK                         _______ _______ _______ _____ _____    ______ ____
ROOT
ATOM      1  N   UNL     1      34.778  16.978  19.851  0.00  0.00    +0.000 N 
ATOM      2  C   UNL     1      36.229  17.050  19.984  0.00  0.00    +0.000 C 
ATOM      3  C   UNL     1      34.075  15.736  20.162  0.00  0.00    +0.000 C 
ATOM      4  C   UNL     1      36.847  15.855  20.466  0.00  0.00    +0.000 C 
ATOM      5  C   UNL     1      34.912  14.674  20.624  0.00  0.00    +0.000 C 
ATOM      6  C   UNL     1      36.392  14.467  20.879  0.00  0.00    +0.000 C 
ATOM      7  C   UNL     1      34.047  18.093  19.292  0.00  0.00    +0.000 C 
ATOM      8  C   UNL     1      36.970  18.222  19.670  0.00  0.00    +0.000 C 
ATOM      9  C   UNL     1      37.699  19.404  19.379  0.00  0.00    +0.000 C 
ATOM     10  C   UNL     1      32.670  15.605  20.025  0.00  0.00    +0.000 C 
ATOM     11  C   UNL     1      31.240  15.483  19.917  0.00  0.00    +0.000 C 
ATOM     12  O   UNL     1      30.603  15.073  20.876  0.00  0.00    +0.000 OA
ENDROOT
BRANCH   9  13
ATOM     13  C   UNL     1      37.534  20.670  20.094  0.00  0.00    +0.000 A 
ATOM     14  C   UNL     1      36.327  20.984  20.725  0.00  0.00    +0.000 A 
ATOM     15  C   UNL     1      36.169  22.190  21.406  0.00  0.00    +0.000 A 
ATOM     16  C   UNL     1      37.222  23.097  21.465  0.00  0.00    +0.000 A 
ATOM     17  C   UNL     1      38.430  22.800  20.842  0.00  0.00    +0.000 A 
ATOM     18  C   UNL     1      38.581  21.593  20.161  0.00  0.00    +0.000 A 
ENDBRANCH   9  13
BRANCH  11  19
ATOM     19  C   UNL     1      30.597  15.848  18.643  0.00  0.00    +0.000 A 
ATOM     20  C   UNL     1      31.229  16.691  17.729  0.00  0.00    +0.000 A 
ATOM     21  C   UNL     1      30.598  17.012  16.530  0.00  0.00    +0.000 A 
ATOM     22  C   UNL     1      29.339  16.491  16.244  0.00  0.00    +0.000 A 
ATOM     23  C   UNL     1      28.709  15.646  17.156  0.00  0.00    +0.000 A 
ATOM     24  C   UNL     1      29.338  15.323  18.356  0.00  0.00    +0.000 A 
ENDBRANCH  11  19
BRANCH   9  25
ATOM     25  O   UNL     1      38.631  19.379  18.367  0.00  0.00    +0.000 OA
ATOM     26  H   UNL     1      38.814  20.268  18.020  0.00  0.00    +0.000 HD
ENDBRANCH   9  25
TORSDOF 3
ENDMDL
MODEL 6
REMARK VINA RESULT:      -6.8      3.076      5.222
REMARK  Name = Lobelin.pdbqt.pdb
REMARK  3 active torsions:
REMARK  status: ('A' for Active; 'I' for Inactive)
REMARK    1  A    between atoms: C_9  and  O_10
REMARK    2  A    between atoms: C_9  and  C_12
REMARK    3  A    between atoms: C_19  and  C_21
REMARK                            x       y       z     vdW  Elec       q    Type
REMARK                         _______ _______ _______ _____ _____    ______ ____
ROOT
ATOM      1  N   UNL     1      35.729  16.968  20.580  0.00  0.00    +0.000 N 
ATOM      2  C   UNL     1      36.507  15.743  20.733  0.00  0.00    +0.000 C 
ATOM      3  C   UNL     1      36.261  18.081  19.799  0.00  0.00    +0.000 C 
ATOM      4  C   UNL     1      37.756  15.736  20.040  0.00  0.00    +0.000 C 
ATOM      5  C   UNL     1      37.536  17.837  19.202  0.00  0.00    +0.000 C 
ATOM      6  C   UNL     1      38.537  16.699  19.164  0.00  0.00    +0.000 C 
ATOM      7  C   UNL     1      34.487  17.131  21.302  0.00  0.00    +0.000 C 
ATOM      8  C   UNL     1      36.052  14.638  21.503  0.00  0.00    +0.000 C 
ATOM      9  C   UNL     1      35.579  13.530  22.253  0.00  0.00    +0.000 C 
ATOM     10  C   UNL     1      35.557  19.301  19.640  0.00  0.00    +0.000 C 
ATOM     11  C   UNL     1      34.828  20.528  19.452  0.00  0.00    +0.000 C 
ATOM     12  O   UNL     1      34.647  20.946  18.318  0.00  0.00    +0.000 OA
ENDROOT
BRANCH   9  13
ATOM     13  C   UNL     1      34.375  12.766  21.923  0.00  0.00    +0.000 A 
ATOM     14  C   UNL     1      33.139  13.404  21.782  0.00  0.00    +0.000 A 
ATOM     15  C   UNL     1      31.992  12.678  21.468  0.00  0.00    +0.000 A 
ATOM     16  C   UNL     1      32.069  11.300  21.290  0.00  0.00    +0.000 A 
ATOM     17  C   UNL     1      33.292  10.650  21.428  0.00  0.00    +0.000 A 
ATOM     18  C   UNL     1      34.436  11.381  21.743  0.00  0.00    +0.000 A 
ENDBRANCH   9  13
BRANCH  11  19
ATOM     19  C   UNL     1      34.334  21.242  20.642  0.00  0.00    +0.000 A 
ATOM     20  C   UNL     1      33.253  22.121  20.561  0.00  0.00    +0.000 A 
ATOM     21  C   UNL     1      32.805  22.776  21.705  0.00  0.00    +0.000 A 
ATOM     22  C   UNL     1      33.435  22.553  22.928  0.00  0.00    +0.000 A 
ATOM     23  C   UNL     1      34.512  21.672  23.008  0.00  0.00    +0.000 A 
ATOM     24  C   UNL     1      34.962  21.015  21.866  0.00  0.00    +0.000 A 
ENDBRANCH  11  19
BRANCH   9  25
ATOM     25  O   UNL     1      36.287  13.125  23.361  0.00  0.00    +0.000 OA
ATOM     26  H   UNL     1      37.102  12.654  23.119  0.00  0.00    +0.000 HD
ENDBRANCH   9  25
TORSDOF 3
ENDMDL
MODEL 7
REMARK VINA RESULT:      -6.7     17.317     19.968
REMARK  Name = Lobelin.pdbqt.pdb
REMARK  3 active torsions:
REMARK  status: ('A' for Active; 'I' for Inactive)
REMARK    1  A    between atoms: C_9  and  O_10
REMARK    2  A    between atoms: C_9  and  C_12
REMARK    3  A    between atoms: C_19  and  C_21
REMARK                            x       y       z     vdW  Elec       q    Type
REMARK                         _______ _______ _______ _____ _____    ______ ____
ROOT
ATOM      1  N   UNL     1      41.167  -0.682  15.877  0.00  0.00    +0.000 N 
ATOM      2  C   UNL     1      41.773  -1.150  14.634  0.00  0.00    +0.000 C 
ATOM      3  C   UNL     1      40.137   0.352  15.846  0.00  0.00    +0.000 C 
ATOM      4  C   UNL     1      41.246  -0.551  13.449  0.00  0.00    +0.000 C 
ATOM      5  C   UNL     1      39.777   0.799  14.538  0.00  0.00    +0.000 C 
ATOM      6  C   UNL     1      40.198   0.494  13.113  0.00  0.00    +0.000 C 
ATOM      7  C   UNL     1      41.674  -1.149  17.148  0.00  0.00    +0.000 C 
ATOM      8  C   UNL     1      42.798  -2.133  14.605  0.00  0.00    +0.000 C 
ATOM      9  C   UNL     1      43.804  -3.134  14.583  0.00  0.00    +0.000 C 
ATOM     10  C   UNL     1      39.535   0.860  17.025  0.00  0.00    +0.000 C 
ATOM     11  C   UNL     1      38.902   1.350  18.220  0.00  0.00    +0.000 C 
ATOM     12  O   UNL     1      37.681   1.350  18.292  0.00  0.00    +0.000 OA
ENDROOT
BRANCH   9  13
ATOM     13  C   UNL     1      43.609  -4.508  15.047  0.00  0.00    +0.000 A 
ATOM     14  C   UNL     1      44.652  -5.437  14.992  0.00  0.00    +0.000 A 
ATOM     15  C   UNL     1      44.467  -6.746  15.434  0.00  0.00    +0.000 A 
ATOM     16  C   UNL     1      43.232  -7.140  15.939  0.00  0.00    +0.000 A 
ATOM     17  C   UNL     1      42.183  -6.228  15.999  0.00  0.00    +0.000 A 
ATOM     18  C   UNL     1      42.374  -4.921  15.555  0.00  0.00    +0.000 A 
ENDBRANCH   9  13
BRANCH  11  19
ATOM     19  C   UNL     1      39.753   1.849  19.314  0.00  0.00    +0.000 A 
ATOM     20  C   UNL     1      39.507   3.082  19.918  0.00  0.00    +0.000 A 
ATOM     21  C   UNL     1      40.326   3.522  20.955  0.00  0.00    +0.000 A 
ATOM     22  C   UNL     1      41.388   2.732  21.388  0.00  0.00    +0.000 A 
ATOM     23  C   UNL     1      41.632   1.498  20.786  0.00  0.00    +0.000 A 
ATOM     24  C   UNL     1      40.814   1.055  19.750  0.00  0.00    +0.000 A 
ENDBRANCH  11  19
BRANCH   9  25
ATOM     25  O   UNL     1      45.049  -2.815  14.090  0.00  0.00    +0.000 OA
ATOM     26  H   UNL     1      45.643  -2.488  14.787  0.00  0.00    +0.000 HD
ENDBRANCH   9  25
TORSDOF 3
ENDMDL
MODEL 8
REMARK VINA RESULT:      -6.5      3.854      8.096
REMARK  Name = Lobelin.pdbqt.pdb
REMARK  3 active torsions:
REMARK  status: ('A' for Active; 'I' for Inactive)
REMARK    1  A    between atoms: C_9  and  O_10
REMARK    2  A    between atoms: C_9  and  C_12
REMARK    3  A    between atoms: C_19  and  C_21
REMARK                            x       y       z     vdW  Elec       q    Type
REMARK                         _______ _______ _______ _____ _____    ______ ____
ROOT
ATOM      1  N   UNL     1      34.824  12.100  22.578  0.00  0.00    +0.000 N 
ATOM      2  C   UNL     1      33.962  12.876  21.694  0.00  0.00    +0.000 C 
ATOM      3  C   UNL     1      34.540  10.690  22.826  0.00  0.00    +0.000 C 
ATOM      4  C   UNL     1      32.895  12.136  21.097  0.00  0.00    +0.000 C 
ATOM      5  C   UNL     1      33.414  10.172  22.115  0.00  0.00    +0.000 C 
ATOM      6  C   UNL     1      32.380  10.709  21.144  0.00  0.00    +0.000 C 
ATOM      7  C   UNL     1      35.887  12.755  23.309  0.00  0.00    +0.000 C 
ATOM      8  C   UNL     1      34.173  14.258  21.436  0.00  0.00    +0.000 C 
ATOM      9  C   UNL     1      34.406  15.631  21.165  0.00  0.00    +0.000 C 
ATOM     10  C   UNL     1      35.331   9.898  23.696  0.00  0.00    +0.000 C 
ATOM     11  C   UNL     1      36.155   9.086  24.554  0.00  0.00    +0.000 C 
ATOM     12  O   UNL     1      36.602   8.031  24.127  0.00  0.00    +0.000 OA
ENDROOT
BRANCH   9  13
ATOM     13  C   UNL     1      35.606  16.148  20.507  0.00  0.00    +0.000 A 
ATOM     14  C   UNL     1      35.578  17.366  19.822  0.00  0.00    +0.000 A 
ATOM     15  C   UNL     1      36.721  17.860  19.195  0.00  0.00    +0.000 A 
ATOM     16  C   UNL     1      37.909  17.138  19.248  0.00  0.00    +0.000 A 
ATOM     17  C   UNL     1      37.953  15.923  19.925  0.00  0.00    +0.000 A 
ATOM     18  C   UNL     1      36.807  15.434  20.549  0.00  0.00    +0.000 A 
ENDBRANCH   9  13
BRANCH  11  19
ATOM     19  C   UNL     1      36.419   9.555  25.925  0.00  0.00    +0.000 A 
ATOM     20  C   UNL     1      35.949   8.851  27.033  0.00  0.00    +0.000 A 
ATOM     21  C   UNL     1      36.220   9.316  28.317  0.00  0.00    +0.000 A 
ATOM     22  C   UNL     1      36.961  10.482  28.493  0.00  0.00    +0.000 A 
ATOM     23  C   UNL     1      37.434  11.184  27.386  0.00  0.00    +0.000 A 
ATOM     24  C   UNL     1      37.164  10.721  26.101  0.00  0.00    +0.000 A 
ENDBRANCH  11  19
BRANCH   9  25
ATOM     25  O   UNL     1      33.451  16.553  21.530  0.00  0.00    +0.000 OA
ATOM     26  H   UNL     1      32.593  16.134  21.713  0.00  0.00    +0.000 HD
ENDBRANCH   9  25
TORSDOF 3
ENDMDL
MODEL 9
REMARK VINA RESULT:      -6.3     35.039     36.384
REMARK  Name = Lobelin.pdbqt.pdb
REMARK  3 active torsions:
REMARK  status: ('A' for Active; 'I' for Inactive)
REMARK    1  A    between atoms: C_9  and  O_10
REMARK    2  A    between atoms: C_9  and  C_12
REMARK    3  A    between atoms: C_19  and  C_21
REMARK                            x       y       z     vdW  Elec       q    Type
REMARK                         _______ _______ _______ _____ _____    ______ ____
ROOT
ATOM      1  N   UNL     1      42.713  -0.774  -9.760  0.00  0.00    +0.000 N 
ATOM      2  C   UNL     1      41.278  -0.656  -9.519  0.00  0.00    +0.000 C 
ATOM      3  C   UNL     1      43.627   0.241  -9.245  0.00  0.00    +0.000 C 
ATOM      4  C   UNL     1      40.894   0.473  -8.733  0.00  0.00    +0.000 C 
ATOM      5  C   UNL     1      43.004   1.280  -8.489  0.00  0.00    +0.000 C 
ATOM      6  C   UNL     1      41.594   1.643  -8.065  0.00  0.00    +0.000 C 
ATOM      7  C   UNL     1      43.218  -1.826 -10.613  0.00  0.00    +0.000 C 
ATOM      8  C   UNL     1      40.338  -1.598 -10.017  0.00  0.00    +0.000 C 
ATOM      9  C   UNL     1      39.409  -2.557 -10.497  0.00  0.00    +0.000 C 
ATOM     10  C   UNL     1      45.026   0.188  -9.473  0.00  0.00    +0.000 C 
ATOM     11  C   UNL     1      46.449   0.115  -9.677  0.00  0.00    +0.000 C 
ATOM     12  O   UNL     1      47.194   0.191  -8.711  0.00  0.00    +0.000 OA
ENDROOT
BRANCH   9  13
ATOM     13  C   UNL     1      39.397  -3.965 -10.096  0.00  0.00    +0.000 A 
ATOM     14  C   UNL     1      38.848  -4.356  -8.872  0.00  0.00    +0.000 A 
ATOM     15  C   UNL     1      38.836  -5.696  -8.490  0.00  0.00    +0.000 A 
ATOM     16  C   UNL     1      39.375  -6.664  -9.332  0.00  0.00    +0.000 A 
ATOM     17  C   UNL     1      39.926  -6.290 -10.554  0.00  0.00    +0.000 A 
ATOM     18  C   UNL     1      39.936  -4.948 -10.931  0.00  0.00    +0.000 A 
ENDBRANCH   9  13
BRANCH  11  19
ATOM     19  C   UNL     1      46.956  -0.037 -11.052  0.00  0.00    +0.000 A 
ATOM     20  C   UNL     1      48.307   0.141 -11.348  0.00  0.00    +0.000 A 
ATOM     21  C   UNL     1      48.758  -0.016 -12.656  0.00  0.00    +0.000 A 
ATOM     22  C   UNL     1      47.859  -0.351 -13.666  0.00  0.00    +0.000 A 
ATOM     23  C   UNL     1      46.510  -0.532 -13.369  0.00  0.00    +0.000 A 
ATOM     24  C   UNL     1      46.057  -0.376 -12.062  0.00  0.00    +0.000 A 
ENDBRANCH  11  19
BRANCH   9  25
ATOM     25  O   UNL     1      38.443  -2.158 -11.392  0.00  0.00    +0.000 OA
ATOM     26  H   UNL     1      38.053  -1.302 -11.147  0.00  0.00    +0.000 HD
ENDBRANCH   9  25
TORSDOF 3
ENDMDL
