MODEL 1
REMARK VINA RESULT:      -5.0      0.000      0.000
REMARK  Name = LUCANTHONE.pdbqt.pdb
REMARK  5 active torsions:
REMARK  status: ('A' for Active; 'I' for Inactive)
REMARK    1  A    between atoms: C_3  and  N_17
REMARK    2  A    between atoms: N_17  and  C_19
REMARK    3  A    between atoms: C_20  and  N_21
REMARK    4  A    between atoms: N_21  and  C_22
REMARK    5  A    between atoms: N_21  and  C_24
REMARK                            x       y       z     vdW  Elec       q    Type
REMARK                         _______ _______ _______ _____ _____    ______ ____
ROOT
ATOM      1  S   UNL     1      43.071   2.923 -10.395  0.00  0.00    +0.000 S 
ATOM      2  O   UNL     1      40.385   0.085  -8.516  0.00  0.00    +0.000 OA
ATOM      3  C   UNL     1      39.605   2.746  -8.150  0.00  0.00    +0.000 A 
ATOM      4  C   UNL     1      40.807   2.381  -8.820  0.00  0.00    +0.000 A 
ATOM      5  C   UNL     1      41.577   3.349  -9.497  0.00  0.00    +0.000 A 
ATOM      6  C   UNL     1      41.127   4.691  -9.484  0.00  0.00    +0.000 A 
ATOM      7  C   UNL     1      41.216   0.946  -8.800  0.00  0.00    +0.000 A 
ATOM      8  C   UNL     1      39.222   4.091  -8.146  0.00  0.00    +0.000 A 
ATOM      9  C   UNL     1      42.595   0.523  -9.080  0.00  0.00    +0.000 A 
ATOM     10  C   UNL     1      39.962   5.051  -8.815  0.00  0.00    +0.000 A 
ATOM     11  C   UNL     1      43.493   1.339  -9.752  0.00  0.00    +0.000 A 
ATOM     12  C   UNL     1      41.857   5.825 -10.170  0.00  0.00    +0.000 C 
ATOM     13  C   UNL     1      42.982  -0.753  -8.656  0.00  0.00    +0.000 A 
ATOM     14  C   UNL     1      44.786   0.868  -9.989  0.00  0.00    +0.000 A 
ATOM     15  C   UNL     1      44.275  -1.211  -8.891  0.00  0.00    +0.000 A 
ATOM     16  C   UNL     1      45.182  -0.396  -9.558  0.00  0.00    +0.000 A 
ENDROOT
BRANCH   3  17
ATOM     17  N   UNL     1      38.879   1.819  -7.357  0.00  0.00    +0.000 N 
ATOM     18  H   UNL     1      39.254   0.863  -7.460  0.00  0.00    +0.000 HD
BRANCH  17  19
ATOM     19  C   UNL     1      37.435   1.940  -7.255  0.00  0.00    +0.000 C 
ATOM     20  C   UNL     1      35.912   2.068  -7.149  0.00  0.00    +0.000 C 
BRANCH  20  21
ATOM     21  N   UNL     1      34.466   2.195  -7.059  0.00  0.00    +0.000 N 
BRANCH  21  22
ATOM     22  C   UNL     1      34.039   1.447  -5.891  0.00  0.00    +0.000 C 
ATOM     23  C   UNL     1      33.575   0.664  -4.660  0.00  0.00    +0.000 C 
ENDBRANCH  21  22
BRANCH  21  24
ATOM     24  C   UNL     1      33.905   1.515  -8.211  0.00  0.00    +0.000 C 
ATOM     25  C   UNL     1      33.332   0.793  -9.434  0.00  0.00    +0.000 C 
ENDBRANCH  21  24
ENDBRANCH  20  21
ENDBRANCH  17  19
ENDBRANCH   3  17
TORSDOF 5
ENDMDL
MODEL 2
REMARK VINA RESULT:      -4.8     28.946     31.938
REMARK  Name = LUCANTHONE.pdbqt.pdb
REMARK  5 active torsions:
REMARK  status: ('A' for Active; 'I' for Inactive)
REMARK    1  A    between atoms: C_3  and  N_17
REMARK    2  A    between atoms: N_17  and  C_19
REMARK    3  A    between atoms: C_20  and  N_21
REMARK    4  A    between atoms: N_21  and  C_22
REMARK    5  A    between atoms: N_21  and  C_24
REMARK                            x       y       z     vdW  Elec       q    Type
REMARK                         _______ _______ _______ _____ _____    ______ ____
ROOT
ATOM      1  S   UNL     1      30.911  21.423  15.403  0.00  0.00    +0.000 S 
ATOM      2  O   UNL     1      31.086  17.126  15.957  0.00  0.00    +0.000 OA
ATOM      3  C   UNL     1      32.136  18.558  18.118  0.00  0.00    +0.000 A 
ATOM      4  C   UNL     1      31.669  19.189  16.931  0.00  0.00    +0.000 A 
ATOM      5  C   UNL     1      31.543  20.592  16.863  0.00  0.00    +0.000 A 
ATOM      6  C   UNL     1      31.903  21.353  18.000  0.00  0.00    +0.000 A 
ATOM      7  C   UNL     1      31.299  18.324  15.773  0.00  0.00    +0.000 A 
ATOM      8  C   UNL     1      32.504  19.360  19.204  0.00  0.00    +0.000 A 
ATOM      9  C   UNL     1      31.207  18.848  14.404  0.00  0.00    +0.000 A 
ATOM     10  C   UNL     1      32.377  20.739  19.155  0.00  0.00    +0.000 A 
ATOM     11  C   UNL     1      31.064  20.203  14.143  0.00  0.00    +0.000 A 
ATOM     12  C   UNL     1      31.816  22.863  18.059  0.00  0.00    +0.000 C 
ATOM     13  C   UNL     1      31.255  17.928  13.351  0.00  0.00    +0.000 A 
ATOM     14  C   UNL     1      30.978  20.630  12.816  0.00  0.00    +0.000 A 
ATOM     15  C   UNL     1      31.175  18.363  12.032  0.00  0.00    +0.000 A 
ATOM     16  C   UNL     1      31.039  19.720  11.762  0.00  0.00    +0.000 A 
ENDROOT
BRANCH   3  17
ATOM     17  N   UNL     1      32.392  17.163  18.174  0.00  0.00    +0.000 N 
ATOM     18  H   UNL     1      31.515  16.620  18.143  0.00  0.00    +0.000 HD
BRANCH  17  19
ATOM     19  C   UNL     1      33.434  16.660  19.053  0.00  0.00    +0.000 C 
ATOM     20  C   UNL     1      34.532  16.131  19.981  0.00  0.00    +0.000 C 
BRANCH  20  21
ATOM     21  N   UNL     1      35.576  15.640  20.866  0.00  0.00    +0.000 N 
BRANCH  21  22
ATOM     22  C   UNL     1      36.844  16.118  20.345  0.00  0.00    +0.000 C 
ATOM     23  C   UNL     1      38.177  16.617  19.782  0.00  0.00    +0.000 C 
ENDBRANCH  21  22
BRANCH  21  24
ATOM     24  C   UNL     1      35.599  14.195  20.739  0.00  0.00    +0.000 C 
ATOM     25  C   UNL     1      35.643  12.670  20.606  0.00  0.00    +0.000 C 
ENDBRANCH  21  24
ENDBRANCH  20  21
ENDBRANCH  17  19
ENDBRANCH   3  17
TORSDOF 5
ENDMDL
MODEL 3
REMARK VINA RESULT:      -4.6     17.776     19.575
REMARK  Name = LUCANTHONE.pdbqt.pdb
REMARK  5 active torsions:
REMARK  status: ('A' for Active; 'I' for Inactive)
REMARK    1  A    between atoms: C_3  and  N_17
REMARK    2  A    between atoms: N_17  and  C_19
REMARK    3  A    between atoms: C_20  and  N_21
REMARK    4  A    between atoms: N_21  and  C_22
REMARK    5  A    between atoms: N_21  and  C_24
REMARK                            x       y       z     vdW  Elec       q    Type
REMARK                         _______ _______ _______ _____ _____    ______ ____
ROOT
ATOM      1  S   UNL     1      27.678   8.722   1.132  0.00  0.00    +0.000 S 
ATOM      2  O   UNL     1      26.508   6.558   4.702  0.00  0.00    +0.000 OA
ATOM      3  C   UNL     1      24.709   6.240   2.584  0.00  0.00    +0.000 A 
ATOM      4  C   UNL     1      25.846   7.093   2.507  0.00  0.00    +0.000 A 
ATOM      5  C   UNL     1      26.223   7.682   1.282  0.00  0.00    +0.000 A 
ATOM      6  C   UNL     1      25.436   7.410   0.138  0.00  0.00    +0.000 A 
ATOM      7  C   UNL     1      26.635   7.328   3.751  0.00  0.00    +0.000 A 
ATOM      8  C   UNL     1      23.951   6.027   1.427  0.00  0.00    +0.000 A 
ATOM      9  C   UNL     1      27.545   8.472   3.895  0.00  0.00    +0.000 A 
ATOM     10  C   UNL     1      24.314   6.591   0.216  0.00  0.00    +0.000 A 
ATOM     11  C   UNL     1      28.033   9.167   2.798  0.00  0.00    +0.000 A 
ATOM     12  C   UNL     1      25.730   7.977  -1.234  0.00  0.00    +0.000 C 
ATOM     13  C   UNL     1      27.924   8.842   5.190  0.00  0.00    +0.000 A 
ATOM     14  C   UNL     1      28.899  10.242   3.009  0.00  0.00    +0.000 A 
ATOM     15  C   UNL     1      28.782   9.919   5.392  0.00  0.00    +0.000 A 
ATOM     16  C   UNL     1      29.269  10.624   4.297  0.00  0.00    +0.000 A 
ENDROOT
BRANCH   3  17
ATOM     17  N   UNL     1      24.234   5.736   3.823  0.00  0.00    +0.000 N 
ATOM     18  H   UNL     1      25.008   5.578   4.485  0.00  0.00    +0.000 HD
BRANCH  17  19
ATOM     19  C   UNL     1      23.163   4.754   3.833  0.00  0.00    +0.000 C 
ATOM     20  C   UNL     1      22.035   3.717   3.842  0.00  0.00    +0.000 C 
BRANCH  20  21
ATOM     21  N   UNL     1      20.963   2.735   3.839  0.00  0.00    +0.000 N 
BRANCH  21  22
ATOM     22  C   UNL     1      20.749   2.325   5.215  0.00  0.00    +0.000 C 
ATOM     23  C   UNL     1      20.511   1.902   6.668  0.00  0.00    +0.000 C 
ENDBRANCH  21  22
BRANCH  21  24
ATOM     24  C   UNL     1      21.456   1.567   3.135  0.00  0.00    +0.000 C 
ATOM     25  C   UNL     1      21.991   0.345   2.382  0.00  0.00    +0.000 C 
ENDBRANCH  21  24
ENDBRANCH  20  21
ENDBRANCH  17  19
ENDBRANCH   3  17
TORSDOF 5
ENDMDL
MODEL 4
REMARK VINA RESULT:      -4.5     13.802     17.975
REMARK  Name = LUCANTHONE.pdbqt.pdb
REMARK  5 active torsions:
REMARK  status: ('A' for Active; 'I' for Inactive)
REMARK    1  A    between atoms: C_3  and  N_17
REMARK    2  A    between atoms: N_17  and  C_19
REMARK    3  A    between atoms: C_20  and  N_21
REMARK    4  A    between atoms: N_21  and  C_22
REMARK    5  A    between atoms: N_21  and  C_24
REMARK                            x       y       z     vdW  Elec       q    Type
REMARK                         _______ _______ _______ _____ _____    ______ ____
ROOT
ATOM      1  S   UNL     1      29.158  10.308  -0.922  0.00  0.00    +0.000 S 
ATOM      2  O   UNL     1      27.477   6.920   1.198  0.00  0.00    +0.000 OA
ATOM      3  C   UNL     1      27.796   9.180   2.813  0.00  0.00    +0.000 A 
ATOM      4  C   UNL     1      28.221   9.138   1.456  0.00  0.00    +0.000 A 
ATOM      5  C   UNL     1      28.661  10.308   0.802  0.00  0.00    +0.000 A 
ATOM      6  C   UNL     1      28.677  11.519   1.534  0.00  0.00    +0.000 A 
ATOM      7  C   UNL     1      28.169   7.829   0.742  0.00  0.00    +0.000 A 
ATOM      8  C   UNL     1      27.858  10.399   3.498  0.00  0.00    +0.000 A 
ATOM      9  C   UNL     1      28.943   7.574  -0.480  0.00  0.00    +0.000 A 
ATOM     10  C   UNL     1      28.278  11.558   2.867  0.00  0.00    +0.000 A 
ATOM     11  C   UNL     1      29.445   8.605  -1.261  0.00  0.00    +0.000 A 
ATOM     12  C   UNL     1      29.125  12.843   0.954  0.00  0.00    +0.000 C 
ATOM     13  C   UNL     1      29.155   6.241  -0.849  0.00  0.00    +0.000 A 
ATOM     14  C   UNL     1      30.168   8.288  -2.414  0.00  0.00    +0.000 A 
ATOM     15  C   UNL     1      29.883   5.935  -1.994  0.00  0.00    +0.000 A 
ATOM     16  C   UNL     1      30.394   6.962  -2.779  0.00  0.00    +0.000 A 
ENDROOT
BRANCH   3  17
ATOM     17  N   UNL     1      27.469   8.001   3.533  0.00  0.00    +0.000 N 
ATOM     18  H   UNL     1      27.322   7.203   2.896  0.00  0.00    +0.000 HD
BRANCH  17  19
ATOM     19  C   UNL     1      26.582   8.085   4.681  0.00  0.00    +0.000 C 
ATOM     20  C   UNL     1      25.647   8.175   5.891  0.00  0.00    +0.000 C 
BRANCH  20  21
ATOM     21  N   UNL     1      24.762   8.272   7.041  0.00  0.00    +0.000 N 
BRANCH  21  22
ATOM     22  C   UNL     1      23.445   7.841   6.609  0.00  0.00    +0.000 C 
ATOM     23  C   UNL     1      22.050   7.401   6.154  0.00  0.00    +0.000 C 
ENDBRANCH  21  22
BRANCH  21  24
ATOM     24  C   UNL     1      24.646   9.679   7.373  0.00  0.00    +0.000 C 
ATOM     25  C   UNL     1      24.531  11.170   7.705  0.00  0.00    +0.000 C 
ENDBRANCH  21  24
ENDBRANCH  20  21
ENDBRANCH  17  19
ENDBRANCH   3  17
TORSDOF 5
ENDMDL
MODEL 5
REMARK VINA RESULT:      -4.5     18.135     20.829
REMARK  Name = LUCANTHONE.pdbqt.pdb
REMARK  5 active torsions:
REMARK  status: ('A' for Active; 'I' for Inactive)
REMARK    1  A    between atoms: C_3  and  N_17
REMARK    2  A    between atoms: N_17  and  C_19
REMARK    3  A    between atoms: C_20  and  N_21
REMARK    4  A    between atoms: N_21  and  C_22
REMARK    5  A    between atoms: N_21  and  C_24
REMARK                            x       y       z     vdW  Elec       q    Type
REMARK                         _______ _______ _______ _____ _____    ______ ____
ROOT
ATOM      1  S   UNL     1      27.596   8.950   1.286  0.00  0.00    +0.000 S 
ATOM      2  O   UNL     1      28.268   8.930   5.570  0.00  0.00    +0.000 OA
ATOM      3  C   UNL     1      25.998   7.486   4.805  0.00  0.00    +0.000 A 
ATOM      4  C   UNL     1      26.796   8.214   3.878  0.00  0.00    +0.000 A 
ATOM      5  C   UNL     1      26.581   8.089   2.490  0.00  0.00    +0.000 A 
ATOM      6  C   UNL     1      25.547   7.231   2.046  0.00  0.00    +0.000 A 
ATOM      7  C   UNL     1      27.874   9.093   4.416  0.00  0.00    +0.000 A 
ATOM      8  C   UNL     1      24.971   6.672   4.313  0.00  0.00    +0.000 A 
ATOM      9  C   UNL     1      28.468  10.177   3.621  0.00  0.00    +0.000 A 
ATOM     10  C   UNL     1      24.755   6.533   2.952  0.00  0.00    +0.000 A 
ATOM     11  C   UNL     1      28.370  10.213   2.238  0.00  0.00    +0.000 A 
ATOM     12  C   UNL     1      25.212   7.008   0.587  0.00  0.00    +0.000 C 
ATOM     13  C   UNL     1      29.157  11.183   4.307  0.00  0.00    +0.000 A 
ATOM     14  C   UNL     1      28.964  11.271   1.547  0.00  0.00    +0.000 A 
ATOM     15  C   UNL     1      29.740  12.237   3.610  0.00  0.00    +0.000 A 
ATOM     16  C   UNL     1      29.641  12.283   2.224  0.00  0.00    +0.000 A 
ENDROOT
BRANCH   3  17
ATOM     17  N   UNL     1      26.107   7.687   6.206  0.00  0.00    +0.000 N 
ATOM     18  H   UNL     1      26.452   6.839   6.681  0.00  0.00    +0.000 HD
BRANCH  17  19
ATOM     19  C   UNL     1      25.082   8.446   6.903  0.00  0.00    +0.000 C 
ATOM     20  C   UNL     1      24.002   9.245   7.639  0.00  0.00    +0.000 C 
BRANCH  20  21
ATOM     21  N   UNL     1      22.973   9.994   8.342  0.00  0.00    +0.000 N 
BRANCH  21  22
ATOM     22  C   UNL     1      23.316   9.980   9.752  0.00  0.00    +0.000 C 
ATOM     23  C   UNL     1      23.665   9.959  11.243  0.00  0.00    +0.000 C 
ENDBRANCH  21  22
BRANCH  21  24
ATOM     24  C   UNL     1      21.737   9.245   8.213  0.00  0.00    +0.000 C 
ATOM     25  C   UNL     1      20.427   8.466   8.059  0.00  0.00    +0.000 C 
ENDBRANCH  21  24
ENDBRANCH  20  21
ENDBRANCH  17  19
ENDBRANCH   3  17
TORSDOF 5
ENDMDL
MODEL 6
REMARK VINA RESULT:      -4.3     18.595     22.463
REMARK  Name = LUCANTHONE.pdbqt.pdb
REMARK  5 active torsions:
REMARK  status: ('A' for Active; 'I' for Inactive)
REMARK    1  A    between atoms: C_3  and  N_17
REMARK    2  A    between atoms: N_17  and  C_19
REMARK    3  A    between atoms: C_20  and  N_21
REMARK    4  A    between atoms: N_21  and  C_22
REMARK    5  A    between atoms: N_21  and  C_24
REMARK                            x       y       z     vdW  Elec       q    Type
REMARK                         _______ _______ _______ _____ _____    ______ ____
ROOT
ATOM      1  S   UNL     1      21.331   2.196   3.363  0.00  0.00    +0.000 S 
ATOM      2  O   UNL     1      21.346   5.730   5.875  0.00  0.00    +0.000 OA
ATOM      3  C   UNL     1      23.246   5.829   3.825  0.00  0.00    +0.000 A 
ATOM      4  C   UNL     1      22.420   4.693   4.055  0.00  0.00    +0.000 A 
ATOM      5  C   UNL     1      22.394   3.623   3.136  0.00  0.00    +0.000 A 
ATOM      6  C   UNL     1      23.217   3.707   1.988  0.00  0.00    +0.000 A 
ATOM      7  C   UNL     1      21.572   4.676   5.282  0.00  0.00    +0.000 A 
ATOM      8  C   UNL     1      24.060   5.847   2.687  0.00  0.00    +0.000 A 
ATOM      9  C   UNL     1      21.015   3.431   5.831  0.00  0.00    +0.000 A 
ATOM     10  C   UNL     1      24.038   4.809   1.771  0.00  0.00    +0.000 A 
ATOM     11  C   UNL     1      20.898   2.279   5.067  0.00  0.00    +0.000 A 
ATOM     12  C   UNL     1      23.283   2.632   0.925  0.00  0.00    +0.000 C 
ATOM     13  C   UNL     1      20.588   3.442   7.163  0.00  0.00    +0.000 A 
ATOM     14  C   UNL     1      20.354   1.134   5.653  0.00  0.00    +0.000 A 
ATOM     15  C   UNL     1      20.054   2.294   7.740  0.00  0.00    +0.000 A 
ATOM     16  C   UNL     1      19.939   1.134   6.983  0.00  0.00    +0.000 A 
ENDROOT
BRANCH   3  17
ATOM     17  N   UNL     1      23.387   6.859   4.792  0.00  0.00    +0.000 N 
ATOM     18  H   UNL     1      22.545   7.453   4.832  0.00  0.00    +0.000 HD
BRANCH  17  19
ATOM     19  C   UNL     1      24.665   7.537   4.934  0.00  0.00    +0.000 C 
ATOM     20  C   UNL     1      26.011   8.252   5.085  0.00  0.00    +0.000 C 
BRANCH  20  21
ATOM     21  N   UNL     1      27.285   8.938   5.237  0.00  0.00    +0.000 N 
BRANCH  21  22
ATOM     22  C   UNL     1      26.997  10.287   5.686  0.00  0.00    +0.000 C 
ATOM     23  C   UNL     1      26.708  11.714   6.162  0.00  0.00    +0.000 C 
ENDBRANCH  21  22
BRANCH  21  24
ATOM     24  C   UNL     1      27.864   9.060   3.913  0.00  0.00    +0.000 C 
ATOM     25  C   UNL     1      28.457   9.187   2.506  0.00  0.00    +0.000 C 
ENDBRANCH  21  24
ENDBRANCH  20  21
ENDBRANCH  17  19
ENDBRANCH   3  17
TORSDOF 5
ENDMDL
MODEL 7
REMARK VINA RESULT:      -4.3     18.969     22.010
REMARK  Name = LUCANTHONE.pdbqt.pdb
REMARK  5 active torsions:
REMARK  status: ('A' for Active; 'I' for Inactive)
REMARK    1  A    between atoms: C_3  and  N_17
REMARK    2  A    between atoms: N_17  and  C_19
REMARK    3  A    between atoms: C_20  and  N_21
REMARK    4  A    between atoms: N_21  and  C_22
REMARK    5  A    between atoms: N_21  and  C_24
REMARK                            x       y       z     vdW  Elec       q    Type
REMARK                         _______ _______ _______ _____ _____    ______ ____
ROOT
ATOM      1  S   UNL     1      21.988   6.670   5.248  0.00  0.00    +0.000 S 
ATOM      2  O   UNL     1      26.244   6.876   4.450  0.00  0.00    +0.000 OA
ATOM      3  C   UNL     1      25.405   8.681   6.414  0.00  0.00    +0.000 A 
ATOM      4  C   UNL     1      24.501   7.843   5.702  0.00  0.00    +0.000 A 
ATOM      5  C   UNL     1      23.147   7.752   6.087  0.00  0.00    +0.000 A 
ATOM      6  C   UNL     1      22.712   8.523   7.192  0.00  0.00    +0.000 A 
ATOM      7  C   UNL     1      25.031   7.052   4.554  0.00  0.00    +0.000 A 
ATOM      8  C   UNL     1      24.915   9.442   7.481  0.00  0.00    +0.000 A 
ATOM      9  C   UNL     1      24.152   6.495   3.516  0.00  0.00    +0.000 A 
ATOM     10  C   UNL     1      23.590   9.356   7.876  0.00  0.00    +0.000 A 
ATOM     11  C   UNL     1      22.792   6.318   3.723  0.00  0.00    +0.000 A 
ATOM     12  C   UNL     1      21.289   8.517   7.707  0.00  0.00    +0.000 C 
ATOM     13  C   UNL     1      24.735   6.129   2.298  0.00  0.00    +0.000 A 
ATOM     14  C   UNL     1      22.018   5.777   2.693  0.00  0.00    +0.000 A 
ATOM     15  C   UNL     1      23.955   5.598   1.276  0.00  0.00    +0.000 A 
ATOM     16  C   UNL     1      22.590   5.424   1.473  0.00  0.00    +0.000 A 
ENDROOT
BRANCH   3  17
ATOM     17  N   UNL     1      26.738   8.889   5.973  0.00  0.00    +0.000 N 
ATOM     18  H   UNL     1      27.415   8.415   6.591  0.00  0.00    +0.000 HD
BRANCH  17  19
ATOM     19  C   UNL     1      27.129  10.193   5.464  0.00  0.00    +0.000 C 
ATOM     20  C   UNL     1      27.541  11.568   4.929  0.00  0.00    +0.000 C 
BRANCH  20  21
ATOM     21  N   UNL     1      27.920  12.877   4.421  0.00  0.00    +0.000 N 
BRANCH  21  22
ATOM     22  C   UNL     1      27.010  13.199   3.337  0.00  0.00    +0.000 C 
ATOM     23  C   UNL     1      26.040  13.543   2.204  0.00  0.00    +0.000 C 
ENDBRANCH  21  22
BRANCH  21  24
ATOM     24  C   UNL     1      29.235  12.739   3.827  0.00  0.00    +0.000 C 
ATOM     25  C   UNL     1      30.629  12.614   3.202  0.00  0.00    +0.000 C 
ENDBRANCH  21  24
ENDBRANCH  20  21
ENDBRANCH  17  19
ENDBRANCH   3  17
TORSDOF 5
ENDMDL
MODEL 8
REMARK VINA RESULT:      -4.1     14.517     16.643
REMARK  Name = LUCANTHONE.pdbqt.pdb
REMARK  5 active torsions:
REMARK  status: ('A' for Active; 'I' for Inactive)
REMARK    1  A    between atoms: C_3  and  N_17
REMARK    2  A    between atoms: N_17  and  C_19
REMARK    3  A    between atoms: C_20  and  N_21
REMARK    4  A    between atoms: N_21  and  C_22
REMARK    5  A    between atoms: N_21  and  C_24
REMARK                            x       y       z     vdW  Elec       q    Type
REMARK                         _______ _______ _______ _____ _____    ______ ____
ROOT
ATOM      1  S   UNL     1      38.630  15.536  -5.544  0.00  0.00    +0.000 S 
ATOM      2  O   UNL     1      34.639  15.473  -3.850  0.00  0.00    +0.000 OA
ATOM      3  C   UNL     1      36.442  17.010  -2.363  0.00  0.00    +0.000 A 
ATOM      4  C   UNL     1      36.830  16.266  -3.513  0.00  0.00    +0.000 A 
ATOM      5  C   UNL     1      38.118  16.417  -4.067  0.00  0.00    +0.000 A 
ATOM      6  C   UNL     1      39.013  17.320  -3.446  0.00  0.00    +0.000 A 
ATOM      7  C   UNL     1      35.832  15.340  -4.122  0.00  0.00    +0.000 A 
ATOM      8  C   UNL     1      37.376  17.868  -1.772  0.00  0.00    +0.000 A 
ATOM      9  C   UNL     1      36.226  14.246  -5.019  0.00  0.00    +0.000 A 
ATOM     10  C   UNL     1      38.641  18.034  -2.312  0.00  0.00    +0.000 A 
ATOM     11  C   UNL     1      37.453  14.232  -5.667  0.00  0.00    +0.000 A 
ATOM     12  C   UNL     1      40.421  17.575  -3.939  0.00  0.00    +0.000 C 
ATOM     13  C   UNL     1      35.312  13.205  -5.217  0.00  0.00    +0.000 A 
ATOM     14  C   UNL     1      37.759  13.162  -6.511  0.00  0.00    +0.000 A 
ATOM     15  C   UNL     1      35.629  12.140  -6.054  0.00  0.00    +0.000 A 
ATOM     16  C   UNL     1      36.858  12.116  -6.702  0.00  0.00    +0.000 A 
ENDROOT
BRANCH   3  17
ATOM     17  N   UNL     1      35.201  16.786  -1.710  0.00  0.00    +0.000 N 
ATOM     18  H   UNL     1      34.407  17.006  -2.329  0.00  0.00    +0.000 HD
BRANCH  17  19
ATOM     19  C   UNL     1      35.052  17.152  -0.312  0.00  0.00    +0.000 C 
ATOM     20  C   UNL     1      34.896  17.540   1.163  0.00  0.00    +0.000 C 
BRANCH  20  21
ATOM     21  N   UNL     1      34.759  17.909   2.562  0.00  0.00    +0.000 N 
BRANCH  21  22
ATOM     22  C   UNL     1      33.416  18.430   2.741  0.00  0.00    +0.000 C 
ATOM     23  C   UNL     1      32.005  18.994   2.930  0.00  0.00    +0.000 C 
ENDBRANCH  21  22
BRANCH  21  24
ATOM     24  C   UNL     1      35.665  19.016   2.802  0.00  0.00    +0.000 C 
ATOM     25  C   UNL     1      36.636  20.172   3.060  0.00  0.00    +0.000 C 
ENDBRANCH  21  24
ENDBRANCH  20  21
ENDBRANCH  17  19
ENDBRANCH   3  17
TORSDOF 5
ENDMDL
MODEL 9
REMARK VINA RESULT:      -4.0     16.495     21.931
REMARK  Name = LUCANTHONE.pdbqt.pdb
REMARK  5 active torsions:
REMARK  status: ('A' for Active; 'I' for Inactive)
REMARK    1  A    between atoms: C_3  and  N_17
REMARK    2  A    between atoms: N_17  and  C_19
REMARK    3  A    between atoms: C_20  and  N_21
REMARK    4  A    between atoms: N_21  and  C_22
REMARK    5  A    between atoms: N_21  and  C_24
REMARK                            x       y       z     vdW  Elec       q    Type
REMARK                         _______ _______ _______ _____ _____    ______ ____
ROOT
ATOM      1  S   UNL     1      20.955   1.735   4.274  0.00  0.00    +0.000 S 
ATOM      2  O   UNL     1      21.551   6.028   4.415  0.00  0.00    +0.000 OA
ATOM      3  C   UNL     1      23.021   4.779   2.390  0.00  0.00    +0.000 A 
ATOM      4  C   UNL     1      22.225   4.055   3.322  0.00  0.00    +0.000 A 
ATOM      5  C   UNL     1      21.993   2.674   3.151  0.00  0.00    +0.000 A 
ATOM      6  C   UNL     1      22.581   2.029   2.037  0.00  0.00    +0.000 A 
ATOM      7  C   UNL     1      21.630   4.801   4.468  0.00  0.00    +0.000 A 
ATOM      8  C   UNL     1      23.600   4.085   1.322  0.00  0.00    +0.000 A 
ATOM      9  C   UNL     1      21.156   4.121   5.682  0.00  0.00    +0.000 A 
ATOM     10  C   UNL     1      23.374   2.732   1.136  0.00  0.00    +0.000 A 
ATOM     11  C   UNL     1      20.862   2.766   5.698  0.00  0.00    +0.000 A 
ATOM     12  C   UNL     1      22.412   0.555   1.738  0.00  0.00    +0.000 C 
ATOM     13  C   UNL     1      20.995   4.893   6.838  0.00  0.00    +0.000 A 
ATOM     14  C   UNL     1      20.411   2.188   6.887  0.00  0.00    +0.000 A 
ATOM     15  C   UNL     1      20.551   4.307   8.019  0.00  0.00    +0.000 A 
ATOM     16  C   UNL     1      20.261   2.948   8.045  0.00  0.00    +0.000 A 
ENDROOT
BRANCH   3  17
ATOM     17  N   UNL     1      23.375   6.137   2.604  0.00  0.00    +0.000 N 
ATOM     18  H   UNL     1      22.641   6.774   2.258  0.00  0.00    +0.000 HD
BRANCH  17  19
ATOM     19  C   UNL     1      24.749   6.560   2.397  0.00  0.00    +0.000 C 
ATOM     20  C   UNL     1      26.199   7.007   2.181  0.00  0.00    +0.000 C 
BRANCH  20  21
ATOM     21  N   UNL     1      27.572   7.442   1.980  0.00  0.00    +0.000 N 
BRANCH  21  22
ATOM     22  C   UNL     1      27.633   8.851   2.324  0.00  0.00    +0.000 C 
ATOM     23  C   UNL     1      27.698  10.340   2.672  0.00  0.00    +0.000 C 
ENDBRANCH  21  22
BRANCH  21  24
ATOM     24  C   UNL     1      27.844   7.354   0.558  0.00  0.00    +0.000 C 
ATOM     25  C   UNL     1      28.138   7.280  -0.944  0.00  0.00    +0.000 C 
ENDBRANCH  21  24
ENDBRANCH  20  21
ENDBRANCH  17  19
ENDBRANCH   3  17
TORSDOF 5
ENDMDL
