MODEL 1
REMARK VINA RESULT:      -6.3      0.000      0.000
REMARK  Name = MeIQx.pdbqt.pdb
REMARK  0 active torsions:
REMARK  status: ('A' for Active; 'I' for Inactive)
REMARK                            x       y       z     vdW  Elec       q    Type
REMARK                         _______ _______ _______ _____ _____    ______ ____
ROOT
ATOM      1  N   UNL     1      43.761  -3.580  14.395  0.00  0.00    +0.000 N 
ATOM      2  N   UNL     1      43.118  -1.894  15.678  0.00  0.00    +0.000 NA
ATOM      3  N   UNL     1      40.982  -0.033  14.904  0.00  0.00    +0.000 NA
ATOM      4  N   UNL     1      39.731  -0.477  12.386  0.00  0.00    +0.000 NA
ATOM      5  C   UNL     1      42.762  -2.967  13.687  0.00  0.00    +0.000 A 
ATOM      6  C   UNL     1      42.372  -1.910  14.509  0.00  0.00    +0.000 A 
ATOM      7  C   UNL     1      41.333  -1.051  14.072  0.00  0.00    +0.000 A 
ATOM      8  C   UNL     1      40.720  -1.283  12.817  0.00  0.00    +0.000 A 
ATOM      9  C   UNL     1      43.953  -2.905  15.590  0.00  0.00    +0.000 A 
ATOM     10  C   UNL     1      42.174  -3.222  12.446  0.00  0.00    +0.000 A 
ATOM     11  C   UNL     1      41.154  -2.353  12.046  0.00  0.00    +0.000 A 
ATOM     12  C   UNL     1      44.461  -4.760  13.976  0.00  0.00    +0.000 C 
ATOM     13  C   UNL     1      39.991   0.763  14.453  0.00  0.00    +0.000 A 
ATOM     14  C   UNL     1      39.382   0.543  13.222  0.00  0.00    +0.000 A 
ATOM     15  C   UNL     1      39.542   1.908  15.315  0.00  0.00    +0.000 C 
ATOM     16  N   UNL     1      44.870  -3.249  16.521  0.00  0.00    +0.000 N 
ATOM     17  H   UNL     1      44.803  -2.825  17.441  0.00  0.00    +0.000 HD
ATOM     18  H   UNL     1      45.327  -4.158  16.492  0.00  0.00    +0.000 HD
ENDROOT
TORSDOF 0
ENDMDL
MODEL 2
REMARK VINA RESULT:      -5.3      1.713      2.533
REMARK  Name = MeIQx.pdbqt.pdb
REMARK  0 active torsions:
REMARK  status: ('A' for Active; 'I' for Inactive)
REMARK                            x       y       z     vdW  Elec       q    Type
REMARK                         _______ _______ _______ _____ _____    ______ ____
ROOT
ATOM      1  N   UNL     1      44.137  -2.700  17.300  0.00  0.00    +0.000 N 
ATOM      2  N   UNL     1      42.605  -1.105  17.183  0.00  0.00    +0.000 NA
ATOM      3  N   UNL     1      41.289  -0.348  14.670  0.00  0.00    +0.000 NA
ATOM      4  N   UNL     1      42.065  -1.764  12.326  0.00  0.00    +0.000 NA
ATOM      5  C   UNL     1      43.781  -2.657  15.978  0.00  0.00    +0.000 A 
ATOM      6  C   UNL     1      42.819  -1.649  15.926  0.00  0.00    +0.000 A 
ATOM      7  C   UNL     1      42.224  -1.336  14.678  0.00  0.00    +0.000 A 
ATOM      8  C   UNL     1      42.620  -2.049  13.520  0.00  0.00    +0.000 A 
ATOM      9  C   UNL     1      43.412  -1.748  17.998  0.00  0.00    +0.000 A 
ATOM     10  C   UNL     1      44.189  -3.378  14.854  0.00  0.00    +0.000 A 
ATOM     11  C   UNL     1      43.583  -3.041  13.640  0.00  0.00    +0.000 A 
ATOM     12  C   UNL     1      45.082  -3.618  17.868  0.00  0.00    +0.000 C 
ATOM     13  C   UNL     1      40.746  -0.078  13.465  0.00  0.00    +0.000 A 
ATOM     14  C   UNL     1      41.129  -0.772  12.321  0.00  0.00    +0.000 A 
ATOM     15  C   UNL     1      39.703   0.999  13.372  0.00  0.00    +0.000 C 
ATOM     16  N   UNL     1      43.527  -1.524  19.326  0.00  0.00    +0.000 N 
ATOM     17  H   UNL     1      42.820  -0.954  19.780  0.00  0.00    +0.000 HD
ATOM     18  H   UNL     1      44.000  -2.194  19.929  0.00  0.00    +0.000 HD
ENDROOT
TORSDOF 0
ENDMDL
MODEL 3
REMARK VINA RESULT:      -5.3     18.656     20.761
REMARK  Name = MeIQx.pdbqt.pdb
REMARK  0 active torsions:
REMARK  status: ('A' for Active; 'I' for Inactive)
REMARK                            x       y       z     vdW  Elec       q    Type
REMARK                         _______ _______ _______ _____ _____    ______ ____
ROOT
ATOM      1  N   UNL     1      33.877  15.370  21.919  0.00  0.00    +0.000 N 
ATOM      2  N   UNL     1      34.301  17.502  21.496  0.00  0.00    +0.000 NA
ATOM      3  N   UNL     1      36.758  18.399  20.163  0.00  0.00    +0.000 NA
ATOM      4  N   UNL     1      38.629  16.390  19.412  0.00  0.00    +0.000 NA
ATOM      5  C   UNL     1      35.099  15.365  21.301  0.00  0.00    +0.000 A 
ATOM      6  C   UNL     1      35.347  16.713  21.044  0.00  0.00    +0.000 A 
ATOM      7  C   UNL     1      36.555  17.074  20.396  0.00  0.00    +0.000 A 
ATOM      8  C   UNL     1      37.476  16.064  20.028  0.00  0.00    +0.000 A 
ATOM      9  C   UNL     1      33.426  16.676  22.025  0.00  0.00    +0.000 A 
ATOM     10  C   UNL     1      35.987  14.347  20.947  0.00  0.00    +0.000 A 
ATOM     11  C   UNL     1      37.169  14.740  20.312  0.00  0.00    +0.000 A 
ATOM     12  C   UNL     1      33.167  14.199  22.347  0.00  0.00    +0.000 C 
ATOM     13  C   UNL     1      37.918  18.704  19.546  0.00  0.00    +0.000 A 
ATOM     14  C   UNL     1      38.831  17.719  19.180  0.00  0.00    +0.000 A 
ATOM     15  C   UNL     1      38.217  20.146  19.249  0.00  0.00    +0.000 C 
ATOM     16  N   UNL     1      32.252  17.033  22.592  0.00  0.00    +0.000 N 
ATOM     17  H   UNL     1      31.916  17.980  22.445  0.00  0.00    +0.000 HD
ATOM     18  H   UNL     1      31.531  16.340  22.780  0.00  0.00    +0.000 HD
ENDROOT
TORSDOF 0
ENDMDL
MODEL 4
REMARK VINA RESULT:      -5.2     23.028     23.474
REMARK  Name = MeIQx.pdbqt.pdb
REMARK  0 active torsions:
REMARK  status: ('A' for Active; 'I' for Inactive)
REMARK                            x       y       z     vdW  Elec       q    Type
REMARK                         _______ _______ _______ _____ _____    ______ ____
ROOT
ATOM      1  N   UNL     1      42.149   0.397  -8.834  0.00  0.00    +0.000 N 
ATOM      2  N   UNL     1      43.779   1.887  -9.002  0.00  0.00    +0.000 NA
ATOM      3  N   UNL     1      43.315   4.779  -8.795  0.00  0.00    +0.000 NA
ATOM      4  N   UNL     1      40.634   5.630  -8.362  0.00  0.00    +0.000 NA
ATOM      5  C   UNL     1      41.528   1.609  -8.686  0.00  0.00    +0.000 A 
ATOM      6  C   UNL     1      42.569   2.531  -8.795  0.00  0.00    +0.000 A 
ATOM      7  C   UNL     1      42.272   3.913  -8.685  0.00  0.00    +0.000 A 
ATOM      8  C   UNL     1      40.934   4.322  -8.469  0.00  0.00    +0.000 A 
ATOM      9  C   UNL     1      43.506   0.601  -9.027  0.00  0.00    +0.000 A 
ATOM     10  C   UNL     1      40.200   1.983  -8.471  0.00  0.00    +0.000 A 
ATOM     11  C   UNL     1      39.944   3.354  -8.370  0.00  0.00    +0.000 A 
ATOM     12  C   UNL     1      41.495  -0.877  -8.758  0.00  0.00    +0.000 C 
ATOM     13  C   UNL     1      42.994   6.084  -8.685  0.00  0.00    +0.000 A 
ATOM     14  C   UNL     1      41.682   6.497  -8.474  0.00  0.00    +0.000 A 
ATOM     15  C   UNL     1      44.090   7.105  -8.793  0.00  0.00    +0.000 C 
ATOM     16  N   UNL     1      44.407  -0.389  -9.213  0.00  0.00    +0.000 N 
ATOM     17  H   UNL     1      45.394  -0.159  -9.145  0.00  0.00    +0.000 HD
ATOM     18  H   UNL     1      44.170  -1.356  -9.005  0.00  0.00    +0.000 HD
ENDROOT
TORSDOF 0
ENDMDL
MODEL 5
REMARK VINA RESULT:      -5.0     11.287     12.241
REMARK  Name = MeIQx.pdbqt.pdb
REMARK  0 active torsions:
REMARK  status: ('A' for Active; 'I' for Inactive)
REMARK                            x       y       z     vdW  Elec       q    Type
REMARK                         _______ _______ _______ _____ _____    ______ ____
ROOT
ATOM      1  N   UNL     1      52.006   6.671  11.839  0.00  0.00    +0.000 N 
ATOM      2  N   UNL     1      50.722   6.048  10.146  0.00  0.00    +0.000 NA
ATOM      3  N   UNL     1      49.889   3.263   9.726  0.00  0.00    +0.000 NA
ATOM      4  N   UNL     1      50.809   1.340  11.611  0.00  0.00    +0.000 NA
ATOM      5  C   UNL     1      51.853   5.320  11.999  0.00  0.00    +0.000 A 
ATOM      6  C   UNL     1      51.044   4.947  10.926  0.00  0.00    +0.000 A 
ATOM      7  C   UNL     1      50.680   3.585  10.785  0.00  0.00    +0.000 A 
ATOM      8  C   UNL     1      51.145   2.639  11.731  0.00  0.00    +0.000 A 
ATOM      9  C   UNL     1      51.315   7.077  10.709  0.00  0.00    +0.000 A 
ATOM     10  C   UNL     1      52.324   4.410  12.949  0.00  0.00    +0.000 A 
ATOM     11  C   UNL     1      51.947   3.075  12.776  0.00  0.00    +0.000 A 
ATOM     12  C   UNL     1      52.735   7.528  12.729  0.00  0.00    +0.000 C 
ATOM     13  C   UNL     1      49.565   1.958   9.624  0.00  0.00    +0.000 A 
ATOM     14  C   UNL     1      50.016   1.020  10.548  0.00  0.00    +0.000 A 
ATOM     15  C   UNL     1      48.690   1.522   8.483  0.00  0.00    +0.000 C 
ATOM     16  N   UNL     1      51.265   8.352  10.262  0.00  0.00    +0.000 N 
ATOM     17  H   UNL     1      50.578   8.586   9.552  0.00  0.00    +0.000 HD
ATOM     18  H   UNL     1      51.557   9.125  10.856  0.00  0.00    +0.000 HD
ENDROOT
TORSDOF 0
ENDMDL
MODEL 6
REMARK VINA RESULT:      -4.9     12.965     13.492
REMARK  Name = MeIQx.pdbqt.pdb
REMARK  0 active torsions:
REMARK  status: ('A' for Active; 'I' for Inactive)
REMARK                            x       y       z     vdW  Elec       q    Type
REMARK                         _______ _______ _______ _____ _____    ______ ____
ROOT
ATOM      1  N   UNL     1      51.137   4.941   9.379  0.00  0.00    +0.000 N 
ATOM      2  N   UNL     1      50.109   5.249  11.316  0.00  0.00    +0.000 NA
ATOM      3  N   UNL     1      51.250   6.876  13.478  0.00  0.00    +0.000 NA
ATOM      4  N   UNL     1      53.785   8.076  12.994  0.00  0.00    +0.000 NA
ATOM      5  C   UNL     1      51.983   5.742  10.097  0.00  0.00    +0.000 A 
ATOM      6  C   UNL     1      51.320   5.924  11.311  0.00  0.00    +0.000 A 
ATOM      7  C   UNL     1      51.929   6.723  12.310  0.00  0.00    +0.000 A 
ATOM      8  C   UNL     1      53.191   7.314  12.055  0.00  0.00    +0.000 A 
ATOM      9  C   UNL     1      50.018   4.658  10.146  0.00  0.00    +0.000 A 
ATOM     10  C   UNL     1      53.226   6.314   9.817  0.00  0.00    +0.000 A 
ATOM     11  C   UNL     1      53.799   7.094  10.827  0.00  0.00    +0.000 A 
ATOM     12  C   UNL     1      51.364   4.503   8.032  0.00  0.00    +0.000 C 
ATOM     13  C   UNL     1      51.861   7.642  14.404  0.00  0.00    +0.000 A 
ATOM     14  C   UNL     1      53.101   8.227  14.164  0.00  0.00    +0.000 A 
ATOM     15  C   UNL     1      51.173   7.864  15.722  0.00  0.00    +0.000 C 
ATOM     16  N   UNL     1      48.988   3.885   9.735  0.00  0.00    +0.000 N 
ATOM     17  H   UNL     1      48.130   3.899  10.279  0.00  0.00    +0.000 HD
ATOM     18  H   UNL     1      48.877   3.642   8.753  0.00  0.00    +0.000 HD
ENDROOT
TORSDOF 0
ENDMDL
MODEL 7
REMARK VINA RESULT:      -4.8     22.037     23.177
REMARK  Name = MeIQx.pdbqt.pdb
REMARK  0 active torsions:
REMARK  status: ('A' for Active; 'I' for Inactive)
REMARK                            x       y       z     vdW  Elec       q    Type
REMARK                         _______ _______ _______ _____ _____    ______ ____
ROOT
ATOM      1  N   UNL     1      36.373   2.978  -7.703  0.00  0.00    +0.000 N 
ATOM      2  N   UNL     1      37.976   4.088  -6.653  0.00  0.00    +0.000 NA
ATOM      3  N   UNL     1      37.912   7.000  -6.283  0.00  0.00    +0.000 NA
ATOM      4  N   UNL     1      35.666   8.389  -7.345  0.00  0.00    +0.000 NA
ATOM      5  C   UNL     1      35.973   4.287  -7.745  0.00  0.00    +0.000 A 
ATOM      6  C   UNL     1      36.993   4.968  -7.081  0.00  0.00    +0.000 A 
ATOM      7  C   UNL     1      36.897   6.375  -6.938  0.00  0.00    +0.000 A 
ATOM      8  C   UNL     1      35.774   7.053  -7.471  0.00  0.00    +0.000 A 
ATOM      9  C   UNL     1      37.587   2.894  -7.041  0.00  0.00    +0.000 A 
ATOM     10  C   UNL     1      34.853   4.928  -8.279  0.00  0.00    +0.000 A 
ATOM     11  C   UNL     1      34.793   6.317  -8.121  0.00  0.00    +0.000 A 
ATOM     12  C   UNL     1      35.625   1.873  -8.228  0.00  0.00    +0.000 C 
ATOM     13  C   UNL     1      37.785   8.338  -6.168  0.00  0.00    +0.000 A 
ATOM     14  C   UNL     1      36.686   9.014  -6.689  0.00  0.00    +0.000 A 
ATOM     15  C   UNL     1      38.863   9.103  -5.454  0.00  0.00    +0.000 C 
ATOM     16  N   UNL     1      38.262   1.742  -6.831  0.00  0.00    +0.000 N 
ATOM     17  H   UNL     1      39.033   1.750  -6.169  0.00  0.00    +0.000 HD
ATOM     18  H   UNL     1      37.809   0.840  -6.960  0.00  0.00    +0.000 HD
ENDROOT
TORSDOF 0
ENDMDL
MODEL 8
REMARK VINA RESULT:      -4.5     15.885     18.757
REMARK  Name = MeIQx.pdbqt.pdb
REMARK  0 active torsions:
REMARK  status: ('A' for Active; 'I' for Inactive)
REMARK                            x       y       z     vdW  Elec       q    Type
REMARK                         _______ _______ _______ _____ _____    ______ ____
ROOT
ATOM      1  N   UNL     1      33.148  15.130  20.602  0.00  0.00    +0.000 N 
ATOM      2  N   UNL     1      31.931  13.490  21.458  0.00  0.00    +0.000 NA
ATOM      3  N   UNL     1      33.088  10.922  22.289  0.00  0.00    +0.000 NA
ATOM      4  N   UNL     1      35.895  10.599  21.951  0.00  0.00    +0.000 NA
ATOM      5  C   UNL     1      34.046  14.127  20.852  0.00  0.00    +0.000 A 
ATOM      6  C   UNL     1      33.262  13.106  21.389  0.00  0.00    +0.000 A 
ATOM      7  C   UNL     1      33.887  11.892  21.769  0.00  0.00    +0.000 A 
ATOM      8  C   UNL     1      35.285  11.745  21.595  0.00  0.00    +0.000 A 
ATOM      9  C   UNL     1      31.881  14.711  20.975  0.00  0.00    +0.000 A 
ATOM     10  C   UNL     1      35.426  14.012  20.672  0.00  0.00    +0.000 A 
ATOM     11  C   UNL     1      36.008  12.800  21.056  0.00  0.00    +0.000 A 
ATOM     12  C   UNL     1      33.484  16.422  20.076  0.00  0.00    +0.000 C 
ATOM     13  C   UNL     1      33.718   9.782  22.639  0.00  0.00    +0.000 A 
ATOM     14  C   UNL     1      35.091   9.627  22.472  0.00  0.00    +0.000 A 
ATOM     15  C   UNL     1      32.906   8.662  23.224  0.00  0.00    +0.000 C 
ATOM     16  N   UNL     1      30.763  15.462  20.855  0.00  0.00    +0.000 N 
ATOM     17  H   UNL     1      29.923  15.153  21.335  0.00  0.00    +0.000 HD
ATOM     18  H   UNL     1      30.823  16.463  20.682  0.00  0.00    +0.000 HD
ENDROOT
TORSDOF 0
ENDMDL
MODEL 9
REMARK VINA RESULT:      -4.5     16.913     17.292
REMARK  Name = MeIQx.pdbqt.pdb
REMARK  0 active torsions:
REMARK  status: ('A' for Active; 'I' for Inactive)
REMARK                            x       y       z     vdW  Elec       q    Type
REMARK                         _______ _______ _______ _____ _____    ______ ____
ROOT
ATOM      1  N   UNL     1      51.752   7.052   8.260  0.00  0.00    +0.000 N 
ATOM      2  N   UNL     1      51.095   7.716   6.252  0.00  0.00    +0.000 NA
ATOM      3  N   UNL     1      52.980   8.510   4.146  0.00  0.00    +0.000 NA
ATOM      4  N   UNL     1      55.752   8.398   4.783  0.00  0.00    +0.000 NA
ATOM      5  C   UNL     1      52.913   7.327   7.589  0.00  0.00    +0.000 A 
ATOM      6  C   UNL     1      52.479   7.743   6.330  0.00  0.00    +0.000 A 
ATOM      7  C   UNL     1      53.445   8.112   5.361  0.00  0.00    +0.000 A 
ATOM      8  C   UNL     1      54.821   8.051   5.691  0.00  0.00    +0.000 A 
ATOM      9  C   UNL     1      50.674   7.301   7.426  0.00  0.00    +0.000 A 
ATOM     10  C   UNL     1      54.262   7.254   7.942  0.00  0.00    +0.000 A 
ATOM     11  C   UNL     1      55.187   7.627   6.962  0.00  0.00    +0.000 A 
ATOM     12  C   UNL     1      51.677   6.545   9.600  0.00  0.00    +0.000 C 
ATOM     13  C   UNL     1      53.929   8.854   3.251  0.00  0.00    +0.000 A 
ATOM     14  C   UNL     1      55.283   8.798   3.566  0.00  0.00    +0.000 A 
ATOM     15  C   UNL     1      53.498   9.302   1.884  0.00  0.00    +0.000 C 
ATOM     16  N   UNL     1      49.380   7.136   7.783  0.00  0.00    +0.000 N 
ATOM     17  H   UNL     1      48.675   7.150   7.052  0.00  0.00    +0.000 HD
ATOM     18  H   UNL     1      49.132   6.611   8.618  0.00  0.00    +0.000 HD
ENDROOT
TORSDOF 0
ENDMDL
