MODEL 1
REMARK VINA RESULT:      -6.1      0.000      0.000
REMARK  Name = 
REMARK  21 active torsions:
REMARK  status: ('A' for Active; 'I' for Inactive)
REMARK    1  A    between atoms: O_3  and  C_27
REMARK    2  A    between atoms: O_3  and  C_28
REMARK    3  A    between atoms: N_6  and  CA_9
REMARK    4  A    between atoms: N_7  and  CA_15
REMARK    5  A    between atoms: N_8  and  CA_12
REMARK    6  A    between atoms: CA_9  and  CB_10
REMARK    7  A    between atoms: CA_9  and  C_16
REMARK    8  A    between atoms: CB_10  and  CG_11
REMARK    9  A    between atoms: CG_11  and  CD1_20
REMARK   10  A    between atoms: CG_11  and  CD2_21
REMARK   11  A    between atoms: CA_12  and  CB_13
REMARK   12  A    between atoms: CA_12  and  C_18
REMARK   13  A    between atoms: CB_13  and  CG_14
REMARK   14  A    between atoms: CG_14  and  CD1_22
REMARK   15  A    between atoms: CG_14  and  CD2_23
REMARK   16  A    between atoms: CA_15  and  CB_17
REMARK   17  A    between atoms: CA_15  and  C_26
REMARK   18  A    between atoms: CB_17  and  CG_19
REMARK   19  A    between atoms: CG_19  and  CD1_24
REMARK   20  A    between atoms: CG_19  and  CD2_25
REMARK   21  A    between atoms: C_28  and  C_29
REMARK                            x       y       z     vdW  Elec       q    Type
REMARK                         _______ _______ _______ _____ _____    ______ ____
ROOT
ATOM      1  O   UNL     1      52.699   4.510   8.659  0.00  0.00    +0.000 OA
ATOM      2  N   UNL     1      50.510   5.098   8.919  0.00  0.00    +0.000 N 
ATOM      3  C   UNL     1      51.680   5.003   8.184  0.00  0.00    +0.000 C 
ATOM      4  H   UNL     1      49.665   5.033   8.356  0.00  0.00    +0.000 HD
ENDROOT
BRANCH   2   5
ATOM      5  CA  UNL     1      50.436   4.479  10.243  0.00  0.00    +0.000 C 
BRANCH   5   8
ATOM      6  O   UNL     1      48.021   4.457  10.186  0.00  0.00    +0.000 OA
ATOM      7  N   UNL     1      48.938   2.449  10.462  0.00  0.00    +0.000 N 
ATOM      8  C   UNL     1      49.058   3.794  10.287  0.00  0.00    +0.000 C 
ATOM      9  H   UNL     1      47.965   2.163  10.436  0.00  0.00    +0.000 HD
BRANCH   7  10
ATOM     10  CA  UNL     1      49.935   1.397  10.258  0.00  0.00    +0.000 C 
BRANCH  10  12
ATOM     11  O   UNL     1      51.947   1.914  11.531  0.00  0.00    +0.000 OA
ATOM     12  C   UNL     1      50.873   1.322  11.463  0.00  0.00    +0.000 C 
ENDBRANCH  10  12
BRANCH  10  13
ATOM     13  CB  UNL     1      50.667   1.543   8.915  0.00  0.00    +0.000 C 
BRANCH  13  14
ATOM     14  CG  UNL     1      50.220   0.625   7.757  0.00  0.00    +0.000 C 
ATOM     15  CD1 UNL     1      49.649  -0.713   8.222  0.00  0.00    +0.000 C 
ATOM     16  CD2 UNL     1      49.178   1.355   6.902  0.00  0.00    +0.000 C 
ENDBRANCH  13  14
ENDBRANCH  10  13
ENDBRANCH   7  10
ENDBRANCH   5   8
BRANCH   5  17
ATOM     17  CB  UNL     1      50.530   5.558  11.331  0.00  0.00    +0.000 C 
BRANCH  17  18
ATOM     18  CG  UNL     1      51.968   5.954  11.721  0.00  0.00    +0.000 C 
ATOM     19  CD1 UNL     1      52.333   7.360  11.244  0.00  0.00    +0.000 C 
ATOM     20  CD2 UNL     1      52.130   5.877  13.242  0.00  0.00    +0.000 C 
ENDBRANCH  17  18
ENDBRANCH   5  17
ENDBRANCH   2   5
BRANCH   3  21
ATOM     21  CA  UNL     1      51.564   5.488   6.718  0.00  0.00    +0.000 C 
BRANCH  21  23
ATOM     22  O   UNL     1      53.341   3.886   5.220  0.00  0.00    +0.000 OA
ATOM     23  N   UNL     1      51.188   4.363   5.851  0.00  0.00    +0.000 N 
ATOM     24  C   ACE A   0      52.140   3.680   5.142  0.00  0.00    +0.000 C 
ATOM     25  H   UNL     1      50.256   4.363   5.463  0.00  0.00    +0.000 HD
BRANCH  24  26
ATOM     26  O   UNL     1      51.607   2.812   4.249  0.00  0.00    +0.000 OA
BRANCH  26  27
ATOM     27  C   UNL     1      52.404   1.657   3.958  0.00  0.00    +0.000 C 
BRANCH  27  28
ATOM     28  C   UNL     1      51.505   0.477   3.685  0.00  0.00    +0.000 A 
ATOM     29  C   UNL     1      50.625   0.491   2.593  0.00  0.00    +0.000 A 
ATOM     30  C   UNL     1      51.489  -0.628   4.550  0.00  0.00    +0.000 A 
ATOM     31  C   UNL     1      49.769  -0.587   2.357  0.00  0.00    +0.000 A 
ATOM     32  C   UNL     1      50.633  -1.704   4.314  0.00  0.00    +0.000 A 
ATOM     33  C   UNL     1      49.774  -1.684   3.217  0.00  0.00    +0.000 A 
ENDBRANCH  27  28
ENDBRANCH  26  27
ENDBRANCH  24  26
ENDBRANCH  21  23
BRANCH  21  34
ATOM     34  CB  UNL     1      50.531   6.621   6.579  0.00  0.00    +0.000 C 
BRANCH  34  35
ATOM     35  CG  UNL     1      51.102   8.054   6.535  0.00  0.00    +0.000 C 
ATOM     36  CD1 UNL     1      51.134   8.713   7.914  0.00  0.00    +0.000 C 
ATOM     37  CD2 UNL     1      52.518   8.022   5.950  0.00  0.00    +0.000 C 
ENDBRANCH  34  35
ENDBRANCH  21  34
ENDBRANCH   3  21
TORSDOF 15
ENDMDL
MODEL 2
REMARK VINA RESULT:      -6.0      1.301      2.319
REMARK  Name = 
REMARK  21 active torsions:
REMARK  status: ('A' for Active; 'I' for Inactive)
REMARK    1  A    between atoms: O_3  and  C_27
REMARK    2  A    between atoms: O_3  and  C_28
REMARK    3  A    between atoms: N_6  and  CA_9
REMARK    4  A    between atoms: N_7  and  CA_15
REMARK    5  A    between atoms: N_8  and  CA_12
REMARK    6  A    between atoms: CA_9  and  CB_10
REMARK    7  A    between atoms: CA_9  and  C_16
REMARK    8  A    between atoms: CB_10  and  CG_11
REMARK    9  A    between atoms: CG_11  and  CD1_20
REMARK   10  A    between atoms: CG_11  and  CD2_21
REMARK   11  A    between atoms: CA_12  and  CB_13
REMARK   12  A    between atoms: CA_12  and  C_18
REMARK   13  A    between atoms: CB_13  and  CG_14
REMARK   14  A    between atoms: CG_14  and  CD1_22
REMARK   15  A    between atoms: CG_14  and  CD2_23
REMARK   16  A    between atoms: CA_15  and  CB_17
REMARK   17  A    between atoms: CA_15  and  C_26
REMARK   18  A    between atoms: CB_17  and  CG_19
REMARK   19  A    between atoms: CG_19  and  CD1_24
REMARK   20  A    between atoms: CG_19  and  CD2_25
REMARK   21  A    between atoms: C_28  and  C_29
REMARK                            x       y       z     vdW  Elec       q    Type
REMARK                         _______ _______ _______ _____ _____    ______ ____
ROOT
ATOM      1  O   UNL     1      52.827   4.915   9.078  0.00  0.00    +0.000 OA
ATOM      2  N   UNL     1      50.548   4.893   8.975  0.00  0.00    +0.000 N 
ATOM      3  C   UNL     1      51.805   4.995   8.403  0.00  0.00    +0.000 C 
ATOM      4  H   UNL     1      49.849   4.482   8.361  0.00  0.00    +0.000 HD
ENDROOT
BRANCH   2   5
ATOM      5  CA  UNL     1      50.425   4.550  10.392  0.00  0.00    +0.000 C 
BRANCH   5   8
ATOM      6  O   UNL     1      48.009   4.495  10.404  0.00  0.00    +0.000 OA
ATOM      7  N   UNL     1      48.962   2.518  10.775  0.00  0.00    +0.000 N 
ATOM      8  C   UNL     1      49.058   3.852  10.516  0.00  0.00    +0.000 C 
ATOM      9  H   UNL     1      47.993   2.220  10.794  0.00  0.00    +0.000 HD
BRANCH   7  10
ATOM     10  CA  UNL     1      49.968   1.469  10.608  0.00  0.00    +0.000 C 
BRANCH  10  12
ATOM     11  O   UNL     1      48.419   0.456   9.024  0.00  0.00    +0.000 OA
ATOM     12  C   UNL     1      49.558   0.524   9.479  0.00  0.00    +0.000 C 
ENDBRANCH  10  12
BRANCH  10  13
ATOM     13  CB  UNL     1      50.283   0.751  11.930  0.00  0.00    +0.000 C 
BRANCH  13  14
ATOM     14  CG  UNL     1      51.675   0.989  12.555  0.00  0.00    +0.000 C 
ATOM     15  CD1 UNL     1      51.939   0.145  13.800  0.00  0.00    +0.000 C 
ATOM     16  CD2 UNL     1      52.758   0.706  11.507  0.00  0.00    +0.000 C 
ENDBRANCH  13  14
ENDBRANCH  10  13
ENDBRANCH   7  10
ENDBRANCH   5   8
BRANCH   5  17
ATOM     17  CB  UNL     1      50.450   5.827  11.244  0.00  0.00    +0.000 C 
BRANCH  17  18
ATOM     18  CG  UNL     1      51.645   5.929  12.213  0.00  0.00    +0.000 C 
ATOM     19  CD1 UNL     1      51.338   6.813  13.423  0.00  0.00    +0.000 C 
ATOM     20  CD2 UNL     1      52.039   4.529  12.695  0.00  0.00    +0.000 C 
ENDBRANCH  17  18
ENDBRANCH   5  17
ENDBRANCH   2   5
BRANCH   3  21
ATOM     21  CA  UNL     1      51.805   5.130   6.860  0.00  0.00    +0.000 C 
BRANCH  21  23
ATOM     22  O   UNL     1      53.185   2.849   5.933  0.00  0.00    +0.000 OA
ATOM     23  N   UNL     1      51.193   3.939   6.257  0.00  0.00    +0.000 N 
ATOM     24  C   ACE A   0      51.972   2.905   5.810  0.00  0.00    +0.000 C 
ATOM     25  H   UNL     1      50.296   4.051   5.805  0.00  0.00    +0.000 HD
BRANCH  24  26
ATOM     26  O   UNL     1      51.269   1.984   5.107  0.00  0.00    +0.000 OA
BRANCH  26  27
ATOM     27  C   UNL     1      50.569   1.010   5.891  0.00  0.00    +0.000 C 
BRANCH  27  28
ATOM     28  C   UNL     1      50.455  -0.279   5.114  0.00  0.00    +0.000 A 
ATOM     29  C   UNL     1      50.198  -0.258   3.737  0.00  0.00    +0.000 A 
ATOM     30  C   UNL     1      50.544  -1.518   5.766  0.00  0.00    +0.000 A 
ATOM     31  C   UNL     1      50.060  -1.450   3.022  0.00  0.00    +0.000 A 
ATOM     32  C   UNL     1      50.405  -2.709   5.051  0.00  0.00    +0.000 A 
ATOM     33  C   UNL     1      50.164  -2.674   3.679  0.00  0.00    +0.000 A 
ENDBRANCH  27  28
ENDBRANCH  26  27
ENDBRANCH  24  26
ENDBRANCH  21  23
BRANCH  21  34
ATOM     34  CB  UNL     1      51.049   6.391   6.406  0.00  0.00    +0.000 C 
BRANCH  34  35
ATOM     35  CG  UNL     1      51.814   7.724   6.542  0.00  0.00    +0.000 C 
ATOM     36  CD1 UNL     1      52.040   8.410   5.195  0.00  0.00    +0.000 C 
ATOM     37  CD2 UNL     1      51.039   8.665   7.472  0.00  0.00    +0.000 C 
ENDBRANCH  34  35
ENDBRANCH  21  34
ENDBRANCH   3  21
TORSDOF 15
ENDMDL
MODEL 3
REMARK VINA RESULT:      -5.4     12.371     15.378
REMARK  Name = 
REMARK  21 active torsions:
REMARK  status: ('A' for Active; 'I' for Inactive)
REMARK    1  A    between atoms: O_3  and  C_27
REMARK    2  A    between atoms: O_3  and  C_28
REMARK    3  A    between atoms: N_6  and  CA_9
REMARK    4  A    between atoms: N_7  and  CA_15
REMARK    5  A    between atoms: N_8  and  CA_12
REMARK    6  A    between atoms: CA_9  and  CB_10
REMARK    7  A    between atoms: CA_9  and  C_16
REMARK    8  A    between atoms: CB_10  and  CG_11
REMARK    9  A    between atoms: CG_11  and  CD1_20
REMARK   10  A    between atoms: CG_11  and  CD2_21
REMARK   11  A    between atoms: CA_12  and  CB_13
REMARK   12  A    between atoms: CA_12  and  C_18
REMARK   13  A    between atoms: CB_13  and  CG_14
REMARK   14  A    between atoms: CG_14  and  CD1_22
REMARK   15  A    between atoms: CG_14  and  CD2_23
REMARK   16  A    between atoms: CA_15  and  CB_17
REMARK   17  A    between atoms: CA_15  and  C_26
REMARK   18  A    between atoms: CB_17  and  CG_19
REMARK   19  A    between atoms: CG_19  and  CD1_24
REMARK   20  A    between atoms: CG_19  and  CD2_25
REMARK   21  A    between atoms: C_28  and  C_29
REMARK                            x       y       z     vdW  Elec       q    Type
REMARK                         _______ _______ _______ _____ _____    ______ ____
ROOT
ATOM      1  O   UNL     1      40.810  -3.276  16.501  0.00  0.00    +0.000 OA
ATOM      2  N   UNL     1      42.973  -3.001  15.831  0.00  0.00    +0.000 N 
ATOM      3  C   UNL     1      41.620  -2.715  15.768  0.00  0.00    +0.000 C 
ATOM      4  H   UNL     1      43.572  -2.211  15.600  0.00  0.00    +0.000 HD
ENDROOT
BRANCH   2   5
ATOM      5  CA  UNL     1      43.476  -3.890  16.879  0.00  0.00    +0.000 C 
BRANCH   5   8
ATOM      6  O   UNL     1      45.800  -3.248  17.048  0.00  0.00    +0.000 OA
ATOM      7  N   UNL     1      44.494  -2.337  18.603  0.00  0.00    +0.000 N 
ATOM      8  C   UNL     1      44.660  -3.133  17.510  0.00  0.00    +0.000 C 
ATOM      9  H   UNL     1      45.367  -1.894  18.866  0.00  0.00    +0.000 HD
BRANCH   7  10
ATOM     10  CA  UNL     1      43.268  -1.739  19.133  0.00  0.00    +0.000 C 
BRANCH  10  12
ATOM     11  O   UNL     1      43.039   0.063  17.510  0.00  0.00    +0.000 OA
ATOM     12  C   UNL     1      43.157  -0.283  18.683  0.00  0.00    +0.000 C 
ENDBRANCH  10  12
BRANCH  10  13
ATOM     13  CB  UNL     1      43.142  -1.926  20.654  0.00  0.00    +0.000 C 
BRANCH  13  14
ATOM     14  CG  UNL     1      44.253  -1.320  21.540  0.00  0.00    +0.000 C 
ATOM     15  CD1 UNL     1      43.751  -0.243  22.499  0.00  0.00    +0.000 C 
ATOM     16  CD2 UNL     1      44.932  -2.438  22.339  0.00  0.00    +0.000 C 
ENDBRANCH  13  14
ENDBRANCH  10  13
ENDBRANCH   7  10
ENDBRANCH   5   8
BRANCH   5  17
ATOM     17  CB  UNL     1      43.957  -5.210  16.260  0.00  0.00    +0.000 C 
BRANCH  17  18
ATOM     18  CG  UNL     1      43.847  -5.277  14.724  0.00  0.00    +0.000 C 
ATOM     19  CD1 UNL     1      45.214  -5.392  14.048  0.00  0.00    +0.000 C 
ATOM     20  CD2 UNL     1      42.979  -6.473  14.321  0.00  0.00    +0.000 C 
ENDBRANCH  17  18
ENDBRANCH   5  17
ENDBRANCH   2   5
BRANCH   3  21
ATOM     21  CA  UNL     1      41.242  -1.591  14.773  0.00  0.00    +0.000 C 
BRANCH  21  23
ATOM     22  O   UNL     1      39.647   0.616  14.028  0.00  0.00    +0.000 OA
ATOM     23  N   UNL     1      41.162  -0.306  15.482  0.00  0.00    +0.000 N 
ATOM     24  C   ACE A   0      40.376   0.708  15.003  0.00  0.00    +0.000 C 
ATOM     25  H   UNL     1      41.957  -0.030  16.041  0.00  0.00    +0.000 HD
BRANCH  24  26
ATOM     26  O   UNL     1      40.571   1.877  15.658  0.00  0.00    +0.000 OA
BRANCH  26  27
ATOM     27  C   UNL     1      39.384   2.618  15.967  0.00  0.00    +0.000 C 
BRANCH  27  28
ATOM     28  C   UNL     1      39.427   3.067  17.407  0.00  0.00    +0.000 A 
ATOM     29  C   UNL     1      39.232   4.415  17.737  0.00  0.00    +0.000 A 
ATOM     30  C   UNL     1      39.720   2.156  18.433  0.00  0.00    +0.000 A 
ATOM     31  C   UNL     1      39.303   4.838  19.066  0.00  0.00    +0.000 A 
ATOM     32  C   UNL     1      39.791   2.580  19.761  0.00  0.00    +0.000 A 
ATOM     33  C   UNL     1      39.581   3.920  20.077  0.00  0.00    +0.000 A 
ENDBRANCH  27  28
ENDBRANCH  26  27
ENDBRANCH  24  26
ENDBRANCH  21  23
BRANCH  21  34
ATOM     34  CB  UNL     1      42.261  -1.489  13.624  0.00  0.00    +0.000 C 
BRANCH  34  35
ATOM     35  CG  UNL     1      41.821  -2.096  12.276  0.00  0.00    +0.000 C 
ATOM     36  CD1 UNL     1      42.197  -3.573  12.149  0.00  0.00    +0.000 C 
ATOM     37  CD2 UNL     1      40.305  -1.938  12.114  0.00  0.00    +0.000 C 
ENDBRANCH  34  35
ENDBRANCH  21  34
ENDBRANCH   3  21
TORSDOF 15
ENDMDL
MODEL 4
REMARK VINA RESULT:      -5.3     22.725     25.688
REMARK  Name = 
REMARK  21 active torsions:
REMARK  status: ('A' for Active; 'I' for Inactive)
REMARK    1  A    between atoms: O_3  and  C_27
REMARK    2  A    between atoms: O_3  and  C_28
REMARK    3  A    between atoms: N_6  and  CA_9
REMARK    4  A    between atoms: N_7  and  CA_15
REMARK    5  A    between atoms: N_8  and  CA_12
REMARK    6  A    between atoms: CA_9  and  CB_10
REMARK    7  A    between atoms: CA_9  and  C_16
REMARK    8  A    between atoms: CB_10  and  CG_11
REMARK    9  A    between atoms: CG_11  and  CD1_20
REMARK   10  A    between atoms: CG_11  and  CD2_21
REMARK   11  A    between atoms: CA_12  and  CB_13
REMARK   12  A    between atoms: CA_12  and  C_18
REMARK   13  A    between atoms: CB_13  and  CG_14
REMARK   14  A    between atoms: CG_14  and  CD1_22
REMARK   15  A    between atoms: CG_14  and  CD2_23
REMARK   16  A    between atoms: CA_15  and  CB_17
REMARK   17  A    between atoms: CA_15  and  C_26
REMARK   18  A    between atoms: CB_17  and  CG_19
REMARK   19  A    between atoms: CG_19  and  CD1_24
REMARK   20  A    between atoms: CG_19  and  CD2_25
REMARK   21  A    between atoms: C_28  and  C_29
REMARK                            x       y       z     vdW  Elec       q    Type
REMARK                         _______ _______ _______ _____ _____    ______ ____
ROOT
ATOM      1  O   UNL     1      33.168  15.821  19.862  0.00  0.00    +0.000 OA
ATOM      2  N   UNL     1      34.553  17.581  20.298  0.00  0.00    +0.000 N 
ATOM      3  C   UNL     1      33.380  17.029  19.811  0.00  0.00    +0.000 C 
ATOM      4  H   UNL     1      34.443  18.523  20.666  0.00  0.00    +0.000 HD
ENDROOT
BRANCH   2   5
ATOM      5  CA  UNL     1      35.509  16.732  21.011  0.00  0.00    +0.000 C 
BRANCH   5   8
ATOM      6  O   UNL     1      34.918  17.860  23.065  0.00  0.00    +0.000 OA
ATOM      7  N   UNL     1      34.837  15.640  23.196  0.00  0.00    +0.000 N 
ATOM      8  C   UNL     1      35.062  16.779  22.485  0.00  0.00    +0.000 C 
ATOM      9  H   UNL     1      34.522  15.854  24.136  0.00  0.00    +0.000 HD
BRANCH   7  10
ATOM     10  CA  UNL     1      34.583  14.283  22.712  0.00  0.00    +0.000 C 
BRANCH  10  12
ATOM     11  O   UNL     1      32.222  14.138  23.296  0.00  0.00    +0.000 OA
ATOM     12  C   UNL     1      33.361  13.694  23.417  0.00  0.00    +0.000 C 
ENDBRANCH  10  12
BRANCH  10  13
ATOM     13  CB  UNL     1      35.832  13.392  22.796  0.00  0.00    +0.000 C 
BRANCH  13  14
ATOM     14  CG  UNL     1      36.018  12.320  21.699  0.00  0.00    +0.000 C 
ATOM     15  CD1 UNL     1      35.523  10.934  22.108  0.00  0.00    +0.000 C 
ATOM     16  CD2 UNL     1      35.291  12.766  20.425  0.00  0.00    +0.000 C 
ENDBRANCH  13  14
ENDBRANCH  10  13
ENDBRANCH   7  10
ENDBRANCH   5   8
BRANCH   5  17
ATOM     17  CB  UNL     1      36.927  17.304  20.866  0.00  0.00    +0.000 C 
BRANCH  17  18
ATOM     18  CG  UNL     1      37.637  16.930  19.550  0.00  0.00    +0.000 C 
ATOM     19  CD1 UNL     1      38.876  17.790  19.294  0.00  0.00    +0.000 C 
ATOM     20  CD2 UNL     1      38.043  15.454  19.584  0.00  0.00    +0.000 C 
ENDBRANCH  17  18
ENDBRANCH   5  17
ENDBRANCH   2   5
BRANCH   3  21
ATOM     21  CA  UNL     1      32.350  18.059  19.287  0.00  0.00    +0.000 C 
BRANCH  21  23
ATOM     22  O   UNL     1      32.057  17.978  16.481  0.00  0.00    +0.000 OA
ATOM     23  N   UNL     1      31.284  17.366  18.551  0.00  0.00    +0.000 N 
ATOM     24  C   ACE A   0      31.225  17.428  17.184  0.00  0.00    +0.000 C 
ATOM     25  H   UNL     1      30.408  17.214  19.030  0.00  0.00    +0.000 HD
BRANCH  24  26
ATOM     26  O   UNL     1      30.079  16.907  16.684  0.00  0.00    +0.000 OA
BRANCH  26  27
ATOM     27  C   UNL     1      29.051  16.639  17.646  0.00  0.00    +0.000 C 
BRANCH  27  28
ATOM     28  C   UNL     1      28.649  15.186  17.567  0.00  0.00    +0.000 A 
ATOM     29  C   UNL     1      29.017  14.292  18.581  0.00  0.00    +0.000 A 
ATOM     30  C   UNL     1      27.955  14.694  16.452  0.00  0.00    +0.000 A 
ATOM     31  C   UNL     1      28.674  12.940  18.495  0.00  0.00    +0.000 A 
ATOM     32  C   UNL     1      27.612  13.344  16.367  0.00  0.00    +0.000 A 
ATOM     33  C   UNL     1      27.972  12.467  17.389  0.00  0.00    +0.000 A 
ENDBRANCH  27  28
ENDBRANCH  26  27
ENDBRANCH  24  26
ENDBRANCH  21  23
BRANCH  21  34
ATOM     34  CB  UNL     1      31.740  18.881  20.437  0.00  0.00    +0.000 C 
BRANCH  34  35
ATOM     35  CG  UNL     1      31.455  18.110  21.742  0.00  0.00    +0.000 C 
ATOM     36  CD1 UNL     1      31.622  18.983  22.986  0.00  0.00    +0.000 C 
ATOM     37  CD2 UNL     1      30.031  17.545  21.700  0.00  0.00    +0.000 C 
ENDBRANCH  34  35
ENDBRANCH  21  34
ENDBRANCH   3  21
TORSDOF 15
ENDMDL
MODEL 5
REMARK VINA RESULT:      -5.3     11.524     15.358
REMARK  Name = 
REMARK  21 active torsions:
REMARK  status: ('A' for Active; 'I' for Inactive)
REMARK    1  A    between atoms: O_3  and  C_27
REMARK    2  A    between atoms: O_3  and  C_28
REMARK    3  A    between atoms: N_6  and  CA_9
REMARK    4  A    between atoms: N_7  and  CA_15
REMARK    5  A    between atoms: N_8  and  CA_12
REMARK    6  A    between atoms: CA_9  and  CB_10
REMARK    7  A    between atoms: CA_9  and  C_16
REMARK    8  A    between atoms: CB_10  and  CG_11
REMARK    9  A    between atoms: CG_11  and  CD1_20
REMARK   10  A    between atoms: CG_11  and  CD2_21
REMARK   11  A    between atoms: CA_12  and  CB_13
REMARK   12  A    between atoms: CA_12  and  C_18
REMARK   13  A    between atoms: CB_13  and  CG_14
REMARK   14  A    between atoms: CG_14  and  CD1_22
REMARK   15  A    between atoms: CG_14  and  CD2_23
REMARK   16  A    between atoms: CA_15  and  CB_17
REMARK   17  A    between atoms: CA_15  and  C_26
REMARK   18  A    between atoms: CB_17  and  CG_19
REMARK   19  A    between atoms: CG_19  and  CD1_24
REMARK   20  A    between atoms: CG_19  and  CD2_25
REMARK   21  A    between atoms: C_28  and  C_29
REMARK                            x       y       z     vdW  Elec       q    Type
REMARK                         _______ _______ _______ _____ _____    ______ ____
ROOT
ATOM      1  O   UNL     1      41.349  -2.846  16.702  0.00  0.00    +0.000 OA
ATOM      2  N   UNL     1      42.630  -2.060  14.987  0.00  0.00    +0.000 N 
ATOM      3  C   UNL     1      41.965  -1.915  16.192  0.00  0.00    +0.000 C 
ATOM      4  H   UNL     1      43.460  -1.477  14.903  0.00  0.00    +0.000 HD
ENDROOT
BRANCH   2   5
ATOM      5  CA  UNL     1      42.721  -3.382  14.366  0.00  0.00    +0.000 C 
BRANCH   5   8
ATOM      6  O   UNL     1      45.067  -2.922  14.716  0.00  0.00    +0.000 OA
ATOM      7  N   UNL     1      44.616  -5.060  14.298  0.00  0.00    +0.000 N 
ATOM      8  C   UNL     1      44.206  -3.775  14.478  0.00  0.00    +0.000 C 
ATOM      9  H   UNL     1      45.618  -5.145  14.437  0.00  0.00    +0.000 HD
BRANCH   7  10
ATOM     10  CA  UNL     1      43.838  -6.297  14.361  0.00  0.00    +0.000 C 
BRANCH  10  12
ATOM     11  O   UNL     1      44.841  -6.686  16.547  0.00  0.00    +0.000 OA
ATOM     12  C   UNL     1      43.916  -6.895  15.766  0.00  0.00    +0.000 C 
ENDBRANCH  10  12
BRANCH  10  13
ATOM     13  CB  UNL     1      44.224  -7.284  13.248  0.00  0.00    +0.000 C 
BRANCH  13  14
ATOM     14  CG  UNL     1      45.530  -8.088  13.431  0.00  0.00    +0.000 C 
ATOM     15  CD1 UNL     1      45.423  -9.541  12.973  0.00  0.00    +0.000 C 
ATOM     16  CD2 UNL     1      46.664  -7.395  12.667  0.00  0.00    +0.000 C 
ENDBRANCH  13  14
ENDBRANCH  10  13
ENDBRANCH   7  10
ENDBRANCH   5   8
BRANCH   5  17
ATOM     17  CB  UNL     1      42.303  -3.297  12.890  0.00  0.00    +0.000 C 
BRANCH  17  18
ATOM     18  CG  UNL     1      41.574  -1.995  12.504  0.00  0.00    +0.000 C 
ATOM     19  CD1 UNL     1      42.259  -1.267  11.347  0.00  0.00    +0.000 C 
ATOM     20  CD2 UNL     1      40.125  -2.311  12.117  0.00  0.00    +0.000 C 
ENDBRANCH  17  18
ENDBRANCH   5  17
ENDBRANCH   2   5
BRANCH   3  21
ATOM     21  CA  UNL     1      42.134  -0.530  16.863  0.00  0.00    +0.000 C 
BRANCH  21  23
ATOM     22  O   UNL     1      41.125   1.867  15.764  0.00  0.00    +0.000 OA
ATOM     23  N   UNL     1      40.815   0.055  17.135  0.00  0.00    +0.000 N 
ATOM     24  C   ACE A   0      40.449   1.247  16.569  0.00  0.00    +0.000 C 
ATOM     25  H   UNL     1      40.373  -0.177  18.014  0.00  0.00    +0.000 HD
BRANCH  24  26
ATOM     26  O   UNL     1      39.293   1.737  17.078  0.00  0.00    +0.000 OA
BRANCH  26  27
ATOM     27  C   UNL     1      39.170   3.165  17.070  0.00  0.00    +0.000 C 
BRANCH  27  28
ATOM     28  C   UNL     1      39.401   3.702  18.461  0.00  0.00    +0.000 A 
ATOM     29  C   UNL     1      39.650   2.827  19.528  0.00  0.00    +0.000 A 
ATOM     30  C   UNL     1      39.312   5.077  18.723  0.00  0.00    +0.000 A 
ATOM     31  C   UNL     1      39.832   3.319  20.822  0.00  0.00    +0.000 A 
ATOM     32  C   UNL     1      39.493   5.568  20.017  0.00  0.00    +0.000 A 
ATOM     33  C   UNL     1      39.754   4.689  21.066  0.00  0.00    +0.000 A 
ENDBRANCH  27  28
ENDBRANCH  26  27
ENDBRANCH  24  26
ENDBRANCH  21  23
BRANCH  21  34
ATOM     34  CB  UNL     1      42.940  -0.631  18.170  0.00  0.00    +0.000 C 
BRANCH  34  35
ATOM     35  CG  UNL     1      42.420   0.213  19.352  0.00  0.00    +0.000 C 
ATOM     36  CD1 UNL     1      41.778  -0.643  20.444  0.00  0.00    +0.000 C 
ATOM     37  CD2 UNL     1      43.575   1.023  19.949  0.00  0.00    +0.000 C 
ENDBRANCH  34  35
ENDBRANCH  21  34
ENDBRANCH   3  21
TORSDOF 15
ENDMDL
MODEL 6
REMARK VINA RESULT:      -5.3     11.657     13.930
REMARK  Name = 
REMARK  21 active torsions:
REMARK  status: ('A' for Active; 'I' for Inactive)
REMARK    1  A    between atoms: O_3  and  C_27
REMARK    2  A    between atoms: O_3  and  C_28
REMARK    3  A    between atoms: N_6  and  CA_9
REMARK    4  A    between atoms: N_7  and  CA_15
REMARK    5  A    between atoms: N_8  and  CA_12
REMARK    6  A    between atoms: CA_9  and  CB_10
REMARK    7  A    between atoms: CA_9  and  C_16
REMARK    8  A    between atoms: CB_10  and  CG_11
REMARK    9  A    between atoms: CG_11  and  CD1_20
REMARK   10  A    between atoms: CG_11  and  CD2_21
REMARK   11  A    between atoms: CA_12  and  CB_13
REMARK   12  A    between atoms: CA_12  and  C_18
REMARK   13  A    between atoms: CB_13  and  CG_14
REMARK   14  A    between atoms: CG_14  and  CD1_22
REMARK   15  A    between atoms: CG_14  and  CD2_23
REMARK   16  A    between atoms: CA_15  and  CB_17
REMARK   17  A    between atoms: CA_15  and  C_26
REMARK   18  A    between atoms: CB_17  and  CG_19
REMARK   19  A    between atoms: CG_19  and  CD1_24
REMARK   20  A    between atoms: CG_19  and  CD2_25
REMARK   21  A    between atoms: C_28  and  C_29
REMARK                            x       y       z     vdW  Elec       q    Type
REMARK                         _______ _______ _______ _____ _____    ______ ____
ROOT
ATOM      1  O   UNL     1      41.084  -3.184  15.797  0.00  0.00    +0.000 OA
ATOM      2  N   UNL     1      42.924  -1.837  15.843  0.00  0.00    +0.000 N 
ATOM      3  C   UNL     1      42.138  -2.828  15.279  0.00  0.00    +0.000 C 
ATOM      4  H   UNL     1      43.444  -1.288  15.162  0.00  0.00    +0.000 HD
ENDROOT
BRANCH   2   5
ATOM      5  CA  UNL     1      42.431  -1.099  17.006  0.00  0.00    +0.000 C 
BRANCH   5   8
ATOM      6  O   UNL     1      42.546   0.732  15.433  0.00  0.00    +0.000 OA
ATOM      7  N   UNL     1      41.107   1.058  17.099  0.00  0.00    +0.000 N 
ATOM      8  C   UNL     1      42.026   0.283  16.460  0.00  0.00    +0.000 C 
ATOM      9  H   UNL     1      40.939   1.919  16.588  0.00  0.00    +0.000 HD
BRANCH   7  10
ATOM     10  CA  UNL     1      40.098   0.673  18.085  0.00  0.00    +0.000 C 
BRANCH  10  12
ATOM     11  O   UNL     1      37.840  -0.211  17.849  0.00  0.00    +0.000 OA
ATOM     12  C   UNL     1      38.986  -0.131  17.412  0.00  0.00    +0.000 C 
ENDBRANCH  10  12
BRANCH  10  13
ATOM     13  CB  UNL     1      39.587   1.876  18.893  0.00  0.00    +0.000 C 
BRANCH  13  14
ATOM     14  CG  UNL     1      39.631   1.770  20.434  0.00  0.00    +0.000 C 
ATOM     15  CD1 UNL     1      39.814   0.342  20.943  0.00  0.00    +0.000 C 
ATOM     16  CD2 UNL     1      40.764   2.653  20.971  0.00  0.00    +0.000 C 
ENDBRANCH  13  14
ENDBRANCH  10  13
ENDBRANCH   7  10
ENDBRANCH   5   8
BRANCH   5  17
ATOM     17  CB  UNL     1      43.552  -0.953  18.046  0.00  0.00    +0.000 C 
BRANCH  17  18
ATOM     18  CG  UNL     1      43.081  -0.472  19.433  0.00  0.00    +0.000 C 
ATOM     19  CD1 UNL     1      43.359  -1.501  20.530  0.00  0.00    +0.000 C 
ATOM     20  CD2 UNL     1      43.778   0.846  19.786  0.00  0.00    +0.000 C 
ENDBRANCH  17  18
ENDBRANCH   5  17
ENDBRANCH   2   5
BRANCH   3  21
ATOM     21  CA  UNL     1      42.656  -3.373  13.926  0.00  0.00    +0.000 C 
BRANCH  21  23
ATOM     22  O   UNL     1      45.027  -4.887  14.161  0.00  0.00    +0.000 OA
ATOM     23  N   UNL     1      42.741  -4.839  13.980  0.00  0.00    +0.000 N 
ATOM     24  C   ACE A   0      43.957  -5.465  14.059  0.00  0.00    +0.000 C 
ATOM     25  H   UNL     1      41.993  -5.366  13.553  0.00  0.00    +0.000 HD
BRANCH  24  26
ATOM     26  O   UNL     1      43.867  -6.807  13.899  0.00  0.00    +0.000 OA
BRANCH  26  27
ATOM     27  C   UNL     1      45.007  -7.559  14.332  0.00  0.00    +0.000 C 
BRANCH  27  28
ATOM     28  C   UNL     1      45.631  -8.261  13.151  0.00  0.00    +0.000 A 
ATOM     29  C   UNL     1      46.650  -7.642  12.414  0.00  0.00    +0.000 A 
ATOM     30  C   UNL     1      45.163  -9.516  12.734  0.00  0.00    +0.000 A 
ATOM     31  C   UNL     1      47.207  -8.276  11.301  0.00  0.00    +0.000 A 
ATOM     32  C   UNL     1      45.720 -10.149  11.622  0.00  0.00    +0.000 A 
ATOM     33  C   UNL     1      46.742  -9.529  10.906  0.00  0.00    +0.000 A 
ENDBRANCH  27  28
ENDBRANCH  26  27
ENDBRANCH  24  26
ENDBRANCH  21  23
BRANCH  21  34
ATOM     34  CB  UNL     1      41.745  -2.946  12.761  0.00  0.00    +0.000 C 
BRANCH  34  35
ATOM     35  CG  UNL     1      41.548  -1.427  12.579  0.00  0.00    +0.000 C 
ATOM     36  CD1 UNL     1      41.848  -0.965  11.152  0.00  0.00    +0.000 C 
ATOM     37  CD2 UNL     1      40.108  -1.051  12.946  0.00  0.00    +0.000 C 
ENDBRANCH  34  35
ENDBRANCH  21  34
ENDBRANCH   3  21
TORSDOF 15
ENDMDL
MODEL 7
REMARK VINA RESULT:      -5.3     22.681     25.510
REMARK  Name = 
REMARK  21 active torsions:
REMARK  status: ('A' for Active; 'I' for Inactive)
REMARK    1  A    between atoms: O_3  and  C_27
REMARK    2  A    between atoms: O_3  and  C_28
REMARK    3  A    between atoms: N_6  and  CA_9
REMARK    4  A    between atoms: N_7  and  CA_15
REMARK    5  A    between atoms: N_8  and  CA_12
REMARK    6  A    between atoms: CA_9  and  CB_10
REMARK    7  A    between atoms: CA_9  and  C_16
REMARK    8  A    between atoms: CB_10  and  CG_11
REMARK    9  A    between atoms: CG_11  and  CD1_20
REMARK   10  A    between atoms: CG_11  and  CD2_21
REMARK   11  A    between atoms: CA_12  and  CB_13
REMARK   12  A    between atoms: CA_12  and  C_18
REMARK   13  A    between atoms: CB_13  and  CG_14
REMARK   14  A    between atoms: CG_14  and  CD1_22
REMARK   15  A    between atoms: CG_14  and  CD2_23
REMARK   16  A    between atoms: CA_15  and  CB_17
REMARK   17  A    between atoms: CA_15  and  C_26
REMARK   18  A    between atoms: CB_17  and  CG_19
REMARK   19  A    between atoms: CG_19  and  CD1_24
REMARK   20  A    between atoms: CG_19  and  CD2_25
REMARK   21  A    between atoms: C_28  and  C_29
REMARK                            x       y       z     vdW  Elec       q    Type
REMARK                         _______ _______ _______ _____ _____    ______ ____
ROOT
ATOM      1  O   UNL     1      33.247  15.565  19.225  0.00  0.00    +0.000 OA
ATOM      2  N   UNL     1      34.202  17.599  19.621  0.00  0.00    +0.000 N 
ATOM      3  C   UNL     1      33.144  16.788  19.248  0.00  0.00    +0.000 C 
ATOM      4  H   UNL     1      33.917  18.462  20.077  0.00  0.00    +0.000 HD
ENDROOT
BRANCH   2   5
ATOM      5  CA  UNL     1      35.433  16.992  20.129  0.00  0.00    +0.000 C 
BRANCH   5   8
ATOM      6  O   UNL     1      35.453  18.295  22.164  0.00  0.00    +0.000 OA
ATOM      7  N   UNL     1      35.231  16.106  22.493  0.00  0.00    +0.000 N 
ATOM      8  C   UNL     1      35.365  17.172  21.657  0.00  0.00    +0.000 C 
ATOM      9  H   UNL     1      35.174  16.407  23.460  0.00  0.00    +0.000 HD
BRANCH   7  10
ATOM     10  CA  UNL     1      34.759  14.753  22.198  0.00  0.00    +0.000 C 
BRANCH  10  12
ATOM     11  O   UNL     1      32.922  13.565  23.270  0.00  0.00    +0.000 OA
ATOM     12  C   UNL     1      33.326  14.576  22.700  0.00  0.00    +0.000 C 
ENDBRANCH  10  12
BRANCH  10  13
ATOM     13  CB  UNL     1      35.729  13.675  22.708  0.00  0.00    +0.000 C 
BRANCH  13  14
ATOM     14  CG  UNL     1      36.064  12.509  21.753  0.00  0.00    +0.000 C 
ATOM     15  CD1 UNL     1      35.542  11.156  22.233  0.00  0.00    +0.000 C 
ATOM     16  CD2 UNL     1      35.494  12.812  20.362  0.00  0.00    +0.000 C 
ENDBRANCH  13  14
ENDBRANCH  10  13
ENDBRANCH   7  10
ENDBRANCH   5   8
BRANCH   5  17
ATOM     17  CB  UNL     1      36.654  17.728  19.559  0.00  0.00    +0.000 C 
BRANCH  17  18
ATOM     18  CG  UNL     1      38.013  17.110  19.943  0.00  0.00    +0.000 C 
ATOM     19  CD1 UNL     1      38.098  15.626  19.585  0.00  0.00    +0.000 C 
ATOM     20  CD2 UNL     1      39.142  17.868  19.237  0.00  0.00    +0.000 C 
ENDBRANCH  17  18
ENDBRANCH   5  17
ENDBRANCH   2   5
BRANCH   3  21
ATOM     21  CA  UNL     1      31.824  17.542  18.951  0.00  0.00    +0.000 C 
BRANCH  21  23
ATOM     22  O   UNL     1      31.729  20.292  18.320  0.00  0.00    +0.000 OA
ATOM     23  N   UNL     1      31.875  18.119  17.601  0.00  0.00    +0.000 N 
ATOM     24  C   ACE A   0      31.783  19.473  17.416  0.00  0.00    +0.000 C 
ATOM     25  H   UNL     1      31.562  17.541  16.834  0.00  0.00    +0.000 HD
BRANCH  24  26
ATOM     26  O   UNL     1      31.646  19.816  16.113  0.00  0.00    +0.000 OA
BRANCH  26  27
ATOM     27  C   UNL     1      31.389  18.732  15.212  0.00  0.00    +0.000 C 
BRANCH  27  28
ATOM     28  C   UNL     1      31.345  19.250  13.795  0.00  0.00    +0.000 A 
ATOM     29  C   UNL     1      31.601  20.601  13.524  0.00  0.00    +0.000 A 
ATOM     30  C   UNL     1      30.990  18.404  12.734  0.00  0.00    +0.000 A 
ATOM     31  C   UNL     1      31.529  21.090  12.218  0.00  0.00    +0.000 A 
ATOM     32  C   UNL     1      30.918  18.893  11.428  0.00  0.00    +0.000 A 
ATOM     33  C   UNL     1      31.189  20.236  11.171  0.00  0.00    +0.000 A 
ENDBRANCH  27  28
ENDBRANCH  26  27
ENDBRANCH  24  26
ENDBRANCH  21  23
BRANCH  21  34
ATOM     34  CB  UNL     1      30.604  16.613  19.076  0.00  0.00    +0.000 C 
BRANCH  34  35
ATOM     35  CG  UNL     1      29.524  17.048  20.089  0.00  0.00    +0.000 C 
ATOM     36  CD1 UNL     1      29.257  15.983  21.152  0.00  0.00    +0.000 C 
ATOM     37  CD2 UNL     1      29.955  18.352  20.767  0.00  0.00    +0.000 C 
ENDBRANCH  34  35
ENDBRANCH  21  34
ENDBRANCH   3  21
TORSDOF 15
ENDMDL
MODEL 8
REMARK VINA RESULT:      -5.2     12.074     16.203
REMARK  Name = 
REMARK  21 active torsions:
REMARK  status: ('A' for Active; 'I' for Inactive)
REMARK    1  A    between atoms: O_3  and  C_27
REMARK    2  A    between atoms: O_3  and  C_28
REMARK    3  A    between atoms: N_6  and  CA_9
REMARK    4  A    between atoms: N_7  and  CA_15
REMARK    5  A    between atoms: N_8  and  CA_12
REMARK    6  A    between atoms: CA_9  and  CB_10
REMARK    7  A    between atoms: CA_9  and  C_16
REMARK    8  A    between atoms: CB_10  and  CG_11
REMARK    9  A    between atoms: CG_11  and  CD1_20
REMARK   10  A    between atoms: CG_11  and  CD2_21
REMARK   11  A    between atoms: CA_12  and  CB_13
REMARK   12  A    between atoms: CA_12  and  C_18
REMARK   13  A    between atoms: CB_13  and  CG_14
REMARK   14  A    between atoms: CG_14  and  CD1_22
REMARK   15  A    between atoms: CG_14  and  CD2_23
REMARK   16  A    between atoms: CA_15  and  CB_17
REMARK   17  A    between atoms: CA_15  and  C_26
REMARK   18  A    between atoms: CB_17  and  CG_19
REMARK   19  A    between atoms: CG_19  and  CD1_24
REMARK   20  A    between atoms: CG_19  and  CD2_25
REMARK   21  A    between atoms: C_28  and  C_29
REMARK                            x       y       z     vdW  Elec       q    Type
REMARK                         _______ _______ _______ _____ _____    ______ ____
ROOT
ATOM      1  O   UNL     1      41.871  -3.451  17.665  0.00  0.00    +0.000 OA
ATOM      2  N   UNL     1      42.065  -1.252  17.091  0.00  0.00    +0.000 N 
ATOM      3  C   UNL     1      42.295  -2.330  17.929  0.00  0.00    +0.000 C 
ATOM      4  H   UNL     1      42.808  -0.557  17.100  0.00  0.00    +0.000 HD
ENDROOT
BRANCH   2   5
ATOM      5  CA  UNL     1      41.419  -1.469  15.796  0.00  0.00    +0.000 C 
BRANCH   5   8
ATOM      6  O   UNL     1      42.348   0.635  15.054  0.00  0.00    +0.000 OA
ATOM      7  N   UNL     1      42.682  -1.051  13.641  0.00  0.00    +0.000 N 
ATOM      8  C   UNL     1      42.185  -0.565  14.812  0.00  0.00    +0.000 C 
ATOM      9  H   UNL     1      43.181  -0.330  13.131  0.00  0.00    +0.000 HD
BRANCH   7  10
ATOM     10  CA  UNL     1      42.955  -2.436  13.256  0.00  0.00    +0.000 C 
BRANCH  10  12
ATOM     11  O   UNL     1      41.533  -4.191  12.343  0.00  0.00    +0.000 OA
ATOM     12  C   UNL     1      41.790  -2.993  12.438  0.00  0.00    +0.000 C 
ENDBRANCH  10  12
BRANCH  10  13
ATOM     13  CB  UNL     1      43.336  -3.309  14.462  0.00  0.00    +0.000 C 
BRANCH  13  14
ATOM     14  CG  UNL     1      44.801  -3.791  14.558  0.00  0.00    +0.000 C 
ATOM     15  CD1 UNL     1      45.382  -3.703  15.968  0.00  0.00    +0.000 C 
ATOM     16  CD2 UNL     1      44.894  -5.236  14.057  0.00  0.00    +0.000 C 
ENDBRANCH  13  14
ENDBRANCH  10  13
ENDBRANCH   7  10
ENDBRANCH   5   8
BRANCH   5  17
ATOM     17  CB  UNL     1      39.944  -1.047  15.869  0.00  0.00    +0.000 C 
BRANCH  17  18
ATOM     18  CG  UNL     1      38.969  -1.992  15.140  0.00  0.00    +0.000 C 
ATOM     19  CD1 UNL     1      38.761  -1.597  13.677  0.00  0.00    +0.000 C 
ATOM     20  CD2 UNL     1      39.496  -3.429  15.207  0.00  0.00    +0.000 C 
ENDBRANCH  17  18
ENDBRANCH   5  17
ENDBRANCH   2   5
BRANCH   3  21
ATOM     21  CA  UNL     1      43.187  -2.016  19.156  0.00  0.00    +0.000 C 
BRANCH  21  23
ATOM     22  O   UNL     1      43.820   0.717  18.843  0.00  0.00    +0.000 OA
ATOM     23  N   UNL     1      42.607  -0.904  19.920  0.00  0.00    +0.000 N 
ATOM     24  C   ACE A   0      43.021   0.383  19.703  0.00  0.00    +0.000 C 
ATOM     25  H   UNL     1      42.244  -1.108  20.841  0.00  0.00    +0.000 HD
BRANCH  24  26
ATOM     26  O   UNL     1      42.536   1.253  20.621  0.00  0.00    +0.000 OA
BRANCH  26  27
ATOM     27  C   UNL     1      43.504   2.122  21.221  0.00  0.00    +0.000 C 
BRANCH  27  28
ATOM     28  C   UNL     1      42.833   2.993  22.255  0.00  0.00    +0.000 A 
ATOM     29  C   UNL     1      42.623   4.356  22.009  0.00  0.00    +0.000 A 
ATOM     30  C   UNL     1      42.461   2.467  23.502  0.00  0.00    +0.000 A 
ATOM     31  C   UNL     1      42.032   5.170  22.977  0.00  0.00    +0.000 A 
ATOM     32  C   UNL     1      41.870   3.281  24.469  0.00  0.00    +0.000 A 
ATOM     33  C   UNL     1      41.655   4.633  24.206  0.00  0.00    +0.000 A 
ENDBRANCH  27  28
ENDBRANCH  26  27
ENDBRANCH  24  26
ENDBRANCH  21  23
BRANCH  21  34
ATOM     34  CB  UNL     1      43.346  -3.247  20.066  0.00  0.00    +0.000 C 
BRANCH  34  35
ATOM     35  CG  UNL     1      44.760  -3.860  20.133  0.00  0.00    +0.000 C 
ATOM     36  CD1 UNL     1      44.871  -5.164  19.343  0.00  0.00    +0.000 C 
ATOM     37  CD2 UNL     1      45.781  -2.849  19.598  0.00  0.00    +0.000 C 
ENDBRANCH  34  35
ENDBRANCH  21  34
ENDBRANCH   3  21
TORSDOF 15
ENDMDL
MODEL 9
REMARK VINA RESULT:      -5.2     22.358     25.309
REMARK  Name = 
REMARK  21 active torsions:
REMARK  status: ('A' for Active; 'I' for Inactive)
REMARK    1  A    between atoms: O_3  and  C_27
REMARK    2  A    between atoms: O_3  and  C_28
REMARK    3  A    between atoms: N_6  and  CA_9
REMARK    4  A    between atoms: N_7  and  CA_15
REMARK    5  A    between atoms: N_8  and  CA_12
REMARK    6  A    between atoms: CA_9  and  CB_10
REMARK    7  A    between atoms: CA_9  and  C_16
REMARK    8  A    between atoms: CB_10  and  CG_11
REMARK    9  A    between atoms: CG_11  and  CD1_20
REMARK   10  A    between atoms: CG_11  and  CD2_21
REMARK   11  A    between atoms: CA_12  and  CB_13
REMARK   12  A    between atoms: CA_12  and  C_18
REMARK   13  A    between atoms: CB_13  and  CG_14
REMARK   14  A    between atoms: CG_14  and  CD1_22
REMARK   15  A    between atoms: CG_14  and  CD2_23
REMARK   16  A    between atoms: CA_15  and  CB_17
REMARK   17  A    between atoms: CA_15  and  C_26
REMARK   18  A    between atoms: CB_17  and  CG_19
REMARK   19  A    between atoms: CG_19  and  CD1_24
REMARK   20  A    between atoms: CG_19  and  CD2_25
REMARK   21  A    between atoms: C_28  and  C_29
REMARK                            x       y       z     vdW  Elec       q    Type
REMARK                         _______ _______ _______ _____ _____    ______ ____
ROOT
ATOM      1  O   UNL     1      35.056  15.233  23.083  0.00  0.00    +0.000 OA
ATOM      2  N   UNL     1      34.697  14.151  21.107  0.00  0.00    +0.000 N 
ATOM      3  C   UNL     1      35.112  15.239  21.857  0.00  0.00    +0.000 C 
ATOM      4  H   UNL     1      35.209  14.033  20.236  0.00  0.00    +0.000 HD
ENDROOT
BRANCH   2   5
ATOM      5  CA  UNL     1      34.309  12.913  21.784  0.00  0.00    +0.000 C 
BRANCH   5   8
ATOM      6  O   UNL     1      36.257  12.134  20.584  0.00  0.00    +0.000 OA
ATOM      7  N   UNL     1      35.623  10.797  22.246  0.00  0.00    +0.000 N 
ATOM      8  C   UNL     1      35.461  11.928  21.506  0.00  0.00    +0.000 C 
ATOM      9  H   UNL     1      36.445  10.282  21.948  0.00  0.00    +0.000 HD
BRANCH   7  10
ATOM     10  CA  UNL     1      35.090  10.474  23.569  0.00  0.00    +0.000 C 
BRANCH  10  12
ATOM     11  O   UNL     1      36.398  12.176  24.722  0.00  0.00    +0.000 OA
ATOM     12  C   UNL     1      36.024  11.007  24.656  0.00  0.00    +0.000 C 
ENDBRANCH  10  12
BRANCH  10  13
ATOM     13  CB  UNL     1      34.766   8.979  23.715  0.00  0.00    +0.000 C 
BRANCH  13  14
ATOM     14  CG  UNL     1      33.276   8.576  23.772  0.00  0.00    +0.000 C 
ATOM     15  CD1 UNL     1      32.407   9.554  24.561  0.00  0.00    +0.000 C 
ATOM     16  CD2 UNL     1      32.730   8.444  22.346  0.00  0.00    +0.000 C 
ENDBRANCH  13  14
ENDBRANCH  10  13
ENDBRANCH   7  10
ENDBRANCH   5   8
BRANCH   5  17
ATOM     17  CB  UNL     1      32.998  12.380  21.189  0.00  0.00    +0.000 C 
BRANCH  17  18
ATOM     18  CG  UNL     1      31.786  12.454  22.139  0.00  0.00    +0.000 C 
ATOM     19  CD1 UNL     1      32.136  13.100  23.480  0.00  0.00    +0.000 C 
ATOM     20  CD2 UNL     1      30.657  13.248  21.473  0.00  0.00    +0.000 C 
ENDBRANCH  17  18
ENDBRANCH   5  17
ENDBRANCH   2   5
BRANCH   3  21
ATOM     21  CA  UNL     1      35.714  16.402  21.031  0.00  0.00    +0.000 C 
BRANCH  21  23
ATOM     22  O   UNL     1      33.792  18.467  20.959  0.00  0.00    +0.000 OA
ATOM     23  N   UNL     1      35.735  17.627  21.841  0.00  0.00    +0.000 N 
ATOM     24  C   ACE A   0      34.762  18.579  21.692  0.00  0.00    +0.000 C 
ATOM     25  H   UNL     1      36.632  17.953  22.173  0.00  0.00    +0.000 HD
BRANCH  24  26
ATOM     26  O   UNL     1      35.040  19.723  22.362  0.00  0.00    +0.000 OA
BRANCH  26  27
ATOM     27  C   UNL     1      34.867  20.934  21.617  0.00  0.00    +0.000 C 
BRANCH  27  28
ATOM     28  C   UNL     1      36.216  21.530  21.296  0.00  0.00    +0.000 A 
ATOM     29  C   UNL     1      36.570  22.792  21.790  0.00  0.00    +0.000 A 
ATOM     30  C   UNL     1      37.112  20.859  20.450  0.00  0.00    +0.000 A 
ATOM     31  C   UNL     1      37.805  23.359  21.468  0.00  0.00    +0.000 A 
ATOM     32  C   UNL     1      38.346  21.427  20.129  0.00  0.00    +0.000 A 
ATOM     33  C   UNL     1      38.693  22.677  20.639  0.00  0.00    +0.000 A 
ENDBRANCH  27  28
ENDBRANCH  26  27
ENDBRANCH  24  26
ENDBRANCH  21  23
BRANCH  21  34
ATOM     34  CB  UNL     1      37.138  16.071  20.548  0.00  0.00    +0.000 C 
BRANCH  34  35
ATOM     35  CG  UNL     1      37.592  16.772  19.251  0.00  0.00    +0.000 C 
ATOM     36  CD1 UNL     1      36.556  17.770  18.733  0.00  0.00    +0.000 C 
ATOM     37  CD2 UNL     1      38.920  17.496  19.499  0.00  0.00    +0.000 C 
ENDBRANCH  34  35
ENDBRANCH  21  34
ENDBRANCH   3  21
TORSDOF 15
ENDMDL
