MODEL 1
REMARK VINA RESULT:      -5.5      0.000      0.000
REMARK  Name = Monobenzone.pdbqt.pdb
REMARK  4 active torsions:
REMARK  status: ('A' for Active; 'I' for Inactive)
REMARK    1  A    between atoms: C_1  and  O_7
REMARK    2  A    between atoms: C_6  and  O_15
REMARK    3  A    between atoms: O_7  and  C_8
REMARK    4  A    between atoms: C_8  and  C_9
REMARK                            x       y       z     vdW  Elec       q    Type
REMARK                         _______ _______ _______ _____ _____    ______ ____
ROOT
ATOM      1  C   UNL     1      36.079  14.235  20.695  0.00  0.00    +0.000 A 
ATOM      2  C   UNL     1      35.031  15.078  21.070  0.00  0.00    +0.000 A 
ATOM      3  C   UNL     1      35.864  12.858  20.614  0.00  0.00    +0.000 A 
ATOM      4  C   UNL     1      33.776  14.551  21.362  0.00  0.00    +0.000 A 
ATOM      5  C   UNL     1      34.611  12.325  20.905  0.00  0.00    +0.000 A 
ATOM      6  C   UNL     1      33.576  13.177  21.277  0.00  0.00    +0.000 A 
ENDROOT
BRANCH   6   7
ATOM      7  O   UNL     1      32.357  12.633  21.557  0.00  0.00    +0.000 OA
ATOM      8  H   UNL     1      31.693  13.344  21.537  0.00  0.00    +0.000 HD
ENDBRANCH   6   7
BRANCH   1   9
ATOM      9  O   UNL     1      37.348  14.661  20.389  0.00  0.00    +0.000 OA
BRANCH   9  10
ATOM     10  C   UNL     1      37.435  15.937  20.020  0.00  0.00    +0.000 C 
BRANCH  10  11
ATOM     11  C   UNL     1      37.513  17.305  19.624  0.00  0.00    +0.000 A 
ATOM     12  C   UNL     1      36.345  18.046  19.461  0.00  0.00    +0.000 A 
ATOM     13  C   UNL     1      36.421  19.381  19.069  0.00  0.00    +0.000 A 
ATOM     14  C   UNL     1      37.662  19.970  18.841  0.00  0.00    +0.000 A 
ATOM     15  C   UNL     1      38.828  19.226  19.005  0.00  0.00    +0.000 A 
ATOM     16  C   UNL     1      38.755  17.892  19.396  0.00  0.00    +0.000 A 
ENDBRANCH  10  11
ENDBRANCH   9  10
ENDBRANCH   1   9
TORSDOF 4
ENDMDL
MODEL 2
REMARK VINA RESULT:      -5.1     20.133     22.062
REMARK  Name = Monobenzone.pdbqt.pdb
REMARK  4 active torsions:
REMARK  status: ('A' for Active; 'I' for Inactive)
REMARK    1  A    between atoms: C_1  and  O_7
REMARK    2  A    between atoms: C_6  and  O_15
REMARK    3  A    between atoms: O_7  and  C_8
REMARK    4  A    between atoms: C_8  and  C_9
REMARK                            x       y       z     vdW  Elec       q    Type
REMARK                         _______ _______ _______ _____ _____    ______ ____
ROOT
ATOM      1  C   UNL     1      51.529   5.978   9.516  0.00  0.00    +0.000 A 
ATOM      2  C   UNL     1      51.130   6.069   8.180  0.00  0.00    +0.000 A 
ATOM      3  C   UNL     1      51.574   7.129  10.304  0.00  0.00    +0.000 A 
ATOM      4  C   UNL     1      50.777   7.301   7.635  0.00  0.00    +0.000 A 
ATOM      5  C   UNL     1      51.224   8.364   9.764  0.00  0.00    +0.000 A 
ATOM      6  C   UNL     1      50.828   8.440   8.433  0.00  0.00    +0.000 A 
ENDROOT
BRANCH   6   7
ATOM      7  O   UNL     1      50.488   9.660   7.925  0.00  0.00    +0.000 OA
ATOM      8  H   UNL     1      49.672   9.957   8.364  0.00  0.00    +0.000 HD
ENDBRANCH   6   7
BRANCH   1   9
ATOM      9  O   UNL     1      51.893   4.811  10.140  0.00  0.00    +0.000 OA
BRANCH   9  10
ATOM     10  C   UNL     1      51.076   3.783   9.924  0.00  0.00    +0.000 C 
BRANCH  10  11
ATOM     11  C   UNL     1      50.200   2.678   9.710  0.00  0.00    +0.000 A 
ATOM     12  C   UNL     1      49.823   1.874  10.783  0.00  0.00    +0.000 A 
ATOM     13  C   UNL     1      48.972   0.790  10.571  0.00  0.00    +0.000 A 
ATOM     14  C   UNL     1      48.502   0.515   9.290  0.00  0.00    +0.000 A 
ATOM     15  C   UNL     1      48.880   1.321   8.219  0.00  0.00    +0.000 A 
ATOM     16  C   UNL     1      49.730   2.403   8.428  0.00  0.00    +0.000 A 
ENDBRANCH  10  11
ENDBRANCH   9  10
ENDBRANCH   1   9
TORSDOF 4
ENDMDL
MODEL 3
REMARK VINA RESULT:      -5.0     21.561     22.985
REMARK  Name = Monobenzone.pdbqt.pdb
REMARK  4 active torsions:
REMARK  status: ('A' for Active; 'I' for Inactive)
REMARK    1  A    between atoms: C_1  and  O_7
REMARK    2  A    between atoms: C_6  and  O_15
REMARK    3  A    between atoms: O_7  and  C_8
REMARK    4  A    between atoms: C_8  and  C_9
REMARK                            x       y       z     vdW  Elec       q    Type
REMARK                         _______ _______ _______ _____ _____    ______ ____
ROOT
ATOM      1  C   UNL     1      49.023   1.008   7.993  0.00  0.00    +0.000 A 
ATOM      2  C   UNL     1      49.496   1.304   6.713  0.00  0.00    +0.000 A 
ATOM      3  C   UNL     1      49.285  -0.243   8.555  0.00  0.00    +0.000 A 
ATOM      4  C   UNL     1      50.227   0.359   5.999  0.00  0.00    +0.000 A 
ATOM      5  C   UNL     1      50.015  -1.193   7.844  0.00  0.00    +0.000 A 
ATOM      6  C   UNL     1      50.481  -0.883   6.571  0.00  0.00    +0.000 A 
ENDROOT
BRANCH   6   7
ATOM      7  O   UNL     1      51.194  -1.829   5.894  0.00  0.00    +0.000 OA
ATOM      8  H   UNL     1      51.561  -2.456   6.540  0.00  0.00    +0.000 HD
ENDBRANCH   6   7
BRANCH   1   9
ATOM      9  O   UNL     1      48.296   1.873   8.773  0.00  0.00    +0.000 OA
BRANCH   9  10
ATOM     10  C   UNL     1      49.009   2.552   9.668  0.00  0.00    +0.000 C 
BRANCH  10  11
ATOM     11  C   UNL     1      49.772   3.268  10.637  0.00  0.00    +0.000 A 
ATOM     12  C   UNL     1      50.854   2.650  11.261  0.00  0.00    +0.000 A 
ATOM     13  C   UNL     1      51.596   3.347  12.212  0.00  0.00    +0.000 A 
ATOM     14  C   UNL     1      51.255   4.658  12.536  0.00  0.00    +0.000 A 
ATOM     15  C   UNL     1      50.173   5.274  11.911  0.00  0.00    +0.000 A 
ATOM     16  C   UNL     1      49.430   4.579  10.960  0.00  0.00    +0.000 A 
ENDBRANCH  10  11
ENDBRANCH   9  10
ENDBRANCH   1   9
TORSDOF 4
ENDMDL
MODEL 4
REMARK VINA RESULT:      -4.8     19.178     20.820
REMARK  Name = Monobenzone.pdbqt.pdb
REMARK  4 active torsions:
REMARK  status: ('A' for Active; 'I' for Inactive)
REMARK    1  A    between atoms: C_1  and  O_7
REMARK    2  A    between atoms: C_6  and  O_15
REMARK    3  A    between atoms: O_7  and  C_8
REMARK    4  A    between atoms: C_8  and  C_9
REMARK                            x       y       z     vdW  Elec       q    Type
REMARK                         _______ _______ _______ _____ _____    ______ ____
ROOT
ATOM      1  C   UNL     1      51.548   6.493   9.033  0.00  0.00    +0.000 A 
ATOM      2  C   UNL     1      50.372   6.960   8.441  0.00  0.00    +0.000 A 
ATOM      3  C   UNL     1      52.784   6.897   8.526  0.00  0.00    +0.000 A 
ATOM      4  C   UNL     1      50.429   7.825   7.352  0.00  0.00    +0.000 A 
ATOM      5  C   UNL     1      52.848   7.761   7.436  0.00  0.00    +0.000 A 
ATOM      6  C   UNL     1      51.669   8.219   6.858  0.00  0.00    +0.000 A 
ENDROOT
BRANCH   6   7
ATOM      7  O   UNL     1      51.755   9.066   5.792  0.00  0.00    +0.000 OA
ATOM      8  H   UNL     1      52.021   9.942   6.119  0.00  0.00    +0.000 HD
ENDBRANCH   6   7
BRANCH   1   9
ATOM      9  O   UNL     1      51.592   5.640  10.107  0.00  0.00    +0.000 OA
BRANCH   9  10
ATOM     10  C   UNL     1      51.632   6.239  11.295  0.00  0.00    +0.000 C 
BRANCH  10  11
ATOM     11  C   UNL     1      51.663   6.871  12.573  0.00  0.00    +0.000 A 
ATOM     12  C   UNL     1      50.564   6.770  13.423  0.00  0.00    +0.000 A 
ATOM     13  C   UNL     1      50.593   7.393  14.669  0.00  0.00    +0.000 A 
ATOM     14  C   UNL     1      51.718   8.113  15.062  0.00  0.00    +0.000 A 
ATOM     15  C   UNL     1      52.816   8.212  14.210  0.00  0.00    +0.000 A 
ATOM     16  C   UNL     1      52.789   7.591  12.965  0.00  0.00    +0.000 A 
ENDBRANCH  10  11
ENDBRANCH   9  10
ENDBRANCH   1   9
TORSDOF 4
ENDMDL
MODEL 5
REMARK VINA RESULT:      -4.7     25.690     27.263
REMARK  Name = Monobenzone.pdbqt.pdb
REMARK  4 active torsions:
REMARK  status: ('A' for Active; 'I' for Inactive)
REMARK    1  A    between atoms: C_1  and  O_7
REMARK    2  A    between atoms: C_6  and  O_15
REMARK    3  A    between atoms: O_7  and  C_8
REMARK    4  A    between atoms: C_8  and  C_9
REMARK                            x       y       z     vdW  Elec       q    Type
REMARK                         _______ _______ _______ _____ _____    ______ ____
ROOT
ATOM      1  C   UNL     1      51.593  -1.604   3.909  0.00  0.00    +0.000 A 
ATOM      2  C   UNL     1      50.683  -0.666   3.415  0.00  0.00    +0.000 A 
ATOM      3  C   UNL     1      52.441  -2.275   3.027  0.00  0.00    +0.000 A 
ATOM      4  C   UNL     1      50.621  -0.400   2.050  0.00  0.00    +0.000 A 
ATOM      5  C   UNL     1      52.383  -2.014   1.660  0.00  0.00    +0.000 A 
ATOM      6  C   UNL     1      51.472  -1.077   1.182  0.00  0.00    +0.000 A 
ENDROOT
BRANCH   6   7
ATOM      7  O   UNL     1      51.434  -0.836  -0.160  0.00  0.00    +0.000 OA
ATOM      8  H   UNL     1      50.958  -1.569  -0.588  0.00  0.00    +0.000 HD
ENDBRANCH   6   7
BRANCH   1   9
ATOM      9  O   UNL     1      51.727  -1.932   5.235  0.00  0.00    +0.000 OA
BRANCH   9  10
ATOM     10  C   UNL     1      50.967  -1.224   6.066  0.00  0.00    +0.000 C 
BRANCH  10  11
ATOM     11  C   UNL     1      50.142  -0.478   6.959  0.00  0.00    +0.000 A 
ATOM     12  C   UNL     1      49.797  -1.015   8.197  0.00  0.00    +0.000 A 
ATOM     13  C   UNL     1      48.987  -0.288   9.067  0.00  0.00    +0.000 A 
ATOM     14  C   UNL     1      48.524   0.973   8.697  0.00  0.00    +0.000 A 
ATOM     15  C   UNL     1      48.871   1.508   7.458  0.00  0.00    +0.000 A 
ATOM     16  C   UNL     1      49.680   0.783   6.588  0.00  0.00    +0.000 A 
ENDBRANCH  10  11
ENDBRANCH   9  10
ENDBRANCH   1   9
TORSDOF 4
ENDMDL
MODEL 6
REMARK VINA RESULT:      -4.4     20.950     22.068
REMARK  Name = Monobenzone.pdbqt.pdb
REMARK  4 active torsions:
REMARK  status: ('A' for Active; 'I' for Inactive)
REMARK    1  A    between atoms: C_1  and  O_7
REMARK    2  A    between atoms: C_6  and  O_15
REMARK    3  A    between atoms: O_7  and  C_8
REMARK    4  A    between atoms: C_8  and  C_9
REMARK                            x       y       z     vdW  Elec       q    Type
REMARK                         _______ _______ _______ _____ _____    ______ ____
ROOT
ATOM      1  C   UNL     1      50.859   2.639   8.015  0.00  0.00    +0.000 A 
ATOM      2  C   UNL     1      50.099   1.729   7.277  0.00  0.00    +0.000 A 
ATOM      3  C   UNL     1      50.602   2.813   9.375  0.00  0.00    +0.000 A 
ATOM      4  C   UNL     1      49.089   0.996   7.895  0.00  0.00    +0.000 A 
ATOM      5  C   UNL     1      49.593   2.083   9.998  0.00  0.00    +0.000 A 
ATOM      6  C   UNL     1      48.844   1.179   9.252  0.00  0.00    +0.000 A 
ENDROOT
BRANCH   6   7
ATOM      7  O   UNL     1      47.861   0.474   9.883  0.00  0.00    +0.000 OA
ATOM      8  H   UNL     1      48.194   0.198  10.754  0.00  0.00    +0.000 HD
ENDBRANCH   6   7
BRANCH   1   9
ATOM      9  O   UNL     1      51.873   3.405   7.495  0.00  0.00    +0.000 OA
BRANCH   9  10
ATOM     10  C   UNL     1      51.678   4.719   7.572  0.00  0.00    +0.000 C 
BRANCH  10  11
ATOM     11  C   UNL     1      51.452   6.125   7.653  0.00  0.00    +0.000 A 
ATOM     12  C   UNL     1      51.380   6.883   6.486  0.00  0.00    +0.000 A 
ATOM     13  C   UNL     1      51.165   8.258   6.565  0.00  0.00    +0.000 A 
ATOM     14  C   UNL     1      51.022   8.870   7.808  0.00  0.00    +0.000 A 
ATOM     15  C   UNL     1      51.094   8.109   8.973  0.00  0.00    +0.000 A 
ATOM     16  C   UNL     1      51.309   6.735   8.896  0.00  0.00    +0.000 A 
ENDBRANCH  10  11
ENDBRANCH   9  10
ENDBRANCH   1   9
TORSDOF 4
ENDMDL
MODEL 7
REMARK VINA RESULT:      -4.3     33.535     35.037
REMARK  Name = Monobenzone.pdbqt.pdb
REMARK  4 active torsions:
REMARK  status: ('A' for Active; 'I' for Inactive)
REMARK    1  A    between atoms: C_1  and  O_7
REMARK    2  A    between atoms: C_6  and  O_15
REMARK    3  A    between atoms: O_7  and  C_8
REMARK    4  A    between atoms: C_8  and  C_9
REMARK                            x       y       z     vdW  Elec       q    Type
REMARK                         _______ _______ _______ _____ _____    ______ ____
ROOT
ATOM      1  C   UNL     1      42.332 -11.682  -2.099  0.00  0.00    +0.000 A 
ATOM      2  C   UNL     1      42.016 -10.742  -1.114  0.00  0.00    +0.000 A 
ATOM      3  C   UNL     1      41.427 -12.701  -2.398  0.00  0.00    +0.000 A 
ATOM      4  C   UNL     1      40.804 -10.820  -0.434  0.00  0.00    +0.000 A 
ATOM      5  C   UNL     1      40.214 -12.784  -1.720  0.00  0.00    +0.000 A 
ATOM      6  C   UNL     1      39.912 -11.841  -0.743  0.00  0.00    +0.000 A 
ENDROOT
BRANCH   6   7
ATOM      7  O   UNL     1      38.717 -11.942  -0.092  0.00  0.00    +0.000 OA
ATOM      8  H   UNL     1      38.739 -12.738   0.466  0.00  0.00    +0.000 HD
ENDBRANCH   6   7
BRANCH   1   9
ATOM      9  O   UNL     1      43.499 -11.687  -2.822  0.00  0.00    +0.000 OA
BRANCH   9  10
ATOM     10  C   UNL     1      44.415 -10.813  -2.411  0.00  0.00    +0.000 C 
BRANCH  10  11
ATOM     11  C   UNL     1      45.385  -9.867  -1.965  0.00  0.00    +0.000 A 
ATOM     12  C   UNL     1      45.000  -8.556  -1.692  0.00  0.00    +0.000 A 
ATOM     13  C   UNL     1      45.949  -7.631  -1.261  0.00  0.00    +0.000 A 
ATOM     14  C   UNL     1      47.278  -8.018  -1.104  0.00  0.00    +0.000 A 
ATOM     15  C   UNL     1      47.659  -9.330  -1.376  0.00  0.00    +0.000 A 
ATOM     16  C   UNL     1      46.713 -10.256  -1.807  0.00  0.00    +0.000 A 
ENDBRANCH  10  11
ENDBRANCH   9  10
ENDBRANCH   1   9
TORSDOF 4
ENDMDL
MODEL 8
REMARK VINA RESULT:      -4.2     19.546     21.812
REMARK  Name = Monobenzone.pdbqt.pdb
REMARK  4 active torsions:
REMARK  status: ('A' for Active; 'I' for Inactive)
REMARK    1  A    between atoms: C_1  and  O_7
REMARK    2  A    between atoms: C_6  and  O_15
REMARK    3  A    between atoms: O_7  and  C_8
REMARK    4  A    between atoms: C_8  and  C_9
REMARK                            x       y       z     vdW  Elec       q    Type
REMARK                         _______ _______ _______ _____ _____    ______ ____
ROOT
ATOM      1  C   UNL     1      44.400  -4.766  16.150  0.00  0.00    +0.000 A 
ATOM      2  C   UNL     1      45.317  -3.758  15.841  0.00  0.00    +0.000 A 
ATOM      3  C   UNL     1      44.561  -5.511  17.319  0.00  0.00    +0.000 A 
ATOM      4  C   UNL     1      46.387  -3.497  16.693  0.00  0.00    +0.000 A 
ATOM      5  C   UNL     1      45.629  -5.255  18.175  0.00  0.00    +0.000 A 
ATOM      6  C   UNL     1      46.534  -4.248  17.855  0.00  0.00    +0.000 A 
ENDROOT
BRANCH   6   7
ATOM      7  O   UNL     1      47.572  -4.013  18.708  0.00  0.00    +0.000 OA
ATOM      8  H   UNL     1      48.380  -3.892  18.180  0.00  0.00    +0.000 HD
ENDBRANCH   6   7
BRANCH   1   9
ATOM      9  O   UNL     1      43.317  -5.096  15.374  0.00  0.00    +0.000 OA
BRANCH   9  10
ATOM     10  C   UNL     1      42.845  -4.104  14.624  0.00  0.00    +0.000 C 
BRANCH  10  11
ATOM     11  C   UNL     1      42.337  -3.051  13.806  0.00  0.00    +0.000 A 
ATOM     12  C   UNL     1      42.405  -1.733  14.252  0.00  0.00    +0.000 A 
ATOM     13  C   UNL     1      41.904  -0.706  13.456  0.00  0.00    +0.000 A 
ATOM     14  C   UNL     1      41.336  -0.998  12.218  0.00  0.00    +0.000 A 
ATOM     15  C   UNL     1      41.270  -2.317  11.774  0.00  0.00    +0.000 A 
ATOM     16  C   UNL     1      41.770  -3.345  12.568  0.00  0.00    +0.000 A 
ENDBRANCH  10  11
ENDBRANCH   9  10
ENDBRANCH   1   9
TORSDOF 4
ENDMDL
MODEL 9
REMARK VINA RESULT:      -4.2     19.534     21.347
REMARK  Name = Monobenzone.pdbqt.pdb
REMARK  4 active torsions:
REMARK  status: ('A' for Active; 'I' for Inactive)
REMARK    1  A    between atoms: C_1  and  O_7
REMARK    2  A    between atoms: C_6  and  O_15
REMARK    3  A    between atoms: O_7  and  C_8
REMARK    4  A    between atoms: C_8  and  C_9
REMARK                            x       y       z     vdW  Elec       q    Type
REMARK                         _______ _______ _______ _____ _____    ______ ____
ROOT
ATOM      1  C   UNL     1      51.048   5.975  12.834  0.00  0.00    +0.000 A 
ATOM      2  C   UNL     1      52.259   5.309  13.036  0.00  0.00    +0.000 A 
ATOM      3  C   UNL     1      50.717   7.067  13.638  0.00  0.00    +0.000 A 
ATOM      4  C   UNL     1      53.135   5.731  14.033  0.00  0.00    +0.000 A 
ATOM      5  C   UNL     1      51.589   7.493  14.637  0.00  0.00    +0.000 A 
ATOM      6  C   UNL     1      52.792   6.821  14.826  0.00  0.00    +0.000 A 
ENDROOT
BRANCH   6   7
ATOM      7  O   UNL     1      53.630   7.257  15.810  0.00  0.00    +0.000 OA
ATOM      8  H   UNL     1      53.407   6.787  16.632  0.00  0.00    +0.000 HD
ENDBRANCH   6   7
BRANCH   1   9
ATOM      9  O   UNL     1      50.123   5.634  11.879  0.00  0.00    +0.000 OA
BRANCH   9  10
ATOM     10  C   UNL     1      50.263   4.409  11.378  0.00  0.00    +0.000 C 
BRANCH  10  11
ATOM     11  C   UNL     1      50.410   3.089  10.857  0.00  0.00    +0.000 A 
ATOM     12  C   UNL     1      49.962   2.799   9.570  0.00  0.00    +0.000 A 
ATOM     13  C   UNL     1      50.101   1.508   9.063  0.00  0.00    +0.000 A 
ATOM     14  C   UNL     1      50.687   0.513   9.842  0.00  0.00    +0.000 A 
ATOM     15  C   UNL     1      51.135   0.807  11.128  0.00  0.00    +0.000 A 
ATOM     16  C   UNL     1      50.997   2.096  11.637  0.00  0.00    +0.000 A 
ENDBRANCH  10  11
ENDBRANCH   9  10
ENDBRANCH   1   9
TORSDOF 4
ENDMDL
