MODEL 1
REMARK VINA RESULT:      -6.6      0.000      0.000
REMARK  Name = 
REMARK  5 active torsions:
REMARK  status: ('A' for Active; 'I' for Inactive)
REMARK    1  A    between atoms: O_4  and  C_15
REMARK    2  A    between atoms: C_6  and  C_13
REMARK    3  A    between atoms: C_7  and  C_12
REMARK    4  A    between atoms: C_8  and  C_14
REMARK    5  A    between atoms: C_12  and  C_15
REMARK                            x       y       z     vdW  Elec       q    Type
REMARK                         _______ _______ _______ _____ _____    ______ ____
ROOT
ATOM      1  C   UNL     1      35.785  14.395  21.374  0.00  0.00    +0.000 A 
ATOM      2  C   UNL     1      36.504  16.662  20.782  0.00  0.00    +0.000 A 
ATOM      3  C   UNL     1      35.057  14.914  22.467  0.00  0.00    +0.000 A 
ATOM      4  C   UNL     1      36.502  15.281  20.545  0.00  0.00    +0.000 A 
ATOM      5  C   UNL     1      35.788  17.161  21.874  0.00  0.00    +0.000 A 
ATOM      6  C   UNL     1      35.072  16.297  22.705  0.00  0.00    +0.000 A 
ATOM      7  C   UNL     1      34.278  14.019  23.391  0.00  0.00    +0.000 C 
ENDROOT
BRANCH   1  11
ATOM      8  F   UNL     1      34.590  12.421  20.728  0.00  0.00    +0.000 F 
ATOM      9  F   UNL     1      36.643  12.576  20.046  0.00  0.00    +0.000 F 
ATOM     10  F   UNL     1      36.228  12.163  22.137  0.00  0.00    +0.000 F 
ATOM     11  C   UNL     1      35.814  12.910  21.076  0.00  0.00    +0.000 C 
ENDBRANCH   1  11
BRANCH   2  12
ATOM     12  C   UNL     1      37.293  17.593  19.893  0.00  0.00    +0.000 C 
BRANCH  12  14
ATOM     13  O   UNL     1      38.772  15.928  18.848  0.00  0.00    +0.000 OA
ATOM     14  C   UNL     1      38.588  17.006  19.388  0.00  0.00    +0.000 C 
BRANCH  14  15
ATOM     15  O   UNL     1      39.627  17.849  19.578  0.00  0.00    +0.000 OA
ATOM     16  H   UNL     1      39.412  18.295  20.425  0.00  0.00    +0.000 HD
ENDBRANCH  14  15
ENDBRANCH  12  14
ENDBRANCH   2  12
TORSDOF 4
ENDMDL
MODEL 2
REMARK VINA RESULT:      -6.4      3.289      4.700
REMARK  Name = 
REMARK  5 active torsions:
REMARK  status: ('A' for Active; 'I' for Inactive)
REMARK    1  A    between atoms: O_4  and  C_15
REMARK    2  A    between atoms: C_6  and  C_13
REMARK    3  A    between atoms: C_7  and  C_12
REMARK    4  A    between atoms: C_8  and  C_14
REMARK    5  A    between atoms: C_12  and  C_15
REMARK                            x       y       z     vdW  Elec       q    Type
REMARK                         _______ _______ _______ _____ _____    ______ ____
ROOT
ATOM      1  C   UNL     1      36.840  16.040  20.762  0.00  0.00    +0.000 A 
ATOM      2  C   UNL     1      35.836  14.281  22.142  0.00  0.00    +0.000 A 
ATOM      3  C   UNL     1      35.978  16.989  21.352  0.00  0.00    +0.000 A 
ATOM      4  C   UNL     1      36.755  14.693  21.168  0.00  0.00    +0.000 A 
ATOM      5  C   UNL     1      34.981  15.230  22.709  0.00  0.00    +0.000 A 
ATOM      6  C   UNL     1      35.054  16.569  22.320  0.00  0.00    +0.000 A 
ATOM      7  C   UNL     1      36.017  18.441  20.957  0.00  0.00    +0.000 C 
ENDROOT
BRANCH   1  11
ATOM      8  F   UNL     1      38.473  15.360  19.145  0.00  0.00    +0.000 F 
ATOM      9  F   UNL     1      37.306  17.124  18.662  0.00  0.00    +0.000 F 
ATOM     10  F   UNL     1      38.843  17.232  20.192  0.00  0.00    +0.000 F 
ATOM     11  C   UNL     1      37.850  16.435  19.706  0.00  0.00    +0.000 C 
ENDBRANCH   1  11
BRANCH   2  12
ATOM     12  C   UNL     1      35.748  12.829  22.550  0.00  0.00    +0.000 C 
BRANCH  12  14
ATOM     13  O   UNL     1      34.733  12.110  20.428  0.00  0.00    +0.000 OA
ATOM     14  C   UNL     1      35.417  11.893  21.414  0.00  0.00    +0.000 C 
BRANCH  14  15
ATOM     15  O   UNL     1      36.006  10.688  21.571  0.00  0.00    +0.000 OA
ATOM     16  H   UNL     1      36.852  10.900  22.023  0.00  0.00    +0.000 HD
ENDBRANCH  14  15
ENDBRANCH  12  14
ENDBRANCH   2  12
TORSDOF 4
ENDMDL
MODEL 3
REMARK VINA RESULT:      -6.1     16.485     18.411
REMARK  Name = 
REMARK  5 active torsions:
REMARK  status: ('A' for Active; 'I' for Inactive)
REMARK    1  A    between atoms: O_4  and  C_15
REMARK    2  A    between atoms: C_6  and  C_13
REMARK    3  A    between atoms: C_7  and  C_12
REMARK    4  A    between atoms: C_8  and  C_14
REMARK    5  A    between atoms: C_12  and  C_15
REMARK                            x       y       z     vdW  Elec       q    Type
REMARK                         _______ _______ _______ _____ _____    ______ ____
ROOT
ATOM      1  C   UNL     1      41.721  -1.720  13.511  0.00  0.00    +0.000 A 
ATOM      2  C   UNL     1      40.782  -0.270  15.249  0.00  0.00    +0.000 A 
ATOM      3  C   UNL     1      42.779  -2.069  14.378  0.00  0.00    +0.000 A 
ATOM      4  C   UNL     1      40.734  -0.821  13.962  0.00  0.00    +0.000 A 
ATOM      5  C   UNL     1      41.842  -0.616  16.093  0.00  0.00    +0.000 A 
ATOM      6  C   UNL     1      42.827  -1.506  15.663  0.00  0.00    +0.000 A 
ATOM      7  C   UNL     1      43.866  -3.019  13.952  0.00  0.00    +0.000 C 
ENDROOT
BRANCH   1  11
ATOM      8  F   UNL     1      41.899  -3.623  12.065  0.00  0.00    +0.000 F 
ATOM      9  F   UNL     1      40.388  -2.154  11.551  0.00  0.00    +0.000 F 
ATOM     10  F   UNL     1      42.488  -1.698  11.237  0.00  0.00    +0.000 F 
ATOM     11  C   UNL     1      41.625  -2.288  12.111  0.00  0.00    +0.000 C 
ENDBRANCH   1  11
BRANCH   2  12
ATOM     12  C   UNL     1      39.724   0.706  15.708  0.00  0.00    +0.000 C 
BRANCH  12  14
ATOM     13  O   UNL     1      40.841   2.879  15.996  0.00  0.00    +0.000 OA
ATOM     14  C   UNL     1      40.055   2.149  15.415  0.00  0.00    +0.000 C 
BRANCH  14  15
ATOM     15  O   UNL     1      39.367   2.613  14.350  0.00  0.00    +0.000 OA
ATOM     16  H   UNL     1      39.207   3.556  14.570  0.00  0.00    +0.000 HD
ENDBRANCH  14  15
ENDBRANCH  12  14
ENDBRANCH   2  12
TORSDOF 4
ENDMDL
MODEL 4
REMARK VINA RESULT:      -6.1      2.892      4.045
REMARK  Name = 
REMARK  5 active torsions:
REMARK  status: ('A' for Active; 'I' for Inactive)
REMARK    1  A    between atoms: O_4  and  C_15
REMARK    2  A    between atoms: C_6  and  C_13
REMARK    3  A    between atoms: C_7  and  C_12
REMARK    4  A    between atoms: C_8  and  C_14
REMARK    5  A    between atoms: C_12  and  C_15
REMARK                            x       y       z     vdW  Elec       q    Type
REMARK                         _______ _______ _______ _____ _____    ______ ____
ROOT
ATOM      1  C   UNL     1      36.267  16.915  20.749  0.00  0.00    +0.000 A 
ATOM      2  C   UNL     1      37.988  18.115  19.484  0.00  0.00    +0.000 A 
ATOM      3  C   UNL     1      36.888  15.689  20.424  0.00  0.00    +0.000 A 
ATOM      4  C   UNL     1      36.830  18.115  20.271  0.00  0.00    +0.000 A 
ATOM      5  C   UNL     1      38.586  16.893  19.160  0.00  0.00    +0.000 A 
ATOM      6  C   UNL     1      38.042  15.695  19.627  0.00  0.00    +0.000 A 
ATOM      7  C   UNL     1      36.332  14.374  20.900  0.00  0.00    +0.000 C 
ENDROOT
BRANCH   1  11
ATOM      8  F   UNL     1      35.199  16.443  22.842  0.00  0.00    +0.000 F 
ATOM      9  F   UNL     1      34.546  18.231  21.803  0.00  0.00    +0.000 F 
ATOM     10  F   UNL     1      33.974  16.276  21.051  0.00  0.00    +0.000 F 
ATOM     11  C   UNL     1      35.014  16.967  21.597  0.00  0.00    +0.000 C 
ENDBRANCH   1  11
BRANCH   2  12
ATOM     12  C   UNL     1      38.566  19.411  18.966  0.00  0.00    +0.000 C 
BRANCH  12  14
ATOM     13  O   UNL     1      37.896  21.349  20.325  0.00  0.00    +0.000 OA
ATOM     14  C   UNL     1      37.766  20.633  19.346  0.00  0.00    +0.000 C 
BRANCH  14  15
ATOM     15  O   UNL     1      36.816  20.915  18.428  0.00  0.00    +0.000 OA
ATOM     16  H   UNL     1      36.949  20.229  17.738  0.00  0.00    +0.000 HD
ENDBRANCH  14  15
ENDBRANCH  12  14
ENDBRANCH   2  12
TORSDOF 4
ENDMDL
MODEL 5
REMARK VINA RESULT:      -5.9      4.376      6.056
REMARK  Name = 
REMARK  5 active torsions:
REMARK  status: ('A' for Active; 'I' for Inactive)
REMARK    1  A    between atoms: O_4  and  C_15
REMARK    2  A    between atoms: C_6  and  C_13
REMARK    3  A    between atoms: C_7  and  C_12
REMARK    4  A    between atoms: C_8  and  C_14
REMARK    5  A    between atoms: C_12  and  C_15
REMARK                            x       y       z     vdW  Elec       q    Type
REMARK                         _______ _______ _______ _____ _____    ______ ____
ROOT
ATOM      1  C   UNL     1      35.646  12.502  22.000  0.00  0.00    +0.000 A 
ATOM      2  C   UNL     1      35.600  10.476  23.379  0.00  0.00    +0.000 A 
ATOM      3  C   UNL     1      35.212  13.261  23.108  0.00  0.00    +0.000 A 
ATOM      4  C   UNL     1      35.834  11.113  22.153  0.00  0.00    +0.000 A 
ATOM      5  C   UNL     1      35.159  11.239  24.464  0.00  0.00    +0.000 A 
ATOM      6  C   UNL     1      34.970  12.616  24.330  0.00  0.00    +0.000 A 
ATOM      7  C   UNL     1      34.988  14.746  23.006  0.00  0.00    +0.000 C 
ENDROOT
BRANCH   1  11
ATOM      8  F   UNL     1      36.492  12.286  19.769  0.00  0.00    +0.000 F 
ATOM      9  F   UNL     1      34.786  13.599  20.035  0.00  0.00    +0.000 F 
ATOM     10  F   UNL     1      36.745  14.219  20.735  0.00  0.00    +0.000 F 
ATOM     11  C   UNL     1      35.912  13.144  20.655  0.00  0.00    +0.000 C 
ENDBRANCH   1  11
BRANCH   2  12
ATOM     12  C   UNL     1      35.790   8.984  23.518  0.00  0.00    +0.000 C 
BRANCH  12  14
ATOM     13  O   UNL     1      34.101   8.036  22.001  0.00  0.00    +0.000 OA
ATOM     14  C   UNL     1      35.259   8.189  22.350  0.00  0.00    +0.000 C 
BRANCH  14  15
ATOM     15  O   UNL     1      36.257   7.617  21.640  0.00  0.00    +0.000 OA
ATOM     16  H   UNL     1      35.925   6.711  21.463  0.00  0.00    +0.000 HD
ENDBRANCH  14  15
ENDBRANCH  12  14
ENDBRANCH   2  12
TORSDOF 4
ENDMDL
MODEL 6
REMARK VINA RESULT:      -5.8     20.306     21.490
REMARK  Name = 
REMARK  5 active torsions:
REMARK  status: ('A' for Active; 'I' for Inactive)
REMARK    1  A    between atoms: O_4  and  C_15
REMARK    2  A    between atoms: C_6  and  C_13
REMARK    3  A    between atoms: C_7  and  C_12
REMARK    4  A    between atoms: C_8  and  C_14
REMARK    5  A    between atoms: C_12  and  C_15
REMARK                            x       y       z     vdW  Elec       q    Type
REMARK                         _______ _______ _______ _____ _____    ______ ____
ROOT
ATOM      1  C   UNL     1      43.774  -4.599  13.921  0.00  0.00    +0.000 A 
ATOM      2  C   UNL     1      42.213  -2.864  13.174  0.00  0.00    +0.000 A 
ATOM      3  C   UNL     1      44.222  -3.746  14.953  0.00  0.00    +0.000 A 
ATOM      4  C   UNL     1      42.772  -4.142  13.043  0.00  0.00    +0.000 A 
ATOM      5  C   UNL     1      42.674  -2.026  14.193  0.00  0.00    +0.000 A 
ATOM      6  C   UNL     1      43.665  -2.463  15.073  0.00  0.00    +0.000 A 
ATOM      7  C   UNL     1      45.294  -4.174  15.919  0.00  0.00    +0.000 C 
ENDROOT
BRANCH   1  11
ATOM      8  F   UNL     1      43.726  -6.686  12.745  0.00  0.00    +0.000 F 
ATOM      9  F   UNL     1      45.671  -5.995  13.413  0.00  0.00    +0.000 F 
ATOM     10  F   UNL     1      44.241  -6.758  14.858  0.00  0.00    +0.000 F 
ATOM     11  C   UNL     1      44.346  -5.988  13.739  0.00  0.00    +0.000 C 
ENDBRANCH   1  11
BRANCH   2  12
ATOM     12  C   UNL     1      41.152  -2.386  12.211  0.00  0.00    +0.000 C 
BRANCH  12  14
ATOM     13  O   UNL     1      42.337  -0.768  10.786  0.00  0.00    +0.000 OA
ATOM     14  C   UNL     1      41.456  -1.048  11.581  0.00  0.00    +0.000 C 
BRANCH  14  15
ATOM     15  O   UNL     1      40.587  -0.096  11.985  0.00  0.00    +0.000 OA
ATOM     16  H   UNL     1      39.794  -0.607  12.258  0.00  0.00    +0.000 HD
ENDBRANCH  14  15
ENDBRANCH  12  14
ENDBRANCH   2  12
TORSDOF 4
ENDMDL
MODEL 7
REMARK VINA RESULT:      -5.7     19.085     20.252
REMARK  Name = 
REMARK  5 active torsions:
REMARK  status: ('A' for Active; 'I' for Inactive)
REMARK    1  A    between atoms: O_4  and  C_15
REMARK    2  A    between atoms: C_6  and  C_13
REMARK    3  A    between atoms: C_7  and  C_12
REMARK    4  A    between atoms: C_8  and  C_14
REMARK    5  A    between atoms: C_12  and  C_15
REMARK                            x       y       z     vdW  Elec       q    Type
REMARK                         _______ _______ _______ _____ _____    ______ ____
ROOT
ATOM      1  C   UNL     1      51.111   6.065  11.290  0.00  0.00    +0.000 A 
ATOM      2  C   UNL     1      51.288   7.075   9.064  0.00  0.00    +0.000 A 
ATOM      3  C   UNL     1      52.425   6.489  11.583  0.00  0.00    +0.000 A 
ATOM      4  C   UNL     1      50.560   6.365  10.028  0.00  0.00    +0.000 A 
ATOM      5  C   UNL     1      52.592   7.479   9.364  0.00  0.00    +0.000 A 
ATOM      6  C   UNL     1      53.152   7.191  10.610  0.00  0.00    +0.000 A 
ATOM      7  C   UNL     1      53.070   6.194  12.911  0.00  0.00    +0.000 C 
ENDROOT
BRANCH   1  11
ATOM      8  F   UNL     1      49.092   4.874  11.787  0.00  0.00    +0.000 F 
ATOM      9  F   UNL     1      50.897   4.169  12.762  0.00  0.00    +0.000 F 
ATOM     10  F   UNL     1      49.978   6.029  13.405  0.00  0.00    +0.000 F 
ATOM     11  C   UNL     1      50.283   5.296  12.298  0.00  0.00    +0.000 C 
ENDBRANCH   1  11
BRANCH   2  12
ATOM     12  C   UNL     1      50.687   7.371   7.710  0.00  0.00    +0.000 C 
BRANCH  12  14
ATOM     13  O   UNL     1      50.259   9.791   7.819  0.00  0.00    +0.000 OA
ATOM     14  C   UNL     1      50.785   8.821   7.301  0.00  0.00    +0.000 C 
BRANCH  14  15
ATOM     15  O   UNL     1      51.590   8.984   6.229  0.00  0.00    +0.000 OA
ATOM     16  H   UNL     1      51.284   9.830   5.836  0.00  0.00    +0.000 HD
ENDBRANCH  14  15
ENDBRANCH  12  14
ENDBRANCH   2  12
TORSDOF 4
ENDMDL
MODEL 8
REMARK VINA RESULT:      -5.6     18.447     19.901
REMARK  Name = 
REMARK  5 active torsions:
REMARK  status: ('A' for Active; 'I' for Inactive)
REMARK    1  A    between atoms: O_4  and  C_15
REMARK    2  A    between atoms: C_6  and  C_13
REMARK    3  A    between atoms: C_7  and  C_12
REMARK    4  A    between atoms: C_8  and  C_14
REMARK    5  A    between atoms: C_12  and  C_15
REMARK                            x       y       z     vdW  Elec       q    Type
REMARK                         _______ _______ _______ _____ _____    ______ ____
ROOT
ATOM      1  C   UNL     1      41.877  -1.623  13.254  0.00  0.00    +0.000 A 
ATOM      2  C   UNL     1      43.182  -2.000  15.294  0.00  0.00    +0.000 A 
ATOM      3  C   UNL     1      41.332  -0.452  13.824  0.00  0.00    +0.000 A 
ATOM      4  C   UNL     1      42.797  -2.384  14.003  0.00  0.00    +0.000 A 
ATOM      5  C   UNL     1      42.626  -0.844  15.849  0.00  0.00    +0.000 A 
ATOM      6  C   UNL     1      41.714  -0.078  15.121  0.00  0.00    +0.000 A 
ATOM      7  C   UNL     1      40.340   0.399  13.077  0.00  0.00    +0.000 C 
ENDROOT
BRANCH   1  11
ATOM      8  F   UNL     1      40.157  -2.320  11.738  0.00  0.00    +0.000 F 
ATOM      9  F   UNL     1      41.789  -1.171  10.889  0.00  0.00    +0.000 F 
ATOM     10  F   UNL     1      42.118  -3.231  11.489  0.00  0.00    +0.000 F 
ATOM     11  C   UNL     1      41.493  -2.079  11.862  0.00  0.00    +0.000 C 
ENDBRANCH   1  11
BRANCH   2  12
ATOM     12  C   UNL     1      44.156  -2.839  16.087  0.00  0.00    +0.000 C 
BRANCH  12  14
ATOM     13  O   UNL     1      44.993  -4.901  15.039  0.00  0.00    +0.000 OA
ATOM     14  C   UNL     1      45.057  -3.699  15.236  0.00  0.00    +0.000 C 
BRANCH  14  15
ATOM     15  O   UNL     1      46.021  -2.970  14.633  0.00  0.00    +0.000 OA
ATOM     16  H   UNL     1      45.519  -2.328  14.086  0.00  0.00    +0.000 HD
ENDBRANCH  14  15
ENDBRANCH  12  14
ENDBRANCH   2  12
TORSDOF 4
ENDMDL
MODEL 9
REMARK VINA RESULT:      -5.6     15.674     17.616
REMARK  Name = 
REMARK  5 active torsions:
REMARK  status: ('A' for Active; 'I' for Inactive)
REMARK    1  A    between atoms: O_4  and  C_15
REMARK    2  A    between atoms: C_6  and  C_13
REMARK    3  A    between atoms: C_7  and  C_12
REMARK    4  A    between atoms: C_8  and  C_14
REMARK    5  A    between atoms: C_12  and  C_15
REMARK                            x       y       z     vdW  Elec       q    Type
REMARK                         _______ _______ _______ _____ _____    ______ ____
ROOT
ATOM      1  C   UNL     1      41.298  -1.284  14.174  0.00  0.00    +0.000 A 
ATOM      2  C   UNL     1      39.925   0.447  15.234  0.00  0.00    +0.000 A 
ATOM      3  C   UNL     1      40.942  -0.783  12.903  0.00  0.00    +0.000 A 
ATOM      4  C   UNL     1      40.780  -0.659  15.326  0.00  0.00    +0.000 A 
ATOM      5  C   UNL     1      39.572   0.925  13.969  0.00  0.00    +0.000 A 
ATOM      6  C   UNL     1      40.077   0.318  12.818  0.00  0.00    +0.000 A 
ATOM      7  C   UNL     1      41.458  -1.411  11.636  0.00  0.00    +0.000 C 
ENDROOT
BRANCH   1  11
ATOM      8  F   UNL     1      43.397  -2.318  13.657  0.00  0.00    +0.000 F 
ATOM      9  F   UNL     1      42.570  -2.734  15.618  0.00  0.00    +0.000 F 
ATOM     10  F   UNL     1      41.675  -3.633  13.856  0.00  0.00    +0.000 F 
ATOM     11  C   UNL     1      42.220  -2.476  14.326  0.00  0.00    +0.000 C 
ENDBRANCH   1  11
BRANCH   2  12
ATOM     12  C   UNL     1      39.366   1.092  16.480  0.00  0.00    +0.000 C 
BRANCH  12  14
ATOM     13  O   UNL     1      40.442   3.267  16.076  0.00  0.00    +0.000 OA
ATOM     14  C   UNL     1      39.526   2.592  16.517  0.00  0.00    +0.000 C 
BRANCH  14  15
ATOM     15  O   UNL     1      38.474   3.193  17.113  0.00  0.00    +0.000 OA
ATOM     16  H   UNL     1      37.835   2.460  17.251  0.00  0.00    +0.000 HD
ENDBRANCH  14  15
ENDBRANCH  12  14
ENDBRANCH   2  12
TORSDOF 4
ENDMDL
