MODEL 1
REMARK VINA RESULT:      -7.0      0.000      0.000
REMARK  Name = OTSSP167.pdbqt.pdb
REMARK  7 active torsions:
REMARK  status: ('A' for Active; 'I' for Inactive)
REMARK    1  A    between atoms: C_5  and  N_19
REMARK    2  A    between atoms: C_7  and  C_31
REMARK    3  A    between atoms: C_11  and  C_13
REMARK    4  A    between atoms: C_18  and  O_34
REMARK    5  A    between atoms: N_19  and  C_21
REMARK    6  A    between atoms: C_24  and  C_27
REMARK    7  A    between atoms: C_27  and  N_28
REMARK                            x       y       z     vdW  Elec       q    Type
REMARK                         _______ _______ _______ _____ _____    ______ ____
ROOT
ATOM      1  N   UNL     1      36.090  17.149  20.448  0.00  0.00    +0.000 NA
ATOM      2  N   UNL     1      38.979  19.053  19.276  0.00  0.00    +0.000 NA
ATOM      3  C   UNL     1      36.398  19.558  20.281  0.00  0.00    +0.000 A 
ATOM      4  C   UNL     1      36.859  18.222  20.139  0.00  0.00    +0.000 A 
ATOM      5  C   UNL     1      37.263  20.606  19.903  0.00  0.00    +0.000 A 
ATOM      6  C   UNL     1      38.162  18.047  19.626  0.00  0.00    +0.000 A 
ATOM      7  C   UNL     1      38.517  20.309  19.417  0.00  0.00    +0.000 A 
ATOM      8  C   UNL     1      38.616  16.750  19.473  0.00  0.00    +0.000 A 
ATOM      9  C   UNL     1      36.564  15.888  20.298  0.00  0.00    +0.000 A 
ATOM     10  C   UNL     1      37.833  15.654  19.806  0.00  0.00    +0.000 A 
ENDROOT
BRANCH   9  13
ATOM     11 CL   UNL     1      31.708  14.299  21.066  0.00  0.00    +0.000 Cl
ATOM     12 CL   UNL     1      35.977  11.048  22.015  0.00  0.00    +0.000 Cl
ATOM     13  C   UNL     1      35.661  14.807  20.701  0.00  0.00    +0.000 A 
ATOM     14  C   UNL     1      36.143  13.562  21.122  0.00  0.00    +0.000 A 
ATOM     15  C   UNL     1      34.272  14.990  20.690  0.00  0.00    +0.000 A 
ATOM     16  C   UNL     1      33.400  13.980  21.087  0.00  0.00    +0.000 A 
ATOM     17  C   UNL     1      35.278  12.541  21.516  0.00  0.00    +0.000 A 
ATOM     18  C   UNL     1      33.899  12.746  21.502  0.00  0.00    +0.000 A 
BRANCH  18  19
ATOM     19  O   UNL     1      33.055  11.741  21.893  0.00  0.00    +0.000 OA
ATOM     20  H   UNL     1      33.300  10.929  21.412  0.00  0.00    +0.000 HD
ENDBRANCH  18  19
ENDBRANCH   9  13
BRANCH   5  21
ATOM     21  C   UNL     1      36.881  22.016  19.961  0.00  0.00    +0.000 C 
ATOM     22  O   UNL     1      35.933  22.508  19.373  0.00  0.00    +0.000 OA
ATOM     23  C   UNL     1      37.645  23.058  20.720  0.00  0.00    +0.000 C 
ENDBRANCH   5  21
BRANCH   3  24
ATOM     24  N   UNL     1      35.143  19.890  20.884  0.00  0.00    +0.000 N 
ATOM     25  H   UNL     1      35.190  20.642  21.577  0.00  0.00    +0.000 HD
BRANCH  24  26
ATOM     26  C   UNL     1      33.890  19.702  20.370  0.00  0.00    +0.000 A 
ATOM     27  C   UNL     1      32.980  18.873  21.118  0.00  0.00    +0.000 A 
ATOM     28  C   UNL     1      32.001  17.825  20.527  0.00  0.00    +0.000 A 
ATOM     29  C   UNL     1      31.867  17.521  19.123  0.00  0.00    +0.000 A 
ATOM     30  C   UNL     1      32.795  18.331  18.374  0.00  0.00    +0.000 A 
ATOM     31  C   UNL     1      33.772  19.375  18.970  0.00  0.00    +0.000 A 
BRANCH  29  32
ATOM     32  C   UNL     1      30.889  16.673  18.559  0.00  0.00    +0.000 C 
BRANCH  32  33
ATOM     33  N   UNL     1      29.876  15.815  17.968  0.00  0.00    +0.000 NA
ATOM     34  C   UNL     1      29.253  16.560  16.886  0.00  0.00    +0.000 C 
ATOM     35  C   UNL     1      28.854  15.593  18.976  0.00  0.00    +0.000 C 
ENDBRANCH  32  33
ENDBRANCH  29  32
ENDBRANCH  24  26
ENDBRANCH   3  24
TORSDOF 7
ENDMDL
MODEL 2
REMARK VINA RESULT:      -7.0     17.065     19.885
REMARK  Name = OTSSP167.pdbqt.pdb
REMARK  7 active torsions:
REMARK  status: ('A' for Active; 'I' for Inactive)
REMARK    1  A    between atoms: C_5  and  N_19
REMARK    2  A    between atoms: C_7  and  C_31
REMARK    3  A    between atoms: C_11  and  C_13
REMARK    4  A    between atoms: C_18  and  O_34
REMARK    5  A    between atoms: N_19  and  C_21
REMARK    6  A    between atoms: C_24  and  C_27
REMARK    7  A    between atoms: C_27  and  N_28
REMARK                            x       y       z     vdW  Elec       q    Type
REMARK                         _______ _______ _______ _____ _____    ______ ____
ROOT
ATOM      1  N   UNL     1      42.930  -0.907  17.080  0.00  0.00    +0.000 NA
ATOM      2  N   UNL     1      44.039  -3.542  14.804  0.00  0.00    +0.000 NA
ATOM      3  C   UNL     1      42.464  -1.210  14.710  0.00  0.00    +0.000 A 
ATOM      4  C   UNL     1      43.083  -1.603  15.926  0.00  0.00    +0.000 A 
ATOM      5  C   UNL     1      42.658  -2.018  13.570  0.00  0.00    +0.000 A 
ATOM      6  C   UNL     1      43.854  -2.784  15.898  0.00  0.00    +0.000 A 
ATOM      7  C   UNL     1      43.438  -3.149  13.666  0.00  0.00    +0.000 A 
ATOM      8  C   UNL     1      44.453  -3.182  17.080  0.00  0.00    +0.000 A 
ATOM      9  C   UNL     1      43.535  -1.315  18.222  0.00  0.00    +0.000 A 
ATOM     10  C   UNL     1      44.308  -2.460  18.255  0.00  0.00    +0.000 A 
ENDROOT
BRANCH   9  13
ATOM     11 CL   UNL     1      45.165   0.136  22.906  0.00  0.00    +0.000 Cl
ATOM     12 CL   UNL     1      40.683   2.252  20.642  0.00  0.00    +0.000 Cl
ATOM     13  C   UNL     1      43.333  -0.465  19.399  0.00  0.00    +0.000 A 
ATOM     14  C   UNL     1      42.246   0.411  19.497  0.00  0.00    +0.000 A 
ATOM     15  C   UNL     1      44.223  -0.512  20.480  0.00  0.00    +0.000 A 
ATOM     16  C   UNL     1      44.036   0.275  21.614  0.00  0.00    +0.000 A 
ATOM     17  C   UNL     1      42.052   1.209  20.625  0.00  0.00    +0.000 A 
ATOM     18  C   UNL     1      42.948   1.143  21.692  0.00  0.00    +0.000 A 
BRANCH  18  19
ATOM     19  O   UNL     1      42.751   1.926  22.799  0.00  0.00    +0.000 OA
ATOM     20  H   UNL     1      42.470   2.811  22.503  0.00  0.00    +0.000 HD
ENDBRANCH  18  19
ENDBRANCH   9  13
BRANCH   5  21
ATOM     21  C   UNL     1      42.034  -1.739  12.279  0.00  0.00    +0.000 C 
ATOM     22  O   UNL     1      42.440  -0.924  11.467  0.00  0.00    +0.000 OA
ATOM     23  C   UNL     1      40.773  -2.392  11.801  0.00  0.00    +0.000 C 
ENDBRANCH   5  21
BRANCH   3  24
ATOM     24  N   UNL     1      41.740   0.017  14.564  0.00  0.00    +0.000 N 
ATOM     25  H   UNL     1      41.985   0.557  13.729  0.00  0.00    +0.000 HD
BRANCH  24  26
ATOM     26  C   UNL     1      40.513   0.333  15.077  0.00  0.00    +0.000 A 
ATOM     27  C   UNL     1      40.431   1.470  15.959  0.00  0.00    +0.000 A 
ATOM     28  C   UNL     1      39.590   1.559  17.258  0.00  0.00    +0.000 A 
ATOM     29  C   UNL     1      38.764   0.498  17.782  0.00  0.00    +0.000 A 
ATOM     30  C   UNL     1      38.865  -0.649  16.916  0.00  0.00    +0.000 A 
ATOM     31  C   UNL     1      39.708  -0.734  15.619  0.00  0.00    +0.000 A 
BRANCH  29  32
ATOM     32  C   UNL     1      37.889   0.611  18.885  0.00  0.00    +0.000 C 
BRANCH  32  33
ATOM     33  N   UNL     1      36.999   0.742  20.025  0.00  0.00    +0.000 NA
ATOM     34  C   UNL     1      37.690   0.195  21.182  0.00  0.00    +0.000 C 
ATOM     35  C   UNL     1      35.847  -0.109  19.776  0.00  0.00    +0.000 C 
ENDBRANCH  32  33
ENDBRANCH  29  32
ENDBRANCH  24  26
ENDBRANCH   3  24
TORSDOF 7
ENDMDL
MODEL 3
REMARK VINA RESULT:      -6.9     17.026     20.881
REMARK  Name = OTSSP167.pdbqt.pdb
REMARK  7 active torsions:
REMARK  status: ('A' for Active; 'I' for Inactive)
REMARK    1  A    between atoms: C_5  and  N_19
REMARK    2  A    between atoms: C_7  and  C_31
REMARK    3  A    between atoms: C_11  and  C_13
REMARK    4  A    between atoms: C_18  and  O_34
REMARK    5  A    between atoms: N_19  and  C_21
REMARK    6  A    between atoms: C_24  and  C_27
REMARK    7  A    between atoms: C_27  and  N_28
REMARK                            x       y       z     vdW  Elec       q    Type
REMARK                         _______ _______ _______ _____ _____    ______ ____
ROOT
ATOM      1  N   UNL     1      41.655  -1.239  15.163  0.00  0.00    +0.000 NA
ATOM      2  N   UNL     1      39.801   1.530  13.663  0.00  0.00    +0.000 NA
ATOM      3  C   UNL     1      40.384   0.540  16.234  0.00  0.00    +0.000 A 
ATOM      4  C   UNL     1      40.898  -0.116  15.084  0.00  0.00    +0.000 A 
ATOM      5  C   UNL     1      39.581   1.684  16.046  0.00  0.00    +0.000 A 
ATOM      6  C   UNL     1      40.561   0.435  13.830  0.00  0.00    +0.000 A 
ATOM      7  C   UNL     1      39.325   2.130  14.769  0.00  0.00    +0.000 A 
ATOM      8  C   UNL     1      41.048  -0.203  12.703  0.00  0.00    +0.000 A 
ATOM      9  C   UNL     1      42.126  -1.839  14.043  0.00  0.00    +0.000 A 
ATOM     10  C   UNL     1      41.835  -1.342  12.787  0.00  0.00    +0.000 A 
ENDROOT
BRANCH   9  13
ATOM     11 CL   UNL     1      43.154  -6.747  12.797  0.00  0.00    +0.000 Cl
ATOM     12 CL   UNL     1      46.055  -4.070  16.554  0.00  0.00    +0.000 Cl
ATOM     13  C   UNL     1      42.966  -3.022  14.249  0.00  0.00    +0.000 A 
ATOM     14  C   UNL     1      44.009  -3.032  15.182  0.00  0.00    +0.000 A 
ATOM     15  C   UNL     1      42.740  -4.198  13.521  0.00  0.00    +0.000 A 
ATOM     16  C   UNL     1      43.516  -5.338  13.717  0.00  0.00    +0.000 A 
ATOM     17  C   UNL     1      44.797  -4.166  15.382  0.00  0.00    +0.000 A 
ATOM     18  C   UNL     1      44.552  -5.328  14.650  0.00  0.00    +0.000 A 
BRANCH  18  19
ATOM     19  O   UNL     1      45.327  -6.440  14.853  0.00  0.00    +0.000 OA
ATOM     20  H   UNL     1      46.189  -6.296  14.420  0.00  0.00    +0.000 HD
ENDBRANCH  18  19
ENDBRANCH   9  13
BRANCH   5  21
ATOM     21  C   UNL     1      38.960   2.413  17.150  0.00  0.00    +0.000 C 
ATOM     22  O   UNL     1      38.171   1.936  17.948  0.00  0.00    +0.000 OA
ATOM     23  C   UNL     1      39.180   3.871  17.417  0.00  0.00    +0.000 C 
ENDBRANCH   5  21
BRANCH   3  24
ATOM     24  N   UNL     1      40.727   0.156  17.570  0.00  0.00    +0.000 N 
ATOM     25  H   UNL     1      40.338  -0.743  17.867  0.00  0.00    +0.000 HD
BRANCH  24  26
ATOM     26  C   UNL     1      41.815   0.546  18.302  0.00  0.00    +0.000 A 
ATOM     27  C   UNL     1      42.970  -0.314  18.289  0.00  0.00    +0.000 A 
ATOM     28  C   UNL     1      43.864  -0.662  19.508  0.00  0.00    +0.000 A 
ATOM     29  C   UNL     1      43.656  -0.175  20.850  0.00  0.00    +0.000 A 
ATOM     30  C   UNL     1      42.485   0.665  20.871  0.00  0.00    +0.000 A 
ATOM     31  C   UNL     1      41.595   1.009  19.651  0.00  0.00    +0.000 A 
BRANCH  29  32
ATOM     32  C   UNL     1      44.536  -0.372  21.937  0.00  0.00    +0.000 C 
BRANCH  32  33
ATOM     33  N   UNL     1      45.425  -0.579  23.067  0.00  0.00    +0.000 NA
ATOM     34  C   UNL     1      45.425   0.646  23.850  0.00  0.00    +0.000 C 
ATOM     35  C   UNL     1      46.768  -0.744  22.536  0.00  0.00    +0.000 C 
ENDBRANCH  32  33
ENDBRANCH  29  32
ENDBRANCH  24  26
ENDBRANCH   3  24
TORSDOF 7
ENDMDL
MODEL 4
REMARK VINA RESULT:      -6.8      0.380      1.625
REMARK  Name = OTSSP167.pdbqt.pdb
REMARK  7 active torsions:
REMARK  status: ('A' for Active; 'I' for Inactive)
REMARK    1  A    between atoms: C_5  and  N_19
REMARK    2  A    between atoms: C_7  and  C_31
REMARK    3  A    between atoms: C_11  and  C_13
REMARK    4  A    between atoms: C_18  and  O_34
REMARK    5  A    between atoms: N_19  and  C_21
REMARK    6  A    between atoms: C_24  and  C_27
REMARK    7  A    between atoms: C_27  and  N_28
REMARK                            x       y       z     vdW  Elec       q    Type
REMARK                         _______ _______ _______ _____ _____    ______ ____
ROOT
ATOM      1  N   UNL     1      35.920  16.910  20.464  0.00  0.00    +0.000 NA
ATOM      2  N   UNL     1      38.778  18.787  19.175  0.00  0.00    +0.000 NA
ATOM      3  C   UNL     1      36.193  19.310  20.161  0.00  0.00    +0.000 A 
ATOM      4  C   UNL     1      36.673  17.975  20.092  0.00  0.00    +0.000 A 
ATOM      5  C   UNL     1      37.041  20.348  19.721  0.00  0.00    +0.000 A 
ATOM      6  C   UNL     1      37.976  17.790  19.584  0.00  0.00    +0.000 A 
ATOM      7  C   UNL     1      38.298  20.041  19.248  0.00  0.00    +0.000 A 
ATOM      8  C   UNL     1      38.449  16.493  19.502  0.00  0.00    +0.000 A 
ATOM      9  C   UNL     1      36.412  15.649  20.382  0.00  0.00    +0.000 A 
ATOM     10  C   UNL     1      37.683  15.406  19.898  0.00  0.00    +0.000 A 
ENDROOT
BRANCH   9  13
ATOM     11 CL   UNL     1      35.943  10.837  22.203  0.00  0.00    +0.000 Cl
ATOM     12 CL   UNL     1      31.598  13.994  21.283  0.00  0.00    +0.000 Cl
ATOM     13  C   UNL     1      35.526  14.580  20.848  0.00  0.00    +0.000 A 
ATOM     14  C   UNL     1      34.134  14.730  20.866  0.00  0.00    +0.000 A 
ATOM     15  C   UNL     1      36.047  13.353  21.281  0.00  0.00    +0.000 A 
ATOM     16  C   UNL     1      35.219  12.319  21.710  0.00  0.00    +0.000 A 
ATOM     17  C   UNL     1      33.295  13.703  21.299  0.00  0.00    +0.000 A 
ATOM     18  C   UNL     1      33.836  12.489  21.723  0.00  0.00    +0.000 A 
BRANCH  18  19
ATOM     19  O   UNL     1      33.007  11.482  22.144  0.00  0.00    +0.000 OA
ATOM     20  H   UNL     1      32.358  11.304  21.437  0.00  0.00    +0.000 HD
ENDBRANCH  18  19
ENDBRANCH   9  13
BRANCH   5  21
ATOM     21  C   UNL     1      36.639  21.752  19.702  0.00  0.00    +0.000 C 
ATOM     22  O   UNL     1      35.720  22.208  19.043  0.00  0.00    +0.000 OA
ATOM     23  C   UNL     1      37.345  22.835  20.462  0.00  0.00    +0.000 C 
ENDBRANCH   5  21
BRANCH   3  24
ATOM     24  N   UNL     1      34.935  19.657  20.749  0.00  0.00    +0.000 N 
ATOM     25  H   UNL     1      34.975  20.443  21.405  0.00  0.00    +0.000 HD
BRANCH  24  26
ATOM     26  C   UNL     1      33.683  19.431  20.247  0.00  0.00    +0.000 A 
ATOM     27  C   UNL     1      32.782  18.630  21.037  0.00  0.00    +0.000 A 
ATOM     28  C   UNL     1      31.814  17.545  20.499  0.00  0.00    +0.000 A 
ATOM     29  C   UNL     1      31.682  17.171  19.111  0.00  0.00    +0.000 A 
ATOM     30  C   UNL     1      32.600  17.953  18.323  0.00  0.00    +0.000 A 
ATOM     31  C   UNL     1      33.567  19.035  18.865  0.00  0.00    +0.000 A 
BRANCH  29  32
ATOM     32  C   UNL     1      30.712  16.286  18.591  0.00  0.00    +0.000 C 
BRANCH  32  33
ATOM     33  N   UNL     1      29.713  15.386  18.040  0.00  0.00    +0.000 NA
ATOM     34  C   UNL     1      28.938  16.140  17.069  0.00  0.00    +0.000 C 
ATOM     35  C   UNL     1      28.810  15.027  19.121  0.00  0.00    +0.000 C 
ENDBRANCH  32  33
ENDBRANCH  29  32
ENDBRANCH  24  26
ENDBRANCH   3  24
TORSDOF 7
ENDMDL
MODEL 5
REMARK VINA RESULT:      -6.4     22.738     25.952
REMARK  Name = OTSSP167.pdbqt.pdb
REMARK  7 active torsions:
REMARK  status: ('A' for Active; 'I' for Inactive)
REMARK    1  A    between atoms: C_5  and  N_19
REMARK    2  A    between atoms: C_7  and  C_31
REMARK    3  A    between atoms: C_11  and  C_13
REMARK    4  A    between atoms: C_18  and  O_34
REMARK    5  A    between atoms: N_19  and  C_21
REMARK    6  A    between atoms: C_24  and  C_27
REMARK    7  A    between atoms: C_27  and  N_28
REMARK                            x       y       z     vdW  Elec       q    Type
REMARK                         _______ _______ _______ _____ _____    ______ ____
ROOT
ATOM      1  N   UNL     1      51.344   3.472   6.391  0.00  0.00    +0.000 NA
ATOM      2  N   UNL     1      52.914   1.550   3.710  0.00  0.00    +0.000 NA
ATOM      3  C   UNL     1      50.855   1.221   5.601  0.00  0.00    +0.000 A 
ATOM      4  C   UNL     1      51.582   2.440   5.543  0.00  0.00    +0.000 A 
ATOM      5  C   UNL     1      51.198   0.196   4.696  0.00  0.00    +0.000 A 
ATOM      6  C   UNL     1      52.601   2.530   4.572  0.00  0.00    +0.000 A 
ATOM      7  C   UNL     1      52.212   0.405   3.788  0.00  0.00    +0.000 A 
ATOM      8  C   UNL     1      53.323   3.709   4.514  0.00  0.00    +0.000 A 
ATOM      9  C   UNL     1      52.061   4.620   6.306  0.00  0.00    +0.000 A 
ATOM     10  C   UNL     1      53.067   4.769   5.372  0.00  0.00    +0.000 A 
ENDROOT
BRANCH   9  13
ATOM     11 CL   UNL     1      50.536   9.506   7.011  0.00  0.00    +0.000 Cl
ATOM     12 CL   UNL     1      51.446   6.149  11.206  0.00  0.00    +0.000 Cl
ATOM     13  C   UNL     1      51.692   5.681   7.246  0.00  0.00    +0.000 A 
ATOM     14  C   UNL     1      51.720   5.482   8.632  0.00  0.00    +0.000 A 
ATOM     15  C   UNL     1      51.309   6.947   6.785  0.00  0.00    +0.000 A 
ATOM     16  C   UNL     1      50.973   7.974   7.664  0.00  0.00    +0.000 A 
ATOM     17  C   UNL     1      51.379   6.501   9.522  0.00  0.00    +0.000 A 
ATOM     18  C   UNL     1      51.004   7.756   9.040  0.00  0.00    +0.000 A 
BRANCH  18  19
ATOM     19  O   UNL     1      50.675   8.754   9.919  0.00  0.00    +0.000 OA
ATOM     20  H   UNL     1      50.535   8.355  10.798  0.00  0.00    +0.000 HD
ENDBRANCH  18  19
ENDBRANCH   9  13
BRANCH   5  21
ATOM     21  C   UNL     1      50.552  -1.114   4.693  0.00  0.00    +0.000 C 
ATOM     22  O   UNL     1      50.418  -1.831   5.671  0.00  0.00    +0.000 OA
ATOM     23  C   UNL     1      50.007  -1.776   3.463  0.00  0.00    +0.000 C 
ENDBRANCH   5  21
BRANCH   3  24
ATOM     24  N   UNL     1      49.728   1.026   6.462  0.00  0.00    +0.000 N 
ATOM     25  H   UNL     1      48.898   0.648   5.996  0.00  0.00    +0.000 HD
BRANCH  24  26
ATOM     26  C   UNL     1      49.730   0.827   7.815  0.00  0.00    +0.000 A 
ATOM     27  C   UNL     1      49.128   1.842   8.640  0.00  0.00    +0.000 A 
ATOM     28  C   UNL     1      49.677   2.365   9.993  0.00  0.00    +0.000 A 
ATOM     29  C   UNL     1      50.892   1.908  10.623  0.00  0.00    +0.000 A 
ATOM     30  C   UNL     1      51.510   0.910   9.787  0.00  0.00    +0.000 A 
ATOM     31  C   UNL     1      50.959   0.393   8.435  0.00  0.00    +0.000 A 
BRANCH  29  32
ATOM     32  C   UNL     1      51.332   2.273  11.915  0.00  0.00    +0.000 C 
BRANCH  32  33
ATOM     33  N   UNL     1      51.792   2.665  13.236  0.00  0.00    +0.000 NA
ATOM     34  C   UNL     1      53.013   3.435  13.060  0.00  0.00    +0.000 C 
ATOM     35  C   UNL     1      52.153   1.449  13.946  0.00  0.00    +0.000 C 
ENDBRANCH  32  33
ENDBRANCH  29  32
ENDBRANCH  24  26
ENDBRANCH   3  24
TORSDOF 7
ENDMDL
MODEL 6
REMARK VINA RESULT:      -6.4     17.581     21.166
REMARK  Name = OTSSP167.pdbqt.pdb
REMARK  7 active torsions:
REMARK  status: ('A' for Active; 'I' for Inactive)
REMARK    1  A    between atoms: C_5  and  N_19
REMARK    2  A    between atoms: C_7  and  C_31
REMARK    3  A    between atoms: C_11  and  C_13
REMARK    4  A    between atoms: C_18  and  O_34
REMARK    5  A    between atoms: N_19  and  C_21
REMARK    6  A    between atoms: C_24  and  C_27
REMARK    7  A    between atoms: C_27  and  N_28
REMARK                            x       y       z     vdW  Elec       q    Type
REMARK                         _______ _______ _______ _____ _____    ______ ____
ROOT
ATOM      1  N   UNL     1      41.739  -1.023  15.259  0.00  0.00    +0.000 NA
ATOM      2  N   UNL     1      39.677   1.643  13.847  0.00  0.00    +0.000 NA
ATOM      3  C   UNL     1      40.508   0.751  16.385  0.00  0.00    +0.000 A 
ATOM      4  C   UNL     1      40.943   0.075  15.214  0.00  0.00    +0.000 A 
ATOM      5  C   UNL     1      39.655   1.864  16.235  0.00  0.00    +0.000 A 
ATOM      6  C   UNL     1      40.483   0.577  13.978  0.00  0.00    +0.000 A 
ATOM      7  C   UNL     1      39.278   2.263  14.972  0.00  0.00    +0.000 A 
ATOM      8  C   UNL     1      40.892  -0.081  12.832  0.00  0.00    +0.000 A 
ATOM      9  C   UNL     1      42.132  -1.642  14.120  0.00  0.00    +0.000 A 
ATOM     10  C   UNL     1      41.720  -1.193  12.881  0.00  0.00    +0.000 A 
ENDROOT
BRANCH   9  13
ATOM     11 CL   UNL     1      46.233  -3.694  16.500  0.00  0.00    +0.000 Cl
ATOM     12 CL   UNL     1      43.445  -6.438  12.706  0.00  0.00    +0.000 Cl
ATOM     13  C   UNL     1      43.023  -2.793  14.286  0.00  0.00    +0.000 A 
ATOM     14  C   UNL     1      42.868  -3.961  13.530  0.00  0.00    +0.000 A 
ATOM     15  C   UNL     1      44.079  -2.757  15.206  0.00  0.00    +0.000 A 
ATOM     16  C   UNL     1      44.947  -3.834  15.364  0.00  0.00    +0.000 A 
ATOM     17  C   UNL     1      43.727  -5.049  13.685  0.00  0.00    +0.000 A 
ATOM     18  C   UNL     1      44.775  -4.990  14.604  0.00  0.00    +0.000 A 
BRANCH  18  19
ATOM     19  O   UNL     1      45.618  -6.060  14.748  0.00  0.00    +0.000 OA
ATOM     20  H   UNL     1      46.313  -5.819  15.390  0.00  0.00    +0.000 HD
ENDBRANCH  18  19
ENDBRANCH   9  13
BRANCH   5  21
ATOM     21  C   UNL     1      39.108   2.608  17.367  0.00  0.00    +0.000 C 
ATOM     22  O   UNL     1      38.422   2.129  18.254  0.00  0.00    +0.000 OA
ATOM     23  C   UNL     1      39.281   4.085  17.560  0.00  0.00    +0.000 C 
ENDBRANCH   5  21
BRANCH   3  24
ATOM     24  N   UNL     1      40.976   0.418  17.697  0.00  0.00    +0.000 N 
ATOM     25  H   UNL     1      41.288   1.220  18.252  0.00  0.00    +0.000 HD
BRANCH  24  26
ATOM     26  C   UNL     1      40.648  -0.672  18.453  0.00  0.00    +0.000 A 
ATOM     27  C   UNL     1      41.644  -1.702  18.606  0.00  0.00    +0.000 A 
ATOM     28  C   UNL     1      41.390  -3.231  18.574  0.00  0.00    +0.000 A 
ATOM     29  C   UNL     1      40.103  -3.851  18.373  0.00  0.00    +0.000 A 
ATOM     30  C   UNL     1      39.108  -2.823  18.194  0.00  0.00    +0.000 A 
ATOM     31  C   UNL     1      39.367  -1.296  18.225  0.00  0.00    +0.000 A 
BRANCH  29  32
ATOM     32  C   UNL     1      39.834  -5.233  18.478  0.00  0.00    +0.000 C 
BRANCH  32  33
ATOM     33  N   UNL     1      39.540  -6.651  18.589  0.00  0.00    +0.000 NA
ATOM     34  C   UNL     1      39.501  -7.194  17.240  0.00  0.00    +0.000 C 
ATOM     35  C   UNL     1      38.199  -6.774  19.136  0.00  0.00    +0.000 C 
ENDBRANCH  32  33
ENDBRANCH  29  32
ENDBRANCH  24  26
ENDBRANCH   3  24
TORSDOF 7
ENDMDL
MODEL 7
REMARK VINA RESULT:      -6.3     23.198     26.123
REMARK  Name = OTSSP167.pdbqt.pdb
REMARK  7 active torsions:
REMARK  status: ('A' for Active; 'I' for Inactive)
REMARK    1  A    between atoms: C_5  and  N_19
REMARK    2  A    between atoms: C_7  and  C_31
REMARK    3  A    between atoms: C_11  and  C_13
REMARK    4  A    between atoms: C_18  and  O_34
REMARK    5  A    between atoms: N_19  and  C_21
REMARK    6  A    between atoms: C_24  and  C_27
REMARK    7  A    between atoms: C_27  and  N_28
REMARK                            x       y       z     vdW  Elec       q    Type
REMARK                         _______ _______ _______ _____ _____    ______ ____
ROOT
ATOM      1  N   UNL     1      51.114   2.327   7.274  0.00  0.00    +0.000 NA
ATOM      2  N   UNL     1      50.887   1.404  10.802  0.00  0.00    +0.000 NA
ATOM      3  C   UNL     1      51.006   3.749   9.247  0.00  0.00    +0.000 A 
ATOM      4  C   UNL     1      51.019   2.475   8.619  0.00  0.00    +0.000 A 
ATOM      5  C   UNL     1      50.937   3.797  10.655  0.00  0.00    +0.000 A 
ATOM      6  C   UNL     1      50.960   1.346   9.462  0.00  0.00    +0.000 A 
ATOM      7  C   UNL     1      50.879   2.623  11.372  0.00  0.00    +0.000 A 
ATOM      8  C   UNL     1      50.983   0.100   8.861  0.00  0.00    +0.000 A 
ATOM      9  C   UNL     1      51.125   1.094   6.710  0.00  0.00    +0.000 A 
ATOM     10  C   UNL     1      51.064  -0.048   7.484  0.00  0.00    +0.000 A 
ENDROOT
BRANCH   9  13
ATOM     11 CL   UNL     1      53.234   2.942   2.370  0.00  0.00    +0.000 Cl
ATOM     12 CL   UNL     1      49.375  -0.903   2.275  0.00  0.00    +0.000 Cl
ATOM     13  C   UNL     1      51.190   1.054   5.247  0.00  0.00    +0.000 A 
ATOM     14  C   UNL     1      50.369   0.205   4.495  0.00  0.00    +0.000 A 
ATOM     15  C   UNL     1      52.074   1.884   4.544  0.00  0.00    +0.000 A 
ATOM     16  C   UNL     1      52.136   1.873   3.153  0.00  0.00    +0.000 A 
ATOM     17  C   UNL     1      50.427   0.181   3.102  0.00  0.00    +0.000 A 
ATOM     18  C   UNL     1      51.312   1.018   2.422  0.00  0.00    +0.000 A 
BRANCH  18  19
ATOM     19  O   UNL     1      51.362   0.993   1.053  0.00  0.00    +0.000 OA
ATOM     20  H   UNL     1      52.258   1.257   0.774  0.00  0.00    +0.000 HD
ENDBRANCH  18  19
ENDBRANCH   9  13
BRANCH   5  21
ATOM     21  C   UNL     1      50.964   5.047  11.412  0.00  0.00    +0.000 C 
ATOM     22  O   UNL     1      50.470   6.099  11.043  0.00  0.00    +0.000 OA
ATOM     23  C   UNL     1      51.652   5.209  12.733  0.00  0.00    +0.000 C 
ENDBRANCH   5  21
BRANCH   3  24
ATOM     24  N   UNL     1      50.956   4.979   8.516  0.00  0.00    +0.000 N 
ATOM     25  H   UNL     1      50.187   5.600   8.783  0.00  0.00    +0.000 HD
BRANCH  24  26
ATOM     26  C   UNL     1      51.986   5.625   7.890  0.00  0.00    +0.000 A 
ATOM     27  C   UNL     1      52.051   7.058   8.020  0.00  0.00    +0.000 A 
ATOM     28  C   UNL     1      52.415   8.063   6.897  0.00  0.00    +0.000 A 
ATOM     29  C   UNL     1      52.734   7.700   5.537  0.00  0.00    +0.000 A 
ATOM     30  C   UNL     1      52.644   6.269   5.397  0.00  0.00    +0.000 A 
ATOM     31  C   UNL     1      52.279   5.270   6.522  0.00  0.00    +0.000 A 
BRANCH  29  32
ATOM     32  C   UNL     1      53.199   8.588   4.541  0.00  0.00    +0.000 C 
BRANCH  32  33
ATOM     33  N   UNL     1      53.695   9.498   3.524  0.00  0.00    +0.000 NA
ATOM     34  C   UNL     1      53.868   8.731   2.301  0.00  0.00    +0.000 C 
ATOM     35  C   UNL     1      55.016   9.937   3.942  0.00  0.00    +0.000 C 
ENDBRANCH  32  33
ENDBRANCH  29  32
ENDBRANCH  24  26
ENDBRANCH   3  24
TORSDOF 7
ENDMDL
MODEL 8
REMARK VINA RESULT:      -6.3      2.516      4.145
REMARK  Name = OTSSP167.pdbqt.pdb
REMARK  7 active torsions:
REMARK  status: ('A' for Active; 'I' for Inactive)
REMARK    1  A    between atoms: C_5  and  N_19
REMARK    2  A    between atoms: C_7  and  C_31
REMARK    3  A    between atoms: C_11  and  C_13
REMARK    4  A    between atoms: C_18  and  O_34
REMARK    5  A    between atoms: N_19  and  C_21
REMARK    6  A    between atoms: C_24  and  C_27
REMARK    7  A    between atoms: C_27  and  N_28
REMARK                            x       y       z     vdW  Elec       q    Type
REMARK                         _______ _______ _______ _____ _____    ______ ____
ROOT
ATOM      1  N   UNL     1      35.457  16.976  20.206  0.00  0.00    +0.000 NA
ATOM      2  N   UNL     1      38.218  19.142  19.189  0.00  0.00    +0.000 NA
ATOM      3  C   UNL     1      35.447  19.345  19.644  0.00  0.00    +0.000 A 
ATOM      4  C   UNL     1      36.111  18.104  19.832  0.00  0.00    +0.000 A 
ATOM      5  C   UNL     1      36.211  20.453  19.224  0.00  0.00    +0.000 A 
ATOM      6  C   UNL     1      37.500  18.078  19.582  0.00  0.00    +0.000 A 
ATOM      7  C   UNL     1      37.564  20.304  19.016  0.00  0.00    +0.000 A 
ATOM      8  C   UNL     1      38.154  16.871  19.752  0.00  0.00    +0.000 A 
ATOM      9  C   UNL     1      36.125  15.808  20.374  0.00  0.00    +0.000 A 
ATOM     10  C   UNL     1      37.485  15.723  20.150  0.00  0.00    +0.000 A 
ENDROOT
BRANCH   9  13
ATOM     11 CL   UNL     1      31.443  13.878  21.399  0.00  0.00    +0.000 Cl
ATOM     12 CL   UNL     1      35.976  10.932  22.081  0.00  0.00    +0.000 Cl
ATOM     13  C   UNL     1      35.324  14.665  20.817  0.00  0.00    +0.000 A 
ATOM     14  C   UNL     1      35.915  13.455  21.201  0.00  0.00    +0.000 A 
ATOM     15  C   UNL     1      33.927  14.750  20.886  0.00  0.00    +0.000 A 
ATOM     16  C   UNL     1      33.151  13.679  21.323  0.00  0.00    +0.000 A 
ATOM     17  C   UNL     1      35.147  12.374  21.634  0.00  0.00    +0.000 A 
ATOM     18  C   UNL     1      33.758  12.481  21.698  0.00  0.00    +0.000 A 
BRANCH  18  19
ATOM     19  O   UNL     1      33.009  11.418  22.129  0.00  0.00    +0.000 OA
ATOM     20  H   UNL     1      32.376  11.184  21.425  0.00  0.00    +0.000 HD
ENDBRANCH  18  19
ENDBRANCH   9  13
BRANCH   5  21
ATOM     21  C   UNL     1      35.629  21.766  18.954  0.00  0.00    +0.000 C 
ATOM     22  O   UNL     1      34.773  21.994  18.115  0.00  0.00    +0.000 OA
ATOM     23  C   UNL     1      36.050  23.026  19.648  0.00  0.00    +0.000 C 
ENDBRANCH   5  21
BRANCH   3  24
ATOM     24  N   UNL     1      34.065  19.545  19.959  0.00  0.00    +0.000 N 
ATOM     25  H   UNL     1      33.412  19.159  19.271  0.00  0.00    +0.000 HD
BRANCH  24  26
ATOM     26  C   UNL     1      33.505  19.739  21.192  0.00  0.00    +0.000 A 
ATOM     27  C   UNL     1      34.211  20.585  22.120  0.00  0.00    +0.000 A 
ATOM     28  C   UNL     1      34.383  20.330  23.640  0.00  0.00    +0.000 A 
ATOM     29  C   UNL     1      33.861  19.188  24.350  0.00  0.00    +0.000 A 
ATOM     30  C   UNL     1      33.176  18.326  23.419  0.00  0.00    +0.000 A 
ATOM     31  C   UNL     1      33.008  18.584  21.901  0.00  0.00    +0.000 A 
BRANCH  29  32
ATOM     32  C   UNL     1      33.891  19.011  25.751  0.00  0.00    +0.000 C 
BRANCH  32  33
ATOM     33  N   UNL     1      33.922  18.849  27.194  0.00  0.00    +0.000 NA
ATOM     34  C   UNL     1      34.260  20.140  27.770  0.00  0.00    +0.000 C 
ATOM     35  C   UNL     1      35.016  17.944  27.505  0.00  0.00    +0.000 C 
ENDBRANCH  32  33
ENDBRANCH  29  32
ENDBRANCH  24  26
ENDBRANCH   3  24
TORSDOF 7
ENDMDL
MODEL 9
REMARK VINA RESULT:      -6.2     21.531     23.599
REMARK  Name = OTSSP167.pdbqt.pdb
REMARK  7 active torsions:
REMARK  status: ('A' for Active; 'I' for Inactive)
REMARK    1  A    between atoms: C_5  and  N_19
REMARK    2  A    between atoms: C_7  and  C_31
REMARK    3  A    between atoms: C_11  and  C_13
REMARK    4  A    between atoms: C_18  and  O_34
REMARK    5  A    between atoms: N_19  and  C_21
REMARK    6  A    between atoms: C_24  and  C_27
REMARK    7  A    between atoms: C_27  and  N_28
REMARK                            x       y       z     vdW  Elec       q    Type
REMARK                         _______ _______ _______ _____ _____    ______ ____
ROOT
ATOM      1  N   UNL     1      52.660   3.513  13.211  0.00  0.00    +0.000 NA
ATOM      2  N   UNL     1      55.526   2.635  15.301  0.00  0.00    +0.000 NA
ATOM      3  C   UNL     1      53.880   4.869  14.825  0.00  0.00    +0.000 A 
ATOM      4  C   UNL     1      53.647   3.650  14.133  0.00  0.00    +0.000 A 
ATOM      5  C   UNL     1      54.951   4.921  15.741  0.00  0.00    +0.000 A 
ATOM      6  C   UNL     1      54.514   2.575  14.421  0.00  0.00    +0.000 A 
ATOM      7  C   UNL     1      55.727   3.801  15.941  0.00  0.00    +0.000 A 
ATOM      8  C   UNL     1      54.302   1.388  13.744  0.00  0.00    +0.000 A 
ATOM      9  C   UNL     1      52.469   2.334  12.570  0.00  0.00    +0.000 A 
ATOM     10  C   UNL     1      53.282   1.245  12.815  0.00  0.00    +0.000 A 
ENDROOT
BRANCH   9  13
ATOM     11 CL   UNL     1      49.815  -0.370   9.057  0.00  0.00    +0.000 Cl
ATOM     12 CL   UNL     1      48.474   4.750  10.351  0.00  0.00    +0.000 Cl
ATOM     13  C   UNL     1      51.350   2.288  11.625  0.00  0.00    +0.000 A 
ATOM     14  C   UNL     1      50.507   3.388  11.427  0.00  0.00    +0.000 A 
ATOM     15  C   UNL     1      51.093   1.135  10.873  0.00  0.00    +0.000 A 
ATOM     16  C   UNL     1      50.045   1.079   9.957  0.00  0.00    +0.000 A 
ATOM     17  C   UNL     1      49.451   3.342  10.517  0.00  0.00    +0.000 A 
ATOM     18  C   UNL     1      49.215   2.184   9.775  0.00  0.00    +0.000 A 
BRANCH  18  19
ATOM     19  O   UNL     1      48.178   2.145   8.880  0.00  0.00    +0.000 OA
ATOM     20  H   UNL     1      47.342   2.105   9.381  0.00  0.00    +0.000 HD
ENDBRANCH  18  19
ENDBRANCH   9  13
BRANCH   5  21
ATOM     21  C   UNL     1      55.314   6.131  16.475  0.00  0.00    +0.000 C 
ATOM     22  O   UNL     1      55.649   7.186  15.963  0.00  0.00    +0.000 OA
ATOM     23  C   UNL     1      55.370   6.217  17.970  0.00  0.00    +0.000 C 
ENDBRANCH   5  21
BRANCH   3  24
ATOM     24  N   UNL     1      53.020   6.007  14.711  0.00  0.00    +0.000 N 
ATOM     25  H   UNL     1      52.733   6.413  15.607  0.00  0.00    +0.000 HD
BRANCH  24  26
ATOM     26  C   UNL     1      52.910   6.875  13.660  0.00  0.00    +0.000 A 
ATOM     27  C   UNL     1      51.614   7.024  13.050  0.00  0.00    +0.000 A 
ATOM     28  C   UNL     1      51.326   7.138  11.531  0.00  0.00    +0.000 A 
ATOM     29  C   UNL     1      52.330   7.101  10.495  0.00  0.00    +0.000 A 
ATOM     30  C   UNL     1      53.626   6.926  11.101  0.00  0.00    +0.000 A 
ATOM     31  C   UNL     1      53.908   6.811  12.620  0.00  0.00    +0.000 A 
BRANCH  29  32
ATOM     32  C   UNL     1      52.099   7.340   9.123  0.00  0.00    +0.000 C 
BRANCH  32  33
ATOM     33  N   UNL     1      51.870   7.570   7.707  0.00  0.00    +0.000 NA
ATOM     34  C   UNL     1      53.141   7.962   7.119  0.00  0.00    +0.000 C 
ATOM     35  C   UNL     1      50.977   8.711   7.591  0.00  0.00    +0.000 C 
ENDBRANCH  32  33
ENDBRANCH  29  32
ENDBRANCH  24  26
ENDBRANCH   3  24
TORSDOF 7
ENDMDL
