MODEL 1
REMARK VINA RESULT:      -6.9      0.000      0.000
REMARK  Name = 
REMARK  0 active torsions:
REMARK  status: ('A' for Active; 'I' for Inactive)
REMARK                            x       y       z     vdW  Elec       q    Type
REMARK                         _______ _______ _______ _____ _____    ______ ____
ROOT
ATOM      1  O   UNL     1      40.463  -2.940  14.528  0.00  0.00    +0.000 OA
ATOM      2  O   UNL     1      39.254   2.125  14.359  0.00  0.00    +0.000 OA
ATOM      3  N   UNL     1      41.769  -3.062  14.144  0.00  0.00    +0.000 N 
ATOM      4  N   UNL     1      40.807   0.509  14.935  0.00  0.00    +0.000 N 
ATOM      5  C   UNL     1      42.523  -1.718  14.148  0.00  0.00    +0.000 C 
ATOM      6  C   UNL     1      42.620  -1.084  15.550  0.00  0.00    +0.000 C 
ATOM      7  C   UNL     1      41.979  -0.717  13.122  0.00  0.00    +0.000 C 
ATOM      8  C   UNL     1      41.286  -0.415  15.988  0.00  0.00    +0.000 C 
ATOM      9  C   UNL     1      43.213  -2.104  16.540  0.00  0.00    +0.000 C 
ATOM     10  C   UNL     1      40.678  -0.069  13.593  0.00  0.00    +0.000 C 
ATOM     11  C   UNL     1      42.455  -4.015  15.100  0.00  0.00    +0.000 C 
ATOM     12  C   UNL     1      41.858  -1.343  11.726  0.00  0.00    +0.000 C 
ATOM     13  C   UNL     1      41.805  -3.642  12.745  0.00  0.00    +0.000 C 
ATOM     14  C   UNL     1      42.495  -3.447  16.514  0.00  0.00    +0.000 C 
ATOM     15  C   UNL     1      41.163  -2.700  11.734  0.00  0.00    +0.000 C 
ATOM     16  C   UNL     1      41.449   0.289  17.344  0.00  0.00    +0.000 C 
ATOM     17  C   UNL     1      40.199   1.082  17.677  0.00  0.00    +0.000 C 
ATOM     18  C   UNL     1      39.941   1.568  15.217  0.00  0.00    +0.000 C 
ATOM     19  C   UNL     1      39.989   2.138  16.616  0.00  0.00    +0.000 C 
ENDROOT
TORSDOF 0
ENDMDL
MODEL 2
REMARK VINA RESULT:      -6.7      1.792      4.711
REMARK  Name = 
REMARK  0 active torsions:
REMARK  status: ('A' for Active; 'I' for Inactive)
REMARK                            x       y       z     vdW  Elec       q    Type
REMARK                         _______ _______ _______ _____ _____    ______ ____
ROOT
ATOM      1  O   UNL     1      41.866   0.054  14.274  0.00  0.00    +0.000 OA
ATOM      2  O   UNL     1      42.102  -4.616  11.974  0.00  0.00    +0.000 OA
ATOM      3  N   UNL     1      40.761   0.058  15.079  0.00  0.00    +0.000 N 
ATOM      4  N   UNL     1      41.704  -3.413  13.911  0.00  0.00    +0.000 N 
ATOM      5  C   UNL     1      40.192  -1.353  15.322  0.00  0.00    +0.000 C 
ATOM      6  C   UNL     1      41.173  -2.281  16.065  0.00  0.00    +0.000 C 
ATOM      7  C   UNL     1      39.657  -2.016  14.047  0.00  0.00    +0.000 C 
ATOM      8  C   UNL     1      42.295  -2.820  15.132  0.00  0.00    +0.000 C 
ATOM      9  C   UNL     1      41.651  -1.600  17.360  0.00  0.00    +0.000 C 
ATOM     10  C   UNL     1      40.785  -2.548  13.165  0.00  0.00    +0.000 C 
ATOM     11  C   UNL     1      41.150   0.668  16.409  0.00  0.00    +0.000 C 
ATOM     12  C   UNL     1      38.694  -1.093  13.288  0.00  0.00    +0.000 C 
ATOM     13  C   UNL     1      39.695   0.913  14.426  0.00  0.00    +0.000 C 
ATOM     14  C   UNL     1      42.181  -0.190  17.132  0.00  0.00    +0.000 C 
ATOM     15  C   UNL     1      39.237   0.318  13.101  0.00  0.00    +0.000 C 
ATOM     16  C   UNL     1      43.194  -3.817  15.881  0.00  0.00    +0.000 C 
ATOM     17  C   UNL     1      44.172  -4.466  14.920  0.00  0.00    +0.000 C 
ATOM     18  C   UNL     1      42.383  -4.366  13.148  0.00  0.00    +0.000 C 
ATOM     19  C   UNL     1      43.398  -5.225  13.868  0.00  0.00    +0.000 C 
ENDROOT
TORSDOF 0
ENDMDL
MODEL 3
REMARK VINA RESULT:      -6.6     18.115     20.457
REMARK  Name = 
REMARK  0 active torsions:
REMARK  status: ('A' for Active; 'I' for Inactive)
REMARK                            x       y       z     vdW  Elec       q    Type
REMARK                         _______ _______ _______ _____ _____    ______ ____
ROOT
ATOM      1  O   UNL     1      34.096  16.571  19.448  0.00  0.00    +0.000 OA
ATOM      2  O   UNL     1      39.230  17.242  18.859  0.00  0.00    +0.000 OA
ATOM      3  N   UNL     1      33.860  16.376  20.780  0.00  0.00    +0.000 N 
ATOM      4  N   UNL     1      37.330  17.712  20.094  0.00  0.00    +0.000 N 
ATOM      5  C   UNL     1      35.058  16.767  21.666  0.00  0.00    +0.000 C 
ATOM      6  C   UNL     1      35.409  18.266  21.579  0.00  0.00    +0.000 C 
ATOM      7  C   UNL     1      36.295  15.892  21.428  0.00  0.00    +0.000 C 
ATOM      8  C   UNL     1      36.173  18.618  20.271  0.00  0.00    +0.000 C 
ATOM      9  C   UNL     1      34.153  19.109  21.869  0.00  0.00    +0.000 C 
ATOM     10  C   UNL     1      37.028  16.279  20.144  0.00  0.00    +0.000 C 
ATOM     11  C   UNL     1      32.662  17.215  21.173  0.00  0.00    +0.000 C 
ATOM     12  C   UNL     1      35.954  14.398  21.491  0.00  0.00    +0.000 C 
ATOM     13  C   UNL     1      33.542  14.911  21.001  0.00  0.00    +0.000 C 
ATOM     14  C   UNL     1      32.954  18.703  21.023  0.00  0.00    +0.000 C 
ATOM     15  C   UNL     1      34.732  14.025  20.660  0.00  0.00    +0.000 C 
ATOM     16  C   UNL     1      36.591  20.097  20.266  0.00  0.00    +0.000 C 
ATOM     17  C   UNL     1      37.482  20.387  19.073  0.00  0.00    +0.000 C 
ATOM     18  C   UNL     1      38.434  18.066  19.316  0.00  0.00    +0.000 C 
ATOM     19  C   UNL     1      38.731  19.541  19.175  0.00  0.00    +0.000 C 
ENDROOT
TORSDOF 0
ENDMDL
MODEL 4
REMARK VINA RESULT:      -6.4      1.993      4.952
REMARK  Name = 
REMARK  0 active torsions:
REMARK  status: ('A' for Active; 'I' for Inactive)
REMARK                            x       y       z     vdW  Elec       q    Type
REMARK                         _______ _______ _______ _____ _____    ______ ____
ROOT
ATOM      1  O   UNL     1      40.197  -2.361  14.899  0.00  0.00    +0.000 OA
ATOM      2  O   UNL     1      44.376  -2.800  17.979  0.00  0.00    +0.000 OA
ATOM      3  N   UNL     1      40.370  -1.244  14.131  0.00  0.00    +0.000 N 
ATOM      4  N   UNL     1      43.548  -2.328  15.870  0.00  0.00    +0.000 N 
ATOM      5  C   UNL     1      41.819  -0.720  14.153  0.00  0.00    +0.000 C 
ATOM      6  C   UNL     1      42.832  -1.721  13.563  0.00  0.00    +0.000 C 
ATOM      7  C   UNL     1      42.263  -0.230  15.537  0.00  0.00    +0.000 C 
ATOM      8  C   UNL     1      43.162  -2.877  14.550  0.00  0.00    +0.000 C 
ATOM      9  C   UNL     1      42.376  -2.152  12.157  0.00  0.00    +0.000 C 
ATOM     10  C   UNL     1      42.594  -1.392  16.473  0.00  0.00    +0.000 C 
ATOM     11  C   UNL     1      39.992  -1.588  12.706  0.00  0.00    +0.000 C 
ATOM     12  C   UNL     1      41.251   0.751  16.143  0.00  0.00    +0.000 C 
ATOM     13  C   UNL     1      39.447  -0.159  14.647  0.00  0.00    +0.000 C 
ATOM     14  C   UNL     1      40.932  -2.636  12.121  0.00  0.00    +0.000 C 
ATOM     15  C   UNL     1      39.812   0.255  16.067  0.00  0.00    +0.000 C 
ATOM     16  C   UNL     1      44.246  -3.798  13.968  0.00  0.00    +0.000 C 
ATOM     17  C   UNL     1      44.684  -4.814  15.005  0.00  0.00    +0.000 C 
ATOM     18  C   UNL     1      44.329  -3.052  16.773  0.00  0.00    +0.000 C 
ATOM     19  C   UNL     1      45.269  -4.084  16.193  0.00  0.00    +0.000 C 
ENDROOT
TORSDOF 0
ENDMDL
MODEL 5
REMARK VINA RESULT:      -6.2     18.527     20.640
REMARK  Name = 
REMARK  0 active torsions:
REMARK  status: ('A' for Active; 'I' for Inactive)
REMARK                            x       y       z     vdW  Elec       q    Type
REMARK                         _______ _______ _______ _____ _____    ______ ____
ROOT
ATOM      1  O   UNL     1      35.532  17.195  23.076  0.00  0.00    +0.000 OA
ATOM      2  O   UNL     1      37.224  20.656  19.568  0.00  0.00    +0.000 OA
ATOM      3  N   UNL     1      34.481  16.524  22.514  0.00  0.00    +0.000 N 
ATOM      4  N   UNL     1      36.468  18.508  19.981  0.00  0.00    +0.000 N 
ATOM      5  C   UNL     1      34.383  16.730  20.991  0.00  0.00    +0.000 C 
ATOM      6  C   UNL     1      35.606  16.184  20.228  0.00  0.00    +0.000 C 
ATOM      7  C   UNL     1      34.085  18.182  20.596  0.00  0.00    +0.000 C 
ATOM      8  C   UNL     1      36.841  17.122  20.344  0.00  0.00    +0.000 C 
ATOM      9  C   UNL     1      35.845  14.713  20.616  0.00  0.00    +0.000 C 
ATOM     10  C   UNL     1      35.324  19.069  20.707  0.00  0.00    +0.000 C 
ATOM     11  C   UNL     1      34.658  15.048  22.802  0.00  0.00    +0.000 C 
ATOM     12  C   UNL     1      32.882  18.743  21.365  0.00  0.00    +0.000 C 
ATOM     13  C   UNL     1      33.201  17.011  23.160  0.00  0.00    +0.000 C 
ATOM     14  C   UNL     1      35.905  14.496  22.122  0.00  0.00    +0.000 C 
ATOM     15  C   UNL     1      32.954  18.486  22.865  0.00  0.00    +0.000 C 
ATOM     16  C   UNL     1      38.008  16.596  19.493  0.00  0.00    +0.000 C 
ATOM     17  C   UNL     1      39.141  17.604  19.475  0.00  0.00    +0.000 C 
ATOM     18  C   UNL     1      37.412  19.438  19.540  0.00  0.00    +0.000 C 
ATOM     19  C   UNL     1      38.645  18.891  18.856  0.00  0.00    +0.000 C 
ENDROOT
TORSDOF 0
ENDMDL
MODEL 6
REMARK VINA RESULT:      -5.9      1.968      3.167
REMARK  Name = 
REMARK  0 active torsions:
REMARK  status: ('A' for Active; 'I' for Inactive)
REMARK                            x       y       z     vdW  Elec       q    Type
REMARK                         _______ _______ _______ _____ _____    ______ ____
ROOT
ATOM      1  O   UNL     1      40.516  -3.166  14.442  0.00  0.00    +0.000 OA
ATOM      2  O   UNL     1      41.477  -0.001  18.467  0.00  0.00    +0.000 OA
ATOM      3  N   UNL     1      41.199  -2.675  13.364  0.00  0.00    +0.000 N 
ATOM      4  N   UNL     1      42.316  -1.126  16.627  0.00  0.00    +0.000 N 
ATOM      5  C   UNL     1      42.263  -1.630  13.752  0.00  0.00    +0.000 C 
ATOM      6  C   UNL     1      43.376  -2.207  14.649  0.00  0.00    +0.000 C 
ATOM      7  C   UNL     1      41.664  -0.356  14.359  0.00  0.00    +0.000 C 
ATOM      8  C   UNL     1      42.913  -2.384  16.123  0.00  0.00    +0.000 C 
ATOM      9  C   UNL     1      43.982  -3.456  13.984  0.00  0.00    +0.000 C 
ATOM     10  C   UNL     1      41.236  -0.564  15.812  0.00  0.00    +0.000 C 
ATOM     11  C   UNL     1      41.879  -3.836  12.669  0.00  0.00    +0.000 C 
ATOM     12  C   UNL     1      40.540   0.216  13.485  0.00  0.00    +0.000 C 
ATOM     13  C   UNL     1      40.204  -2.036  12.417  0.00  0.00    +0.000 C 
ATOM     14  C   UNL     1      42.933  -4.477  13.564  0.00  0.00    +0.000 C 
ATOM     15  C   UNL     1      39.521  -0.833  13.055  0.00  0.00    +0.000 C 
ATOM     16  C   UNL     1      44.075  -2.867  17.006  0.00  0.00    +0.000 C 
ATOM     17  C   UNL     1      43.661  -2.868  18.465  0.00  0.00    +0.000 C 
ATOM     18  C   UNL     1      42.254  -0.831  17.991  0.00  0.00    +0.000 C 
ATOM     19  C   UNL     1      43.306  -1.458  18.877  0.00  0.00    +0.000 C 
ENDROOT
TORSDOF 0
ENDMDL
MODEL 7
REMARK VINA RESULT:      -5.5     10.445     11.885
REMARK  Name = 
REMARK  0 active torsions:
REMARK  status: ('A' for Active; 'I' for Inactive)
REMARK                            x       y       z     vdW  Elec       q    Type
REMARK                         _______ _______ _______ _____ _____    ______ ____
ROOT
ATOM      1  O   UNL     1      52.458   2.250  11.041  0.00  0.00    +0.000 OA
ATOM      2  O   UNL     1      50.880   2.818   6.108  0.00  0.00    +0.000 OA
ATOM      3  N   UNL     1      51.467   2.738  11.847  0.00  0.00    +0.000 N 
ATOM      4  N   UNL     1      50.328   2.227   8.277  0.00  0.00    +0.000 N 
ATOM      5  C   UNL     1      50.133   2.939  11.102  0.00  0.00    +0.000 C 
ATOM      6  C   UNL     1      49.540   1.623  10.561  0.00  0.00    +0.000 C 
ATOM      7  C   UNL     1      50.210   4.007  10.004  0.00  0.00    +0.000 C 
ATOM      8  C   UNL     1      50.264   1.134   9.274  0.00  0.00    +0.000 C 
ATOM      9  C   UNL     1      49.437   0.593  11.701  0.00  0.00    +0.000 C 
ATOM     10  C   UNL     1      50.912   3.486   8.750  0.00  0.00    +0.000 C 
ATOM     11  C   UNL     1      51.256   1.757  12.980  0.00  0.00    +0.000 C 
ATOM     12  C   UNL     1      50.819   5.315  10.525  0.00  0.00    +0.000 C 
ATOM     13  C   UNL     1      51.921   4.068  12.411  0.00  0.00    +0.000 C 
ATOM     14  C   UNL     1      50.742   0.418  12.466  0.00  0.00    +0.000 C 
ATOM     15  C   UNL     1      52.107   5.106  11.312  0.00  0.00    +0.000 C 
ATOM     16  C   UNL     1      49.584  -0.123   8.710  0.00  0.00    +0.000 C 
ATOM     17  C   UNL     1      50.186  -0.488   7.366  0.00  0.00    +0.000 C 
ATOM     18  C   UNL     1      50.475   1.975   6.911  0.00  0.00    +0.000 C 
ATOM     19  C   UNL     1      49.955   0.651   6.399  0.00  0.00    +0.000 C 
ENDROOT
TORSDOF 0
ENDMDL
MODEL 8
REMARK VINA RESULT:      -5.5     10.884     12.681
REMARK  Name = 
REMARK  0 active torsions:
REMARK  status: ('A' for Active; 'I' for Inactive)
REMARK                            x       y       z     vdW  Elec       q    Type
REMARK                         _______ _______ _______ _____ _____    ______ ____
ROOT
ATOM      1  O   UNL     1      49.790   5.555   9.824  0.00  0.00    +0.000 OA
ATOM      2  O   UNL     1      48.715   0.577  10.921  0.00  0.00    +0.000 OA
ATOM      3  N   UNL     1      51.136   5.730   9.990  0.00  0.00    +0.000 N 
ATOM      4  N   UNL     1      50.137   2.084   9.890  0.00  0.00    +0.000 N 
ATOM      5  C   UNL     1      51.907   4.398  10.076  0.00  0.00    +0.000 C 
ATOM      6  C   UNL     1      51.811   3.561   8.785  0.00  0.00    +0.000 C 
ATOM      7  C   UNL     1      51.536   3.564  11.309  0.00  0.00    +0.000 C 
ATOM      8  C   UNL     1      50.440   2.838   8.652  0.00  0.00    +0.000 C 
ATOM      9  C   UNL     1      52.234   4.418   7.579  0.00  0.00    +0.000 C 
ATOM     10  C   UNL     1      50.193   2.856  11.135  0.00  0.00    +0.000 C 
ATOM     11  C   UNL     1      51.657   6.526   8.813  0.00  0.00    +0.000 C 
ATOM     12  C   UNL     1      51.608   4.393  12.598  0.00  0.00    +0.000 C 
ATOM     13  C   UNL     1      51.364   6.513  11.267  0.00  0.00    +0.000 C 
ATOM     14  C   UNL     1      51.502   5.752   7.509  0.00  0.00    +0.000 C 
ATOM     15  C   UNL     1      50.894   5.735  12.490  0.00  0.00    +0.000 C 
ATOM     16  C   UNL     1      50.418   1.937   7.407  0.00  0.00    +0.000 C 
ATOM     17  C   UNL     1      49.149   1.107   7.383  0.00  0.00    +0.000 C 
ATOM     18  C   UNL     1      49.260   0.997   9.899  0.00  0.00    +0.000 C 
ATOM     19  C   UNL     1      49.115   0.222   8.608  0.00  0.00    +0.000 C 
ENDROOT
TORSDOF 0
ENDMDL
MODEL 9
REMARK VINA RESULT:      -5.2     10.782     12.668
REMARK  Name = 
REMARK  0 active torsions:
REMARK  status: ('A' for Active; 'I' for Inactive)
REMARK                            x       y       z     vdW  Elec       q    Type
REMARK                         _______ _______ _______ _____ _____    ______ ____
ROOT
ATOM      1  O   UNL     1      51.740   1.369   9.913  0.00  0.00    +0.000 OA
ATOM      2  O   UNL     1      52.921  -0.680   5.270  0.00  0.00    +0.000 OA
ATOM      3  N   UNL     1      50.679   2.212   9.730  0.00  0.00    +0.000 N 
ATOM      4  N   UNL     1      51.266  -0.060   6.765  0.00  0.00    +0.000 N 
ATOM      5  C   UNL     1      49.981   2.011   8.371  0.00  0.00    +0.000 C 
ATOM      6  C   UNL     1      49.356   0.611   8.215  0.00  0.00    +0.000 C 
ATOM      7  C   UNL     1      50.876   2.357   7.175  0.00  0.00    +0.000 C 
ATOM      8  C   UNL     1      50.422  -0.479   7.906  0.00  0.00    +0.000 C 
ATOM      9  C   UNL     1      48.430   0.320   9.410  0.00  0.00    +0.000 C 
ATOM     10  C   UNL     1      51.898   1.257   6.892  0.00  0.00    +0.000 C 
ATOM     11  C   UNL     1      49.681   1.961  10.840  0.00  0.00    +0.000 C 
ATOM     12  C   UNL     1      51.520   3.741   7.329  0.00  0.00    +0.000 C 
ATOM     13  C   UNL     1      51.181   3.639   9.819  0.00  0.00    +0.000 C 
ATOM     14  C   UNL     1      49.103   0.553  10.756  0.00  0.00    +0.000 C 
ATOM     15  C   UNL     1      52.160   3.957   8.696  0.00  0.00    +0.000 C 
ATOM     16  C   UNL     1      49.753  -1.841   7.660  0.00  0.00    +0.000 C 
ATOM     17  C   UNL     1      50.780  -2.853   7.190  0.00  0.00    +0.000 C 
ATOM     18  C   UNL     1      51.958  -0.983   5.977  0.00  0.00    +0.000 C 
ATOM     19  C   UNL     1      51.379  -2.377   5.886  0.00  0.00    +0.000 C 
ENDROOT
TORSDOF 0
ENDMDL
