MODEL 1
REMARK VINA RESULT:      -7.3      0.000      0.000
REMARK  Name = 
REMARK  23 active torsions:
REMARK  status: ('A' for Active; 'I' for Inactive)
REMARK    1  A    between atoms: O_2  and  C_17
REMARK    2  A    between atoms: O_2  and  C_36
REMARK    3  A    between atoms: O_3  and  C_20
REMARK    4  A    between atoms: O_3  and  C_37
REMARK    5  A    between atoms: O_4  and  C_21
REMARK    6  A    between atoms: O_5  and  C_22
REMARK    7  A    between atoms: O_6  and  C_30
REMARK    8  A    between atoms: O_6  and  C_39
REMARK    9  A    between atoms: O_8  and  C_31
REMARK   10  A    between atoms: O_8  and  C_40
REMARK   11  A    between atoms: O_13  and  C_42
REMARK   12  A    between atoms: N_15  and  C_46
REMARK   13  A    between atoms: C_18  and  C_29
REMARK   14  A    between atoms: C_24  and  C_33
REMARK   15  A    between atoms: C_24  and  C_34
REMARK   16  A    between atoms: C_32  and  C_35
REMARK   17  A    between atoms: C_36  and  C_38
REMARK   18  A    between atoms: C_37  and  C_41
REMARK   19  A    between atoms: C_39  and  C_43
REMARK   20  A    between atoms: C_40  and  C_42
REMARK   21  A    between atoms: C_42  and  C_46
REMARK   22  A    between atoms: C_46  and  C_50
REMARK   23  A    between atoms: C_53  and  C_56
REMARK                            x       y       z     vdW  Elec       q    Type
REMARK                         _______ _______ _______ _____ _____    ______ ____
ROOT
ATOM      1  O   UNL     1      54.383  -1.668   4.747  0.00  0.00    +0.000 OA
ATOM      2  O   UNL     1      52.927   4.448   2.526  0.00  0.00    +0.000 OA
ATOM      3  C   UNL     1      54.290   1.667   5.590  0.00  0.00    +0.000 C 
ATOM      4  C   UNL     1      53.872   0.173   5.713  0.00  0.00    +0.000 C 
ATOM      5  C   UNL     1      53.163   2.450   4.279  0.00  0.00    +0.000 C 
ATOM      6  C   UNL     1      54.355  -0.291   4.279  0.00  0.00    +0.000 C 
ATOM      7  C   UNL     1      54.562   2.456   7.258  0.00  0.00    +0.000 C 
ATOM      8  C   UNL     1      54.995   4.116   8.059  0.00  0.00    +0.000 C 
ATOM      9  C   UNL     1      53.462   1.617   2.963  0.00  0.00    +0.000 C 
ATOM     10  C   UNL     1      53.443   0.067   3.128  0.00  0.00    +0.000 C 
ATOM     11  C   UNL     1      55.053   5.724   7.311  0.00  0.00    +0.000 C 
ATOM     12  C   UNL     1      54.734  -1.103   6.069  0.00  0.00    +0.000 C 
ATOM     13  C   UNL     1      53.113   4.254   3.746  0.00  0.00    +0.000 C 
ATOM     14  C   UNL     1      53.871   4.372   9.165  0.00  0.00    +0.000 C 
ATOM     15  C   UNL     1      53.680   6.083   6.561  0.00  0.00    +0.000 C 
ATOM     16  C   UNL     1      51.628   2.156   4.542  0.00  0.00    +0.000 C 
ATOM     17  C   UNL     1      53.332   5.835   4.815  0.00  0.00    +0.000 C 
ATOM     18  C   UNL     1      52.623   5.289   8.781  0.00  0.00    +0.000 C 
ATOM     19  C   UNL     1      52.616   6.098   7.433  0.00  0.00    +0.000 C 
ATOM     20  C   UNL     1      55.226   6.778   8.517  0.00  0.00    +0.000 C 
ATOM     21  C   UNL     1      56.348   6.168   6.556  0.00  0.00    +0.000 C 
ATOM     22  C   UNL     1      51.267   6.655   7.054  0.00  0.00    +0.000 C 
ENDROOT
BRANCH   9  23
ATOM     23  O   UNL     1      54.757   1.967   2.475  0.00  0.00    +0.000 OA
ATOM     24  H   UNL     1      54.708   2.909   2.216  0.00  0.00    +0.000 HD
ENDBRANCH   9  23
BRANCH   8  25
ATOM     25  O   UNL     1      56.228   3.894   8.769  0.00  0.00    +0.000 OA
ATOM     26  H   UNL     1      56.825   4.645   8.603  0.00  0.00    +0.000 HD
ENDBRANCH   8  25
BRANCH  18  27
ATOM     27  O   UNL     1      51.435   4.444   8.761  0.00  0.00    +0.000 OA
BRANCH  27  29
ATOM     28  O   UNL     1      49.918   5.748   9.820  0.00  0.00    +0.000 OA
ATOM     29  C   UNL     1      50.502   4.674   9.721  0.00  0.00    +0.000 C 
BRANCH  29  30
ATOM     30  C   UNL     1      50.363   3.550  10.752  0.00  0.00    +0.000 C 
BRANCH  30  31
ATOM     31  O   UNL     1      49.023   3.265  11.170  0.00  0.00    +0.000 OA
ATOM     32  H   UNL     1      48.723   2.515  10.623  0.00  0.00    +0.000 HD
ENDBRANCH  30  31
BRANCH  30  33
ATOM     33  C   UNL     1      51.252   3.905  11.976  0.00  0.00    +0.000 C 
BRANCH  33  34
ATOM     34  C   UNL     1      51.650   2.646  12.733  0.00  0.00    +0.000 A 
ATOM     35  C   UNL     1      52.749   2.686  13.609  0.00  0.00    +0.000 A 
ATOM     36  C   UNL     1      50.973   1.428  12.563  0.00  0.00    +0.000 A 
ATOM     37  C   UNL     1      53.147   1.544  14.307  0.00  0.00    +0.000 A 
ATOM     38  C   UNL     1      51.370   0.289  13.263  0.00  0.00    +0.000 A 
ATOM     39  C   UNL     1      52.455   0.347  14.137  0.00  0.00    +0.000 A 
ENDBRANCH  33  34
BRANCH  33  41
ATOM     40  O   UNL     1      50.085   6.922  13.594  0.00  0.00    +0.000 OA
ATOM     41  N   UNL     1      50.556   4.852  12.857  0.00  0.00    +0.000 N 
ATOM     42  C   UNL     1      50.935   6.109  13.241  0.00  0.00    +0.000 C 
ATOM     43  H   UNL     1      49.564   4.671  12.975  0.00  0.00    +0.000 HD
BRANCH  42  44
ATOM     44  C   UNL     1      52.358   6.513  13.188  0.00  0.00    +0.000 A 
ATOM     45  C   UNL     1      52.920   7.053  12.027  0.00  0.00    +0.000 A 
ATOM     46  C   UNL     1      53.161   6.278  14.310  0.00  0.00    +0.000 A 
ATOM     47  C   UNL     1      54.269   7.414  12.011  0.00  0.00    +0.000 A 
ATOM     48  C   UNL     1      54.509   6.636  14.290  0.00  0.00    +0.000 A 
ATOM     49  C   UNL     1      55.059   7.212  13.144  0.00  0.00    +0.000 A 
ENDBRANCH  42  44
ENDBRANCH  33  41
ENDBRANCH  30  33
ENDBRANCH  29  30
ENDBRANCH  27  29
ENDBRANCH  18  27
BRANCH  17  50
ATOM     50  O   UNL     1      54.144   6.835   4.163  0.00  0.00    +0.000 OA
BRANCH  50  52
ATOM     51  O   UNL     1      53.970   8.110   2.332  0.00  0.00    +0.000 OA
ATOM     52  C   UNL     1      53.624   7.885   3.488  0.00  0.00    +0.000 C 
ATOM     53  C   UNL     1      52.690   8.799   4.224  0.00  0.00    +0.000 C 
ENDBRANCH  50  52
ENDBRANCH  17  50
BRANCH   7  54
ATOM     54  O   UNL     1      53.314   2.862   7.166  0.00  0.00    +0.000 OA
BRANCH  54  56
ATOM     55  O   UNL     1      54.011   1.562   8.530  0.00  0.00    +0.000 OA
ATOM     56  C   UNL     1      52.923   1.940   8.108  0.00  0.00    +0.000 C 
BRANCH  56  57
ATOM     57  C   UNL     1      51.129   1.305   8.313  0.00  0.00    +0.000 A 
ATOM     58  C   UNL     1      50.684   0.339   9.316  0.00  0.00    +0.000 A 
ATOM     59  C   UNL     1      49.963   1.762   7.628  0.00  0.00    +0.000 A 
ATOM     60  C   UNL     1      49.354  -0.074   9.577  0.00  0.00    +0.000 A 
ATOM     61  C   UNL     1      48.620   1.357   7.874  0.00  0.00    +0.000 A 
ATOM     62  C   UNL     1      48.312   0.441   8.851  0.00  0.00    +0.000 A 
ENDBRANCH  56  57
ENDBRANCH  54  56
ENDBRANCH   7  54
BRANCH   4  63
ATOM     63  O   UNL     1      52.453   0.016   5.945  0.00  0.00    +0.000 OA
BRANCH  63  65
ATOM     64  O   UNL     1      52.142  -1.835   7.159  0.00  0.00    +0.000 OA
ATOM     65  C   UNL     1      51.838  -1.167   6.173  0.00  0.00    +0.000 C 
ATOM     66  C   UNL     1      50.880  -1.704   5.159  0.00  0.00    +0.000 C 
ENDBRANCH  63  65
ENDBRANCH   4  63
TORSDOF 17
ENDMDL
MODEL 2
REMARK VINA RESULT:      -7.0      2.958      6.971
REMARK  Name = 
REMARK  23 active torsions:
REMARK  status: ('A' for Active; 'I' for Inactive)
REMARK    1  A    between atoms: O_2  and  C_17
REMARK    2  A    between atoms: O_2  and  C_36
REMARK    3  A    between atoms: O_3  and  C_20
REMARK    4  A    between atoms: O_3  and  C_37
REMARK    5  A    between atoms: O_4  and  C_21
REMARK    6  A    between atoms: O_5  and  C_22
REMARK    7  A    between atoms: O_6  and  C_30
REMARK    8  A    between atoms: O_6  and  C_39
REMARK    9  A    between atoms: O_8  and  C_31
REMARK   10  A    between atoms: O_8  and  C_40
REMARK   11  A    between atoms: O_13  and  C_42
REMARK   12  A    between atoms: N_15  and  C_46
REMARK   13  A    between atoms: C_18  and  C_29
REMARK   14  A    between atoms: C_24  and  C_33
REMARK   15  A    between atoms: C_24  and  C_34
REMARK   16  A    between atoms: C_32  and  C_35
REMARK   17  A    between atoms: C_36  and  C_38
REMARK   18  A    between atoms: C_37  and  C_41
REMARK   19  A    between atoms: C_39  and  C_43
REMARK   20  A    between atoms: C_40  and  C_42
REMARK   21  A    between atoms: C_42  and  C_46
REMARK   22  A    between atoms: C_46  and  C_50
REMARK   23  A    between atoms: C_53  and  C_56
REMARK                            x       y       z     vdW  Elec       q    Type
REMARK                         _______ _______ _______ _____ _____    ______ ____
ROOT
ATOM      1  O   UNL     1      52.361   8.585   8.317  0.00  0.00    +0.000 OA
ATOM      2  O   UNL     1      54.203   2.714   5.748  0.00  0.00    +0.000 OA
ATOM      3  C   UNL     1      51.707   5.207   8.304  0.00  0.00    +0.000 C 
ATOM      4  C   UNL     1      52.131   6.555   8.956  0.00  0.00    +0.000 C 
ATOM      5  C   UNL     1      53.273   4.428   7.570  0.00  0.00    +0.000 C 
ATOM      6  C   UNL     1      52.504   7.317   7.619  0.00  0.00    +0.000 C 
ATOM      7  C   UNL     1      50.542   4.241   9.395  0.00  0.00    +0.000 C 
ATOM      8  C   UNL     1      49.611   2.594   9.476  0.00  0.00    +0.000 C 
ATOM      9  C   UNL     1      53.774   5.495   6.508  0.00  0.00    +0.000 C 
ATOM     10  C   UNL     1      53.844   6.968   7.012  0.00  0.00    +0.000 C 
ATOM     11  C   UNL     1      49.804   1.161   8.448  0.00  0.00    +0.000 C 
ATOM     12  C   UNL     1      51.328   7.905   9.129  0.00  0.00    +0.000 C 
ATOM     13  C   UNL     1      53.431   2.752   6.731  0.00  0.00    +0.000 C 
ATOM     14  C   UNL     1      49.972   1.959  10.897  0.00  0.00    +0.000 C 
ATOM     15  C   UNL     1      51.329   0.661   8.403  0.00  0.00    +0.000 C 
ATOM     16  C   UNL     1      54.471   4.376   8.608  0.00  0.00    +0.000 C 
ATOM     17  C   UNL     1      52.551   1.099   7.160  0.00  0.00    +0.000 C 
ATOM     18  C   UNL     1      51.151   0.887  10.972  0.00  0.00    +0.000 C 
ATOM     19  C   UNL     1      51.782   0.307   9.653  0.00  0.00    +0.000 C 
ATOM     20  C   UNL     1      48.940  -0.010   9.137  0.00  0.00    +0.000 C 
ATOM     21  C   UNL     1      49.053   1.098   7.079  0.00  0.00    +0.000 C 
ATOM     22  C   UNL     1      53.077  -0.437   9.864  0.00  0.00    +0.000 C 
ENDROOT
BRANCH   9  23
ATOM     23  O   UNL     1      52.894   5.481   5.385  0.00  0.00    +0.000 OA
ATOM     24  H   UNL     1      53.463   5.464   4.589  0.00  0.00    +0.000 HD
ENDBRANCH   9  23
BRANCH   8  25
ATOM     25  O   UNL     1      48.213   2.941   9.524  0.00  0.00    +0.000 OA
ATOM     26  H   UNL     1      48.027   3.373  10.377  0.00  0.00    +0.000 HD
ENDBRANCH   8  25
BRANCH  18  27
ATOM     27  O   UNL     1      52.248   1.478  11.728  0.00  0.00    +0.000 OA
BRANCH  27  29
ATOM     28  O   UNL     1      51.658   2.002  13.849  0.00  0.00    +0.000 OA
ATOM     29  C   UNL     1      52.253   1.266  13.069  0.00  0.00    +0.000 C 
BRANCH  29  30
ATOM     30  C   UNL     1      53.186   0.142  13.531  0.00  0.00    +0.000 C 
BRANCH  30  31
ATOM     31  O   UNL     1      52.548  -0.937  14.224  0.00  0.00    +0.000 OA
ATOM     32  H   UNL     1      52.079  -0.534  14.978  0.00  0.00    +0.000 HD
ENDBRANCH  30  31
BRANCH  30  33
ATOM     33  C   UNL     1      54.302   0.771  14.411  0.00  0.00    +0.000 C 
BRANCH  33  34
ATOM     34  C   UNL     1      55.618   0.828  13.648  0.00  0.00    +0.000 A 
ATOM     35  C   UNL     1      56.790   1.214  14.322  0.00  0.00    +0.000 A 
ATOM     36  C   UNL     1      55.697   0.537  12.277  0.00  0.00    +0.000 A 
ATOM     37  C   UNL     1      58.009   1.288  13.646  0.00  0.00    +0.000 A 
ATOM     38  C   UNL     1      56.918   0.611  11.604  0.00  0.00    +0.000 A 
ATOM     39  C   UNL     1      58.073   0.984  12.289  0.00  0.00    +0.000 A 
ENDBRANCH  33  34
BRANCH  33  41
ATOM     40  O   UNL     1      54.065  -0.317  17.852  0.00  0.00    +0.000 OA
ATOM     41  N   UNL     1      54.451   0.019  15.664  0.00  0.00    +0.000 N 
ATOM     42  C   UNL     1      54.356   0.467  16.953  0.00  0.00    +0.000 C 
ATOM     43  H   UNL     1      54.339  -0.986  15.571  0.00  0.00    +0.000 HD
BRANCH  42  44
ATOM     44  C   UNL     1      54.555   1.900  17.267  0.00  0.00    +0.000 A 
ATOM     45  C   UNL     1      55.834   2.437  17.441  0.00  0.00    +0.000 A 
ATOM     46  C   UNL     1      53.426   2.705  17.460  0.00  0.00    +0.000 A 
ATOM     47  C   UNL     1      55.983   3.791  17.747  0.00  0.00    +0.000 A 
ATOM     48  C   UNL     1      53.578   4.057  17.767  0.00  0.00    +0.000 A 
ATOM     49  C   UNL     1      54.856   4.600  17.901  0.00  0.00    +0.000 A 
ENDBRANCH  42  44
ENDBRANCH  33  41
ENDBRANCH  30  33
ENDBRANCH  29  30
ENDBRANCH  27  29
ENDBRANCH  18  27
BRANCH  17  50
ATOM     50  O   UNL     1      52.107   0.387   5.985  0.00  0.00    +0.000 OA
BRANCH  50  52
ATOM     51  O   UNL     1      53.461  -0.541   4.463  0.00  0.00    +0.000 OA
ATOM     52  C   UNL     1      52.770  -0.672   5.469  0.00  0.00    +0.000 C 
ATOM     53  C   UNL     1      52.559  -2.011   6.110  0.00  0.00    +0.000 C 
ENDBRANCH  50  52
ENDBRANCH  17  50
BRANCH   7  54
ATOM     54  O   UNL     1      51.616   3.619   9.833  0.00  0.00    +0.000 OA
BRANCH  54  56
ATOM     55  O   UNL     1      50.449   4.842  10.919  0.00  0.00    +0.000 OA
ATOM     56  C   UNL     1      51.533   4.281  11.035  0.00  0.00    +0.000 C 
BRANCH  56  57
ATOM     57  C   UNL     1      52.982   4.441  12.277  0.00  0.00    +0.000 A 
ATOM     58  C   UNL     1      54.365   4.048  12.015  0.00  0.00    +0.000 A 
ATOM     59  C   UNL     1      52.962   5.071  13.558  0.00  0.00    +0.000 A 
ATOM     60  C   UNL     1      55.487   4.249  12.857  0.00  0.00    +0.000 A 
ATOM     61  C   UNL     1      54.077   5.280  14.418  0.00  0.00    +0.000 A 
ATOM     62  C   UNL     1      55.342   4.873  14.068  0.00  0.00    +0.000 A 
ENDBRANCH  56  57
ENDBRANCH  54  56
ENDBRANCH   7  54
BRANCH   4  63
ATOM     63  O   UNL     1      53.234   6.395   9.879  0.00  0.00    +0.000 OA
BRANCH  63  65
ATOM     64  O   UNL     1      52.669   7.841  11.489  0.00  0.00    +0.000 OA
ATOM     65  C   UNL     1      53.557   7.281  10.849  0.00  0.00    +0.000 C 
ATOM     66  C   UNL     1      54.990   7.659  11.050  0.00  0.00    +0.000 C 
ENDBRANCH  63  65
ENDBRANCH   4  63
TORSDOF 17
ENDMDL
MODEL 3
REMARK VINA RESULT:      -6.9      3.128      8.626
REMARK  Name = 
REMARK  23 active torsions:
REMARK  status: ('A' for Active; 'I' for Inactive)
REMARK    1  A    between atoms: O_2  and  C_17
REMARK    2  A    between atoms: O_2  and  C_36
REMARK    3  A    between atoms: O_3  and  C_20
REMARK    4  A    between atoms: O_3  and  C_37
REMARK    5  A    between atoms: O_4  and  C_21
REMARK    6  A    between atoms: O_5  and  C_22
REMARK    7  A    between atoms: O_6  and  C_30
REMARK    8  A    between atoms: O_6  and  C_39
REMARK    9  A    between atoms: O_8  and  C_31
REMARK   10  A    between atoms: O_8  and  C_40
REMARK   11  A    between atoms: O_13  and  C_42
REMARK   12  A    between atoms: N_15  and  C_46
REMARK   13  A    between atoms: C_18  and  C_29
REMARK   14  A    between atoms: C_24  and  C_33
REMARK   15  A    between atoms: C_24  and  C_34
REMARK   16  A    between atoms: C_32  and  C_35
REMARK   17  A    between atoms: C_36  and  C_38
REMARK   18  A    between atoms: C_37  and  C_41
REMARK   19  A    between atoms: C_39  and  C_43
REMARK   20  A    between atoms: C_40  and  C_42
REMARK   21  A    between atoms: C_42  and  C_46
REMARK   22  A    between atoms: C_46  and  C_50
REMARK   23  A    between atoms: C_53  and  C_56
REMARK                            x       y       z     vdW  Elec       q    Type
REMARK                         _______ _______ _______ _____ _____    ______ ____
ROOT
ATOM      1  O   UNL     1      49.557   1.390   9.907  0.00  0.00    +0.000 OA
ATOM      2  O   UNL     1      53.552   2.029  15.207  0.00  0.00    +0.000 OA
ATOM      3  C   UNL     1      51.349   3.631  11.807  0.00  0.00    +0.000 C 
ATOM      4  C   UNL     1      50.998   2.856  10.503  0.00  0.00    +0.000 C 
ATOM      5  C   UNL     1      52.565   2.550  12.783  0.00  0.00    +0.000 C 
ATOM      6  C   UNL     1      50.199   1.670  11.182  0.00  0.00    +0.000 C 
ATOM      7  C   UNL     1      51.676   5.437  11.479  0.00  0.00    +0.000 C 
ATOM      8  C   UNL     1      52.194   7.033  12.358  0.00  0.00    +0.000 C 
ATOM      9  C   UNL     1      51.759   1.212  13.059  0.00  0.00    +0.000 C 
ATOM     10  C   UNL     1      51.040   0.591  11.824  0.00  0.00    +0.000 C 
ATOM     11  C   UNL     1      52.844   7.233  13.996  0.00  0.00    +0.000 C 
ATOM     12  C   UNL     1      49.669   2.843   9.648  0.00  0.00    +0.000 C 
ATOM     13  C   UNL     1      53.428   2.975  14.400  0.00  0.00    +0.000 C 
ATOM     14  C   UNL     1      53.412   7.622  11.509  0.00  0.00    +0.000 C 
ATOM     15  C   UNL     1      54.129   6.303  14.246  0.00  0.00    +0.000 C 
ATOM     16  C   UNL     1      53.782   2.052  11.897  0.00  0.00    +0.000 C 
ATOM     17  C   UNL     1      54.122   4.666  14.990  0.00  0.00    +0.000 C 
ATOM     18  C   UNL     1      54.899   7.297  11.989  0.00  0.00    +0.000 C 
ATOM     19  C   UNL     1      55.153   6.611  13.381  0.00  0.00    +0.000 C 
ATOM     20  C   UNL     1      53.337   8.763  14.104  0.00  0.00    +0.000 C 
ATOM     21  C   UNL     1      51.856   7.323  15.203  0.00  0.00    +0.000 C 
ATOM     22  C   UNL     1      56.553   6.081  13.562  0.00  0.00    +0.000 C 
ENDROOT
BRANCH   9  23
ATOM     23  O   UNL     1      50.754   1.469  14.039  0.00  0.00    +0.000 OA
ATOM     24  H   UNL     1      51.171   1.308  14.910  0.00  0.00    +0.000 HD
ENDBRANCH   9  23
BRANCH   8  25
ATOM     25  O   UNL     1      51.093   7.945  12.185  0.00  0.00    +0.000 OA
ATOM     26  H   UNL     1      51.026   8.180  11.242  0.00  0.00    +0.000 HD
ENDBRANCH   8  25
BRANCH  18  27
ATOM     27  O   UNL     1      55.516   6.438  10.987  0.00  0.00    +0.000 OA
BRANCH  27  29
ATOM     28  O   UNL     1      56.792   8.147  10.230  0.00  0.00    +0.000 OA
ATOM     29  C   UNL     1      56.286   7.044  10.047  0.00  0.00    +0.000 C 
BRANCH  29  30
ATOM     30  C   UNL     1      56.334   6.317   8.700  0.00  0.00    +0.000 C 
BRANCH  30  31
ATOM     31  O   UNL     1      57.464   5.458   8.507  0.00  0.00    +0.000 OA
ATOM     32  H   UNL     1      57.105   4.554   8.427  0.00  0.00    +0.000 HD
ENDBRANCH  30  31
BRANCH  30  33
ATOM     33  C   UNL     1      56.263   7.385   7.573  0.00  0.00    +0.000 C 
BRANCH  33  34
ATOM     34  C   UNL     1      55.044   7.154   6.690  0.00  0.00    +0.000 A 
ATOM     35  C   UNL     1      54.540   5.851   6.537  0.00  0.00    +0.000 A 
ATOM     36  C   UNL     1      54.420   8.201   5.993  0.00  0.00    +0.000 A 
ATOM     37  C   UNL     1      53.432   5.605   5.724  0.00  0.00    +0.000 A 
ATOM     38  C   UNL     1      53.312   7.954   5.183  0.00  0.00    +0.000 A 
ATOM     39  C   UNL     1      52.816   6.657   5.050  0.00  0.00    +0.000 A 
ENDBRANCH  33  34
BRANCH  33  41
ATOM     40  O   UNL     1      59.382   8.319   5.999  0.00  0.00    +0.000 OA
ATOM     41  N   UNL     1      57.498   7.374   6.778  0.00  0.00    +0.000 N 
ATOM     42  C   UNL     1      58.183   8.428   6.237  0.00  0.00    +0.000 C 
ATOM     43  H   UNL     1      58.055   6.530   6.870  0.00  0.00    +0.000 HD
BRANCH  42  44
ATOM     44  C   UNL     1      57.500   9.715   5.980  0.00  0.00    +0.000 A 
ATOM     45  C   UNL     1      57.171  10.587   7.023  0.00  0.00    +0.000 A 
ATOM     46  C   UNL     1      57.118  10.020   4.668  0.00  0.00    +0.000 A 
ATOM     47  C   UNL     1      56.517  11.789   6.744  0.00  0.00    +0.000 A 
ATOM     48  C   UNL     1      56.462  11.219   4.393  0.00  0.00    +0.000 A 
ATOM     49  C   UNL     1      56.171  12.106   5.430  0.00  0.00    +0.000 A 
ENDBRANCH  42  44
ENDBRANCH  33  41
ENDBRANCH  30  33
ENDBRANCH  29  30
ENDBRANCH  27  29
ENDBRANCH  18  27
BRANCH  17  50
ATOM     50  O   UNL     1      53.833   4.928  16.380  0.00  0.00    +0.000 OA
BRANCH  50  52
ATOM     51  O   UNL     1      55.066   3.813  17.878  0.00  0.00    +0.000 OA
ATOM     52  C   UNL     1      54.773   4.882  17.351  0.00  0.00    +0.000 C 
ATOM     53  C   UNL     1      55.368   6.178  17.814  0.00  0.00    +0.000 C 
ENDBRANCH  50  52
ENDBRANCH  17  50
BRANCH   7  54
ATOM     54  O   UNL     1      52.946   5.100  11.412  0.00  0.00    +0.000 OA
BRANCH  54  56
ATOM     55  O   UNL     1      53.882   4.476   9.747  0.00  0.00    +0.000 OA
ATOM     56  C   UNL     1      52.914   5.170  10.039  0.00  0.00    +0.000 C 
BRANCH  56  57
ATOM     57  C   UNL     1      51.792   6.364   9.049  0.00  0.00    +0.000 A 
ATOM     58  C   UNL     1      52.051   7.787   8.840  0.00  0.00    +0.000 A 
ATOM     59  C   UNL     1      50.639   6.031   8.276  0.00  0.00    +0.000 A 
ATOM     60  C   UNL     1      51.313   8.682   8.026  0.00  0.00    +0.000 A 
ATOM     61  C   UNL     1      49.884   6.916   7.454  0.00  0.00    +0.000 A 
ATOM     62  C   UNL     1      50.221   8.242   7.325  0.00  0.00    +0.000 A 
ENDBRANCH  56  57
ENDBRANCH  54  56
ENDBRANCH   7  54
BRANCH   4  63
ATOM     63  O   UNL     1      52.178   2.442   9.776  0.00  0.00    +0.000 OA
BRANCH  63  65
ATOM     64  O   UNL     1      52.324   0.632   8.471  0.00  0.00    +0.000 OA
ATOM     65  C   UNL     1      52.162   1.848   8.561  0.00  0.00    +0.000 C 
ATOM     66  C   UNL     1      52.065   2.693   7.331  0.00  0.00    +0.000 C 
ENDBRANCH  63  65
ENDBRANCH   4  63
TORSDOF 17
ENDMDL
MODEL 4
REMARK VINA RESULT:      -6.7      2.662      7.537
REMARK  Name = 
REMARK  23 active torsions:
REMARK  status: ('A' for Active; 'I' for Inactive)
REMARK    1  A    between atoms: O_2  and  C_17
REMARK    2  A    between atoms: O_2  and  C_36
REMARK    3  A    between atoms: O_3  and  C_20
REMARK    4  A    between atoms: O_3  and  C_37
REMARK    5  A    between atoms: O_4  and  C_21
REMARK    6  A    between atoms: O_5  and  C_22
REMARK    7  A    between atoms: O_6  and  C_30
REMARK    8  A    between atoms: O_6  and  C_39
REMARK    9  A    between atoms: O_8  and  C_31
REMARK   10  A    between atoms: O_8  and  C_40
REMARK   11  A    between atoms: O_13  and  C_42
REMARK   12  A    between atoms: N_15  and  C_46
REMARK   13  A    between atoms: C_18  and  C_29
REMARK   14  A    between atoms: C_24  and  C_33
REMARK   15  A    between atoms: C_24  and  C_34
REMARK   16  A    between atoms: C_32  and  C_35
REMARK   17  A    between atoms: C_36  and  C_38
REMARK   18  A    between atoms: C_37  and  C_41
REMARK   19  A    between atoms: C_39  and  C_43
REMARK   20  A    between atoms: C_40  and  C_42
REMARK   21  A    between atoms: C_42  and  C_46
REMARK   22  A    between atoms: C_46  and  C_50
REMARK   23  A    between atoms: C_53  and  C_56
REMARK                            x       y       z     vdW  Elec       q    Type
REMARK                         _______ _______ _______ _____ _____    ______ ____
ROOT
ATOM      1  O   UNL     1      53.209   7.385  13.870  0.00  0.00    +0.000 OA
ATOM      2  O   UNL     1      58.598   6.917   9.971  0.00  0.00    +0.000 OA
ATOM      3  C   UNL     1      54.306   7.302  10.610  0.00  0.00    +0.000 C 
ATOM      4  C   UNL     1      53.517   6.772  11.843  0.00  0.00    +0.000 C 
ATOM      5  C   UNL     1      56.059   6.585  10.723  0.00  0.00    +0.000 C 
ATOM      6  C   UNL     1      54.324   7.562  12.952  0.00  0.00    +0.000 C 
ATOM      7  C   UNL     1      53.298   7.207   9.043  0.00  0.00    +0.000 C 
ATOM      8  C   UNL     1      53.417   7.535   7.182  0.00  0.00    +0.000 C 
ATOM      9  C   UNL     1      56.618   7.144  12.097  0.00  0.00    +0.000 C 
ATOM     10  C   UNL     1      55.671   6.986  13.325  0.00  0.00    +0.000 C 
ATOM     11  C   UNL     1      54.860   7.878   6.209  0.00  0.00    +0.000 C 
ATOM     12  C   UNL     1      52.346   7.436  12.670  0.00  0.00    +0.000 C 
ATOM     13  C   UNL     1      57.457   6.784   9.479  0.00  0.00    +0.000 C 
ATOM     14  C   UNL     1      52.923   6.192   6.470  0.00  0.00    +0.000 C 
ATOM     15  C   UNL     1      55.993   6.758   6.406  0.00  0.00    +0.000 C 
ATOM     16  C   UNL     1      56.060   5.017  10.953  0.00  0.00    +0.000 C 
ATOM     17  C   UNL     1      57.368   6.834   7.561  0.00  0.00    +0.000 C 
ATOM     18  C   UNL     1      54.022   5.138   5.993  0.00  0.00    +0.000 C 
ATOM     19  C   UNL     1      55.548   5.515   6.017  0.00  0.00    +0.000 C 
ATOM     20  C   UNL     1      54.393   7.816   4.669  0.00  0.00    +0.000 C 
ATOM     21  C   UNL     1      55.396   9.344   6.130  0.00  0.00    +0.000 C 
ATOM     22  C   UNL     1      56.478   4.339   5.849  0.00  0.00    +0.000 C 
ENDROOT
BRANCH   9  23
ATOM     23  O   UNL     1      56.887   8.539  11.958  0.00  0.00    +0.000 OA
ATOM     24  H   UNL     1      56.026   8.995  12.043  0.00  0.00    +0.000 HD
ENDBRANCH   9  23
BRANCH   8  25
ATOM     25  O   UNL     1      52.423   8.539   6.901  0.00  0.00    +0.000 OA
ATOM     26  H   UNL     1      51.703   8.131   6.388  0.00  0.00    +0.000 HD
ENDBRANCH   8  25
BRANCH  18  27
ATOM     27  O   UNL     1      53.880   3.940   6.810  0.00  0.00    +0.000 OA
BRANCH  27  29
ATOM     28  O   UNL     1      51.956   3.019   6.056  0.00  0.00    +0.000 OA
ATOM     29  C   UNL     1      53.157   2.919   6.283  0.00  0.00    +0.000 C 
BRANCH  29  30
ATOM     30  C   UNL     1      53.923   1.599   6.153  0.00  0.00    +0.000 C 
BRANCH  30  31
ATOM     31  O   UNL     1      54.293   1.235   4.818  0.00  0.00    +0.000 OA
ATOM     32  H   UNL     1      53.557   1.522   4.246  0.00  0.00    +0.000 HD
ENDBRANCH  30  31
BRANCH  30  33
ATOM     33  C   UNL     1      53.069   0.478   6.806  0.00  0.00    +0.000 C 
BRANCH  33  34
ATOM     34  C   UNL     1      53.959  -0.515   7.541  0.00  0.00    +0.000 A 
ATOM     35  C   UNL     1      55.334  -0.251   7.664  0.00  0.00    +0.000 A 
ATOM     36  C   UNL     1      53.456  -1.712   8.075  0.00  0.00    +0.000 A 
ATOM     37  C   UNL     1      56.177  -1.149   8.320  0.00  0.00    +0.000 A 
ATOM     38  C   UNL     1      54.300  -2.608   8.732  0.00  0.00    +0.000 A 
ATOM     39  C   UNL     1      55.660  -2.326   8.857  0.00  0.00    +0.000 A 
ENDBRANCH  33  34
BRANCH  33  41
ATOM     40  O   UNL     1      50.364  -0.466   4.600  0.00  0.00    +0.000 OA
ATOM     41  N   UNL     1      52.249  -0.199   5.793  0.00  0.00    +0.000 N 
ATOM     42  C   UNL     1      50.886  -0.265   5.692  0.00  0.00    +0.000 C 
ATOM     43  H   UNL     1      52.733  -0.405   4.924  0.00  0.00    +0.000 HD
BRANCH  42  44
ATOM     44  C   UNL     1      50.034  -0.049   6.883  0.00  0.00    +0.000 A 
ATOM     45  C   UNL     1      49.822  -1.064   7.822  0.00  0.00    +0.000 A 
ATOM     46  C   UNL     1      49.377   1.179   7.021  0.00  0.00    +0.000 A 
ATOM     47  C   UNL     1      49.003  -0.827   8.927  0.00  0.00    +0.000 A 
ATOM     48  C   UNL     1      48.557   1.412   8.125  0.00  0.00    +0.000 A 
ATOM     49  C   UNL     1      48.379   0.411   9.082  0.00  0.00    +0.000 A 
ENDBRANCH  42  44
ENDBRANCH  33  41
ENDBRANCH  30  33
ENDBRANCH  29  30
ENDBRANCH  27  29
ENDBRANCH  18  27
BRANCH  17  50
ATOM     50  O   UNL     1      58.230   7.844   6.994  0.00  0.00    +0.000 OA
BRANCH  50  52
ATOM     51  O   UNL     1      60.455   8.070   7.074  0.00  0.00    +0.000 OA
ATOM     52  C   UNL     1      59.471   7.579   6.528  0.00  0.00    +0.000 C 
ATOM     53  C   UNL     1      59.592   6.750   5.285  0.00  0.00    +0.000 C 
ENDBRANCH  50  52
ENDBRANCH  17  50
BRANCH   7  54
ATOM     54  O   UNL     1      53.889   6.047   8.844  0.00  0.00    +0.000 OA
BRANCH  54  56
ATOM     55  O   UNL     1      51.928   6.309   9.196  0.00  0.00    +0.000 OA
ATOM     56  C   UNL     1      52.726   5.379   9.146  0.00  0.00    +0.000 C 
BRANCH  56  57
ATOM     57  C   UNL     1      52.646   3.536   9.657  0.00  0.00    +0.000 A 
ATOM     58  C   UNL     1      53.798   2.701   9.988  0.00  0.00    +0.000 A 
ATOM     59  C   UNL     1      51.478   2.757   9.917  0.00  0.00    +0.000 A 
ATOM     60  C   UNL     1      53.782   1.371  10.478  0.00  0.00    +0.000 A 
ATOM     61  C   UNL     1      51.440   1.421  10.407  0.00  0.00    +0.000 A 
ATOM     62  C   UNL     1      52.591   0.726  10.691  0.00  0.00    +0.000 A 
ENDBRANCH  56  57
ENDBRANCH  54  56
ENDBRANCH   7  54
BRANCH   4  63
ATOM     63  O   UNL     1      53.590   5.332  11.963  0.00  0.00    +0.000 OA
BRANCH  63  65
ATOM     64  O   UNL     1      51.645   4.601  12.789  0.00  0.00    +0.000 OA
ATOM     65  C   UNL     1      52.873   4.599  12.845  0.00  0.00    +0.000 C 
ATOM     66  C   UNL     1      53.580   3.887  13.954  0.00  0.00    +0.000 C 
ENDBRANCH  63  65
ENDBRANCH   4  63
TORSDOF 17
ENDMDL
MODEL 5
REMARK VINA RESULT:      -6.5     13.360     17.413
REMARK  Name = 
REMARK  23 active torsions:
REMARK  status: ('A' for Active; 'I' for Inactive)
REMARK    1  A    between atoms: O_2  and  C_17
REMARK    2  A    between atoms: O_2  and  C_36
REMARK    3  A    between atoms: O_3  and  C_20
REMARK    4  A    between atoms: O_3  and  C_37
REMARK    5  A    between atoms: O_4  and  C_21
REMARK    6  A    between atoms: O_5  and  C_22
REMARK    7  A    between atoms: O_6  and  C_30
REMARK    8  A    between atoms: O_6  and  C_39
REMARK    9  A    between atoms: O_8  and  C_31
REMARK   10  A    between atoms: O_8  and  C_40
REMARK   11  A    between atoms: O_13  and  C_42
REMARK   12  A    between atoms: N_15  and  C_46
REMARK   13  A    between atoms: C_18  and  C_29
REMARK   14  A    between atoms: C_24  and  C_33
REMARK   15  A    between atoms: C_24  and  C_34
REMARK   16  A    between atoms: C_32  and  C_35
REMARK   17  A    between atoms: C_36  and  C_38
REMARK   18  A    between atoms: C_37  and  C_41
REMARK   19  A    between atoms: C_39  and  C_43
REMARK   20  A    between atoms: C_40  and  C_42
REMARK   21  A    between atoms: C_42  and  C_46
REMARK   22  A    between atoms: C_46  and  C_50
REMARK   23  A    between atoms: C_53  and  C_56
REMARK                            x       y       z     vdW  Elec       q    Type
REMARK                         _______ _______ _______ _____ _____    ______ ____
ROOT
ATOM      1  O   UNL     1      40.334  -0.568  12.257  0.00  0.00    +0.000 OA
ATOM      2  O   UNL     1      43.472  -6.096  14.268  0.00  0.00    +0.000 OA
ATOM      3  C   UNL     1      40.196  -3.230  14.433  0.00  0.00    +0.000 C 
ATOM      4  C   UNL     1      40.286  -1.721  14.059  0.00  0.00    +0.000 C 
ATOM      5  C   UNL     1      41.970  -3.899  14.468  0.00  0.00    +0.000 C 
ATOM      6  C   UNL     1      40.791  -1.912  12.571  0.00  0.00    +0.000 C 
ATOM      7  C   UNL     1      38.997  -3.532  15.830  0.00  0.00    +0.000 C 
ATOM      8  C   UNL     1      38.319  -4.919  16.927  0.00  0.00    +0.000 C 
ATOM      9  C   UNL     1      42.503  -3.661  12.993  0.00  0.00    +0.000 C 
ATOM     10  C   UNL     1      42.259  -2.237  12.409  0.00  0.00    +0.000 C 
ATOM     11  C   UNL     1      38.913  -6.581  17.103  0.00  0.00    +0.000 C 
ATOM     12  C   UNL     1      39.276  -0.803  13.264  0.00  0.00    +0.000 C 
ATOM     13  C   UNL     1      42.529  -5.631  14.944  0.00  0.00    +0.000 C 
ATOM     14  C   UNL     1      38.491  -4.408  18.430  0.00  0.00    +0.000 C 
ATOM     15  C   UNL     1      40.475  -6.620  17.473  0.00  0.00    +0.000 C 
ATOM     16  C   UNL     1      42.941  -3.002  15.343  0.00  0.00    +0.000 C 
ATOM     17  C   UNL     1      41.835  -6.791  16.309  0.00  0.00    +0.000 C 
ATOM     18  C   UNL     1      39.778  -4.877  19.248  0.00  0.00    +0.000 C 
ATOM     19  C   UNL     1      40.728  -5.988  18.668  0.00  0.00    +0.000 C 
ATOM     20  C   UNL     1      38.114  -7.218  18.348  0.00  0.00    +0.000 C 
ATOM     21  C   UNL     1      38.456  -7.668  16.077  0.00  0.00    +0.000 C 
ATOM     22  C   UNL     1      42.054  -6.101  19.379  0.00  0.00    +0.000 C 
ENDROOT
BRANCH   9  23
ATOM     23  O   UNL     1      41.866  -4.586  12.113  0.00  0.00    +0.000 OA
ATOM     24  H   UNL     1      42.024  -5.476  12.487  0.00  0.00    +0.000 HD
ENDBRANCH   9  23
BRANCH   8  25
ATOM     25  O   UNL     1      36.903  -4.961  16.666  0.00  0.00    +0.000 OA
ATOM     26  H   UNL     1      36.677  -5.836  16.305  0.00  0.00    +0.000 HD
ENDBRANCH   8  25
BRANCH  18  27
ATOM     27  O   UNL     1      40.612  -3.705  19.484  0.00  0.00    +0.000 OA
BRANCH  27  29
ATOM     28  O   UNL     1      39.569  -2.545  21.124  0.00  0.00    +0.000 OA
ATOM     29  C   UNL     1      40.557  -3.151  20.723  0.00  0.00    +0.000 C 
BRANCH  29  30
ATOM     30  C   UNL     1      41.874  -3.208  21.503  0.00  0.00    +0.000 C 
BRANCH  30  31
ATOM     31  O   UNL     1      41.927  -4.190  22.545  0.00  0.00    +0.000 OA
ATOM     32  H   UNL     1      42.720  -3.982  23.072  0.00  0.00    +0.000 HD
ENDBRANCH  30  31
BRANCH  30  33
ATOM     33  C   UNL     1      42.159  -1.792  22.074  0.00  0.00    +0.000 C 
BRANCH  33  34
ATOM     34  C   UNL     1      43.636  -1.447  21.945  0.00  0.00    +0.000 A 
ATOM     35  C   UNL     1      44.464  -2.249  21.139  0.00  0.00    +0.000 A 
ATOM     36  C   UNL     1      44.212  -0.368  22.633  0.00  0.00    +0.000 A 
ATOM     37  C   UNL     1      45.824  -1.966  21.011  0.00  0.00    +0.000 A 
ATOM     38  C   UNL     1      45.572  -0.086  22.502  0.00  0.00    +0.000 A 
ATOM     39  C   UNL     1      46.378  -0.883  21.690  0.00  0.00    +0.000 A 
ENDBRANCH  33  34
BRANCH  33  41
ATOM     40  O   UNL     1      40.221  -1.196  25.069  0.00  0.00    +0.000 OA
ATOM     41  N   UNL     1      41.719  -1.704  23.473  0.00  0.00    +0.000 N 
ATOM     42  C   UNL     1      40.792  -0.868  24.033  0.00  0.00    +0.000 C 
ATOM     43  H   UNL     1      41.914  -2.530  24.031  0.00  0.00    +0.000 HD
BRANCH  42  44
ATOM     44  C   UNL     1      40.437   0.409  23.375  0.00  0.00    +0.000 A 
ATOM     45  C   UNL     1      41.289   1.517  23.426  0.00  0.00    +0.000 A 
ATOM     46  C   UNL     1      39.188   0.516  22.752  0.00  0.00    +0.000 A 
ATOM     47  C   UNL     1      40.917   2.709  22.802  0.00  0.00    +0.000 A 
ATOM     48  C   UNL     1      38.818   1.709  22.131  0.00  0.00    +0.000 A 
ATOM     49  C   UNL     1      39.687   2.801  22.149  0.00  0.00    +0.000 A 
ENDBRANCH  42  44
ENDBRANCH  33  41
ENDBRANCH  30  33
ENDBRANCH  29  30
ENDBRANCH  27  29
ENDBRANCH  18  27
BRANCH  17  50
ATOM     50  O   UNL     1      41.733  -8.163  15.870  0.00  0.00    +0.000 OA
BRANCH  50  52
ATOM     51  O   UNL     1      43.294  -9.563  15.086  0.00  0.00    +0.000 OA
ATOM     52  C   UNL     1      42.717  -9.072  16.053  0.00  0.00    +0.000 C 
ATOM     53  C   UNL     1      43.010  -9.516  17.454  0.00  0.00    +0.000 C 
ENDBRANCH  50  52
ENDBRANCH  17  50
BRANCH   7  54
ATOM     54  O   UNL     1      40.047  -3.463  16.621  0.00  0.00    +0.000 OA
BRANCH  54  56
ATOM     55  O   UNL     1      38.535  -2.142  16.558  0.00  0.00    +0.000 OA
ATOM     56  C   UNL     1      39.623  -2.251  17.112  0.00  0.00    +0.000 C 
BRANCH  56  57
ATOM     57  C   UNL     1      40.730  -1.046  18.106  0.00  0.00    +0.000 A 
ATOM     58  C   UNL     1      42.191  -1.048  18.107  0.00  0.00    +0.000 A 
ATOM     59  C   UNL     1      40.314   0.087  18.869  0.00  0.00    +0.000 A 
ATOM     60  C   UNL     1      43.050  -0.111  18.734  0.00  0.00    +0.000 A 
ATOM     61  C   UNL     1      41.160   1.037  19.507  0.00  0.00    +0.000 A 
ATOM     62  C   UNL     1      42.529   0.943  19.439  0.00  0.00    +0.000 A 
ENDBRANCH  56  57
ENDBRANCH  54  56
ENDBRANCH   7  54
BRANCH   4  63
ATOM     63  O   UNL     1      41.203  -0.998  14.913  0.00  0.00    +0.000 OA
BRANCH  63  65
ATOM     64  O   UNL     1      42.253   0.966  15.109  0.00  0.00    +0.000 OA
ATOM     65  C   UNL     1      41.193   0.343  15.087  0.00  0.00    +0.000 C 
ATOM     66  C   UNL     1      39.900   1.038  15.370  0.00  0.00    +0.000 C 
ENDBRANCH  63  65
ENDBRANCH   4  63
TORSDOF 17
ENDMDL
MODEL 6
REMARK VINA RESULT:      -6.3      2.484      7.987
REMARK  Name = 
REMARK  23 active torsions:
REMARK  status: ('A' for Active; 'I' for Inactive)
REMARK    1  A    between atoms: O_2  and  C_17
REMARK    2  A    between atoms: O_2  and  C_36
REMARK    3  A    between atoms: O_3  and  C_20
REMARK    4  A    between atoms: O_3  and  C_37
REMARK    5  A    between atoms: O_4  and  C_21
REMARK    6  A    between atoms: O_5  and  C_22
REMARK    7  A    between atoms: O_6  and  C_30
REMARK    8  A    between atoms: O_6  and  C_39
REMARK    9  A    between atoms: O_8  and  C_31
REMARK   10  A    between atoms: O_8  and  C_40
REMARK   11  A    between atoms: O_13  and  C_42
REMARK   12  A    between atoms: N_15  and  C_46
REMARK   13  A    between atoms: C_18  and  C_29
REMARK   14  A    between atoms: C_24  and  C_33
REMARK   15  A    between atoms: C_24  and  C_34
REMARK   16  A    between atoms: C_32  and  C_35
REMARK   17  A    between atoms: C_36  and  C_38
REMARK   18  A    between atoms: C_37  and  C_41
REMARK   19  A    between atoms: C_39  and  C_43
REMARK   20  A    between atoms: C_40  and  C_42
REMARK   21  A    between atoms: C_42  and  C_46
REMARK   22  A    between atoms: C_46  and  C_50
REMARK   23  A    between atoms: C_53  and  C_56
REMARK                            x       y       z     vdW  Elec       q    Type
REMARK                         _______ _______ _______ _____ _____    ______ ____
ROOT
ATOM      1  O   UNL     1      52.810   7.626  13.783  0.00  0.00    +0.000 OA
ATOM      2  O   UNL     1      58.070   6.661   9.801  0.00  0.00    +0.000 OA
ATOM      3  C   UNL     1      53.838   7.414  10.506  0.00  0.00    +0.000 C 
ATOM      4  C   UNL     1      53.029   6.967  11.758  0.00  0.00    +0.000 C 
ATOM      5  C   UNL     1      55.526   6.554  10.598  0.00  0.00    +0.000 C 
ATOM      6  C   UNL     1      53.919   7.698  12.844  0.00  0.00    +0.000 C 
ATOM      7  C   UNL     1      52.798   7.386   8.958  0.00  0.00    +0.000 C 
ATOM      8  C   UNL     1      52.911   7.683   7.091  0.00  0.00    +0.000 C 
ATOM      9  C   UNL     1      56.154   7.079  11.957  0.00  0.00    +0.000 C 
ATOM     10  C   UNL     1      55.219   7.015  13.202  0.00  0.00    +0.000 C 
ATOM     11  C   UNL     1      54.360   7.892   6.089  0.00  0.00    +0.000 C 
ATOM     12  C   UNL     1      51.933   7.736  12.596  0.00  0.00    +0.000 C 
ATOM     13  C   UNL     1      56.913   6.619   9.330  0.00  0.00    +0.000 C 
ATOM     14  C   UNL     1      52.294   6.379   6.405  0.00  0.00    +0.000 C 
ATOM     15  C   UNL     1      55.398   6.682   6.282  0.00  0.00    +0.000 C 
ATOM     16  C   UNL     1      55.400   4.993  10.848  0.00  0.00    +0.000 C 
ATOM     17  C   UNL     1      56.795   6.655   7.412  0.00  0.00    +0.000 C 
ATOM     18  C   UNL     1      53.291   5.231   5.922  0.00  0.00    +0.000 C 
ATOM     19  C   UNL     1      54.844   5.478   5.916  0.00  0.00    +0.000 C 
ATOM     20  C   UNL     1      53.863   7.852   4.558  0.00  0.00    +0.000 C 
ATOM     21  C   UNL     1      55.016   9.307   5.983  0.00  0.00    +0.000 C 
ATOM     22  C   UNL     1      55.668   4.225   5.747  0.00  0.00    +0.000 C 
ENDROOT
BRANCH   9  23
ATOM     23  O   UNL     1      56.537   8.444  11.795  0.00  0.00    +0.000 OA
ATOM     24  H   UNL     1      57.513   8.466  11.860  0.00  0.00    +0.000 HD
ENDBRANCH   9  23
BRANCH   8  25
ATOM     25  O   UNL     1      52.000   8.763   6.814  0.00  0.00    +0.000 OA
ATOM     26  H   UNL     1      51.148   8.572   7.244  0.00  0.00    +0.000 HD
ENDBRANCH   8  25
BRANCH  18  27
ATOM     27  O   UNL     1      53.064   4.058   6.757  0.00  0.00    +0.000 OA
BRANCH  27  29
ATOM     28  O   UNL     1      51.616   3.168   5.263  0.00  0.00    +0.000 OA
ATOM     29  C   UNL     1      52.409   3.014   6.185  0.00  0.00    +0.000 C 
BRANCH  29  30
ATOM     30  C   UNL     1      52.621   1.670   6.889  0.00  0.00    +0.000 C 
BRANCH  30  31
ATOM     31  O   UNL     1      53.959   1.160   6.844  0.00  0.00    +0.000 OA
ATOM     32  H   UNL     1      54.140   0.957   5.907  0.00  0.00    +0.000 HD
ENDBRANCH  30  31
BRANCH  30  33
ATOM     33  C   UNL     1      51.626   0.644   6.279  0.00  0.00    +0.000 C 
BRANCH  33  34
ATOM     34  C   UNL     1      50.440   0.429   7.209  0.00  0.00    +0.000 A 
ATOM     35  C   UNL     1      50.306  -0.795   7.887  0.00  0.00    +0.000 A 
ATOM     36  C   UNL     1      49.450   1.408   7.391  0.00  0.00    +0.000 A 
ATOM     37  C   UNL     1      49.223  -1.026   8.736  0.00  0.00    +0.000 A 
ATOM     38  C   UNL     1      48.368   1.175   8.242  0.00  0.00    +0.000 A 
ATOM     39  C   UNL     1      48.256  -0.040   8.915  0.00  0.00    +0.000 A 
ENDBRANCH  33  34
BRANCH  33  41
ATOM     40  O   UNL     1      53.533  -1.989   4.695  0.00  0.00    +0.000 OA
ATOM     41  N   UNL     1      52.308  -0.625   5.995  0.00  0.00    +0.000 N 
ATOM     42  C   UNL     1      52.605  -1.191   4.785  0.00  0.00    +0.000 C 
ATOM     43  H   UNL     1      52.863  -0.990   6.763  0.00  0.00    +0.000 HD
BRANCH  42  44
ATOM     44  C   UNL     1      51.845  -0.812   3.572  0.00  0.00    +0.000 A 
ATOM     45  C   UNL     1      52.422  -0.038   2.562  0.00  0.00    +0.000 A 
ATOM     46  C   UNL     1      50.498  -1.186   3.484  0.00  0.00    +0.000 A 
ATOM     47  C   UNL     1      51.671   0.309   1.437  0.00  0.00    +0.000 A 
ATOM     48  C   UNL     1      49.750  -0.836   2.360  0.00  0.00    +0.000 A 
ATOM     49  C   UNL     1      50.340  -0.097   1.334  0.00  0.00    +0.000 A 
ENDBRANCH  42  44
ENDBRANCH  33  41
ENDBRANCH  30  33
ENDBRANCH  29  30
ENDBRANCH  27  29
ENDBRANCH  18  27
BRANCH  17  50
ATOM     50  O   UNL     1      57.729   7.583   6.818  0.00  0.00    +0.000 OA
BRANCH  50  52
ATOM     51  O   UNL     1      58.987   7.661   4.969  0.00  0.00    +0.000 OA
ATOM     52  C   UNL     1      58.796   7.190   6.086  0.00  0.00    +0.000 C 
ATOM     53  C   UNL     1      59.670   6.109   6.646  0.00  0.00    +0.000 C 
ENDBRANCH  50  52
ENDBRANCH  17  50
BRANCH   7  54
ATOM     54  O   UNL     1      53.286   6.179   8.764  0.00  0.00    +0.000 OA
BRANCH  54  56
ATOM     55  O   UNL     1      51.332   6.579   9.011  0.00  0.00    +0.000 OA
ATOM     56  C   UNL     1      52.082   5.614   9.114  0.00  0.00    +0.000 C 
BRANCH  56  57
ATOM     57  C   UNL     1      51.895   3.865   9.868  0.00  0.00    +0.000 A 
ATOM     58  C   UNL     1      50.652   3.298  10.388  0.00  0.00    +0.000 A 
ATOM     59  C   UNL     1      52.877   2.829   9.914  0.00  0.00    +0.000 A 
ATOM     60  C   UNL     1      50.440   1.975  10.849  0.00  0.00    +0.000 A 
ATOM     61  C   UNL     1      52.684   1.496  10.376  0.00  0.00    +0.000 A 
ATOM     62  C   UNL     1      51.465   1.065  10.841  0.00  0.00    +0.000 A 
ENDBRANCH  56  57
ENDBRANCH  54  56
ENDBRANCH   7  54
BRANCH   4  63
ATOM     63  O   UNL     1      52.983   5.527  11.896  0.00  0.00    +0.000 OA
BRANCH  63  65
ATOM     64  O   UNL     1      51.157   5.013  13.079  0.00  0.00    +0.000 OA
ATOM     65  C   UNL     1      52.366   4.872  12.906  0.00  0.00    +0.000 C 
ATOM     66  C   UNL     1      53.184   4.077  13.873  0.00  0.00    +0.000 C 
ENDBRANCH  63  65
ENDBRANCH   4  63
TORSDOF 17
ENDMDL
MODEL 7
REMARK VINA RESULT:      -6.2      2.525      8.089
REMARK  Name = 
REMARK  23 active torsions:
REMARK  status: ('A' for Active; 'I' for Inactive)
REMARK    1  A    between atoms: O_2  and  C_17
REMARK    2  A    between atoms: O_2  and  C_36
REMARK    3  A    between atoms: O_3  and  C_20
REMARK    4  A    between atoms: O_3  and  C_37
REMARK    5  A    between atoms: O_4  and  C_21
REMARK    6  A    between atoms: O_5  and  C_22
REMARK    7  A    between atoms: O_6  and  C_30
REMARK    8  A    between atoms: O_6  and  C_39
REMARK    9  A    between atoms: O_8  and  C_31
REMARK   10  A    between atoms: O_8  and  C_40
REMARK   11  A    between atoms: O_13  and  C_42
REMARK   12  A    between atoms: N_15  and  C_46
REMARK   13  A    between atoms: C_18  and  C_29
REMARK   14  A    between atoms: C_24  and  C_33
REMARK   15  A    between atoms: C_24  and  C_34
REMARK   16  A    between atoms: C_32  and  C_35
REMARK   17  A    between atoms: C_36  and  C_38
REMARK   18  A    between atoms: C_37  and  C_41
REMARK   19  A    between atoms: C_39  and  C_43
REMARK   20  A    between atoms: C_40  and  C_42
REMARK   21  A    between atoms: C_42  and  C_46
REMARK   22  A    between atoms: C_46  and  C_50
REMARK   23  A    between atoms: C_53  and  C_56
REMARK                            x       y       z     vdW  Elec       q    Type
REMARK                         _______ _______ _______ _____ _____    ______ ____
ROOT
ATOM      1  O   UNL     1      52.235   7.198  13.341  0.00  0.00    +0.000 OA
ATOM      2  O   UNL     1      57.474   5.976   9.401  0.00  0.00    +0.000 OA
ATOM      3  C   UNL     1      53.299   7.022  10.073  0.00  0.00    +0.000 C 
ATOM      4  C   UNL     1      52.438   6.593  11.298  0.00  0.00    +0.000 C 
ATOM      5  C   UNL     1      54.916   6.033  10.159  0.00  0.00    +0.000 C 
ATOM      6  C   UNL     1      53.362   7.218  12.422  0.00  0.00    +0.000 C 
ATOM      7  C   UNL     1      52.285   7.125   8.511  0.00  0.00    +0.000 C 
ATOM      8  C   UNL     1      52.452   7.476   6.657  0.00  0.00    +0.000 C 
ATOM      9  C   UNL     1      55.559   6.463  11.544  0.00  0.00    +0.000 C 
ATOM     10  C   UNL     1      54.601   6.426  12.773  0.00  0.00    +0.000 C 
ATOM     11  C   UNL     1      53.929   7.610   5.684  0.00  0.00    +0.000 C 
ATOM     12  C   UNL     1      51.389   7.414  12.147  0.00  0.00    +0.000 C 
ATOM     13  C   UNL     1      56.325   6.038   8.913  0.00  0.00    +0.000 C 
ATOM     14  C   UNL     1      51.750   6.247   5.917  0.00  0.00    +0.000 C 
ATOM     15  C   UNL     1      54.870   6.319   5.848  0.00  0.00    +0.000 C 
ATOM     16  C   UNL     1      54.669   4.479  10.352  0.00  0.00    +0.000 C 
ATOM     17  C   UNL     1      56.242   6.148   6.997  0.00  0.00    +0.000 C 
ATOM     18  C   UNL     1      52.666   5.044   5.408  0.00  0.00    +0.000 C 
ATOM     19  C   UNL     1      54.233   5.173   5.432  0.00  0.00    +0.000 C 
ATOM     20  C   UNL     1      53.455   7.661   4.146  0.00  0.00    +0.000 C 
ATOM     21  C   UNL     1      54.691   8.974   5.637  0.00  0.00    +0.000 C 
ATOM     22  C   UNL     1      54.964   3.869   5.231  0.00  0.00    +0.000 C 
ENDROOT
BRANCH   9  23
ATOM     23  O   UNL     1      56.046   7.800  11.436  0.00  0.00    +0.000 OA
ATOM     24  H   UNL     1      55.257   8.378  11.401  0.00  0.00    +0.000 HD
ENDBRANCH   9  23
BRANCH   8  25
ATOM     25  O   UNL     1      51.629   8.631   6.406  0.00  0.00    +0.000 OA
ATOM     26  H   UNL     1      51.075   8.457   5.625  0.00  0.00    +0.000 HD
ENDBRANCH   8  25
BRANCH  18  27
ATOM     27  O   UNL     1      52.338   3.864   6.197  0.00  0.00    +0.000 OA
BRANCH  27  29
ATOM     28  O   UNL     1      50.503   2.539   6.150  0.00  0.00    +0.000 OA
ATOM     29  C   UNL     1      51.532   2.939   5.614  0.00  0.00    +0.000 C 
BRANCH  29  30
ATOM     30  C   UNL     1      52.094   2.330   4.326  0.00  0.00    +0.000 C 
BRANCH  30  31
ATOM     31  O   UNL     1      51.628   2.928   3.111  0.00  0.00    +0.000 OA
ATOM     32  H   UNL     1      50.657   2.973   3.187  0.00  0.00    +0.000 HD
ENDBRANCH  30  31
BRANCH  30  33
ATOM     33  C   UNL     1      51.783   0.807   4.337  0.00  0.00    +0.000 C 
BRANCH  33  34
ATOM     34  C   UNL     1      52.572   0.107   5.434  0.00  0.00    +0.000 A 
ATOM     35  C   UNL     1      53.977   0.100   5.378  0.00  0.00    +0.000 A 
ATOM     36  C   UNL     1      51.941  -0.566   6.493  0.00  0.00    +0.000 A 
ATOM     37  C   UNL     1      54.728  -0.546   6.362  0.00  0.00    +0.000 A 
ATOM     38  C   UNL     1      52.693  -1.209   7.476  0.00  0.00    +0.000 A 
ATOM     39  C   UNL     1      54.086  -1.197   7.412  0.00  0.00    +0.000 A 
ENDBRANCH  33  34
BRANCH  33  41
ATOM     40  O   UNL     1      51.636  -1.197   1.330  0.00  0.00    +0.000 OA
ATOM     41  N   UNL     1      52.069   0.216   3.024  0.00  0.00    +0.000 N 
ATOM     42  C   UNL     1      51.725  -1.017   2.541  0.00  0.00    +0.000 C 
ATOM     43  H   UNL     1      52.302   0.887   2.298  0.00  0.00    +0.000 HD
BRANCH  42  44
ATOM     44  C   UNL     1      51.414  -2.127   3.471  0.00  0.00    +0.000 A 
ATOM     45  C   UNL     1      52.404  -3.014   3.904  0.00  0.00    +0.000 A 
ATOM     46  C   UNL     1      50.083  -2.321   3.858  0.00  0.00    +0.000 A 
ATOM     47  C   UNL     1      52.071  -4.055   4.773  0.00  0.00    +0.000 A 
ATOM     48  C   UNL     1      49.753  -3.363   4.724  0.00  0.00    +0.000 A 
ATOM     49  C   UNL     1      50.749  -4.223   5.187  0.00  0.00    +0.000 A 
ENDBRANCH  42  44
ENDBRANCH  33  41
ENDBRANCH  30  33
ENDBRANCH  29  30
ENDBRANCH  27  29
ENDBRANCH  18  27
BRANCH  17  50
ATOM     50  O   UNL     1      57.252   7.023   6.449  0.00  0.00    +0.000 OA
BRANCH  50  52
ATOM     51  O   UNL     1      59.108   7.334   5.237  0.00  0.00    +0.000 OA
ATOM     52  C   UNL     1      58.388   6.569   5.872  0.00  0.00    +0.000 C 
ATOM     53  C   UNL     1      58.682   5.101   5.962  0.00  0.00    +0.000 C 
ENDBRANCH  50  52
ENDBRANCH  17  50
BRANCH   7  54
ATOM     54  O   UNL     1      52.685   5.892   8.281  0.00  0.00    +0.000 OA
BRANCH  54  56
ATOM     55  O   UNL     1      50.787   6.449   8.637  0.00  0.00    +0.000 OA
ATOM     56  C   UNL     1      51.434   5.409   8.586  0.00  0.00    +0.000 C 
BRANCH  56  57
ATOM     57  C   UNL     1      51.077   3.600   9.100  0.00  0.00    +0.000 A 
ATOM     58  C   UNL     1      52.088   2.564   9.301  0.00  0.00    +0.000 A 
ATOM     59  C   UNL     1      49.822   3.038   9.485  0.00  0.00    +0.000 A 
ATOM     60  C   UNL     1      51.883   1.249   9.787  0.00  0.00    +0.000 A 
ATOM     61  C   UNL     1      49.596   1.720   9.974  0.00  0.00    +0.000 A 
ATOM     62  C   UNL     1      50.626   0.824  10.129  0.00  0.00    +0.000 A 
ENDBRANCH  56  57
ENDBRANCH  54  56
ENDBRANCH   7  54
BRANCH   4  63
ATOM     63  O   UNL     1      52.282   5.157  11.383  0.00  0.00    +0.000 OA
BRANCH  63  65
ATOM     64  O   UNL     1      50.310   4.825  12.385  0.00  0.00    +0.000 OA
ATOM     65  C   UNL     1      51.498   4.524  12.285  0.00  0.00    +0.000 C 
ATOM     66  C   UNL     1      52.114   3.545  13.234  0.00  0.00    +0.000 C 
ENDBRANCH  63  65
ENDBRANCH   4  63
TORSDOF 17
ENDMDL
MODEL 8
REMARK VINA RESULT:      -6.2      2.983      6.758
REMARK  Name = 
REMARK  23 active torsions:
REMARK  status: ('A' for Active; 'I' for Inactive)
REMARK    1  A    between atoms: O_2  and  C_17
REMARK    2  A    between atoms: O_2  and  C_36
REMARK    3  A    between atoms: O_3  and  C_20
REMARK    4  A    between atoms: O_3  and  C_37
REMARK    5  A    between atoms: O_4  and  C_21
REMARK    6  A    between atoms: O_5  and  C_22
REMARK    7  A    between atoms: O_6  and  C_30
REMARK    8  A    between atoms: O_6  and  C_39
REMARK    9  A    between atoms: O_8  and  C_31
REMARK   10  A    between atoms: O_8  and  C_40
REMARK   11  A    between atoms: O_13  and  C_42
REMARK   12  A    between atoms: N_15  and  C_46
REMARK   13  A    between atoms: C_18  and  C_29
REMARK   14  A    between atoms: C_24  and  C_33
REMARK   15  A    between atoms: C_24  and  C_34
REMARK   16  A    between atoms: C_32  and  C_35
REMARK   17  A    between atoms: C_36  and  C_38
REMARK   18  A    between atoms: C_37  and  C_41
REMARK   19  A    between atoms: C_39  and  C_43
REMARK   20  A    between atoms: C_40  and  C_42
REMARK   21  A    between atoms: C_42  and  C_46
REMARK   22  A    between atoms: C_46  and  C_50
REMARK   23  A    between atoms: C_53  and  C_56
REMARK                            x       y       z     vdW  Elec       q    Type
REMARK                         _______ _______ _______ _____ _____    ______ ____
ROOT
ATOM      1  O   UNL     1      50.023  -0.587   6.723  0.00  0.00    +0.000 OA
ATOM      2  O   UNL     1      55.898  -2.997   8.759  0.00  0.00    +0.000 OA
ATOM      3  C   UNL     1      52.454  -0.358   9.148  0.00  0.00    +0.000 C 
ATOM      4  C   UNL     1      51.580   0.178   7.977  0.00  0.00    +0.000 C 
ATOM      5  C   UNL     1      53.971  -1.192   8.372  0.00  0.00    +0.000 C 
ATOM      6  C   UNL     1      51.148  -1.226   7.388  0.00  0.00    +0.000 C 
ATOM      7  C   UNL     1      52.608   0.886  10.529  0.00  0.00    +0.000 C 
ATOM      8  C   UNL     1      53.450   1.141  12.206  0.00  0.00    +0.000 C 
ATOM      9  C   UNL     1      53.360  -2.351   7.478  0.00  0.00    +0.000 C 
ATOM     10  C   UNL     1      52.183  -1.935   6.545  0.00  0.00    +0.000 C 
ATOM     11  C   UNL     1      54.737   0.178  12.956  0.00  0.00    +0.000 C 
ATOM     12  C   UNL     1      50.014   0.353   7.866  0.00  0.00    +0.000 C 
ATOM     13  C   UNL     1      55.440  -1.951   9.268  0.00  0.00    +0.000 C 
ATOM     14  C   UNL     1      54.189   2.555  12.111  0.00  0.00    +0.000 C 
ATOM     15  C   UNL     1      56.006   0.019  11.986  0.00  0.00    +0.000 C 
ATOM     16  C   UNL     1      54.693  -0.268   7.305  0.00  0.00    +0.000 C 
ATOM     17  C   UNL     1      56.319  -1.354  10.869  0.00  0.00    +0.000 C 
ATOM     18  C   UNL     1      55.739   2.577  11.732  0.00  0.00    +0.000 C 
ATOM     19  C   UNL     1      56.563   1.238  11.677  0.00  0.00    +0.000 C 
ATOM     20  C   UNL     1      55.228   1.006  14.248  0.00  0.00    +0.000 C 
ATOM     21  C   UNL     1      54.359  -1.110  13.756  0.00  0.00    +0.000 C 
ATOM     22  C   UNL     1      57.907   1.368  11.004  0.00  0.00    +0.000 C 
ENDROOT
BRANCH   9  23
ATOM     23  O   UNL     1      52.869  -3.386   8.330  0.00  0.00    +0.000 OA
ATOM     24  H   UNL     1      53.225  -4.226   7.976  0.00  0.00    +0.000 HD
ENDBRANCH   9  23
BRANCH   8  25
ATOM     25  O   UNL     1      52.380   1.300  13.157  0.00  0.00    +0.000 OA
ATOM     26  H   UNL     1      51.590   1.623  12.688  0.00  0.00    +0.000 HD
ENDBRANCH   8  25
BRANCH  18  27
ATOM     27  O   UNL     1      55.871   3.196  10.418  0.00  0.00    +0.000 OA
BRANCH  27  29
ATOM     28  O   UNL     1      57.140   4.930  11.127  0.00  0.00    +0.000 OA
ATOM     29  C   UNL     1      56.262   4.496  10.389  0.00  0.00    +0.000 C 
BRANCH  29  30
ATOM     30  C   UNL     1      55.413   5.394   9.484  0.00  0.00    +0.000 C 
BRANCH  30  31
ATOM     31  O   UNL     1      56.150   6.208   8.564  0.00  0.00    +0.000 OA
ATOM     32  H   UNL     1      55.535   6.420   7.838  0.00  0.00    +0.000 HD
ENDBRANCH  30  31
BRANCH  30  33
ATOM     33  C   UNL     1      54.509   6.275  10.389  0.00  0.00    +0.000 C 
BRANCH  33  34
ATOM     34  C   UNL     1      53.230   6.660   9.659  0.00  0.00    +0.000 A 
ATOM     35  C   UNL     1      52.368   7.612  10.231  0.00  0.00    +0.000 A 
ATOM     36  C   UNL     1      52.862   6.069   8.440  0.00  0.00    +0.000 A 
ATOM     37  C   UNL     1      51.182   7.975   9.591  0.00  0.00    +0.000 A 
ATOM     38  C   UNL     1      51.677   6.435   7.801  0.00  0.00    +0.000 A 
ATOM     39  C   UNL     1      50.838   7.389   8.375  0.00  0.00    +0.000 A 
ENDBRANCH  33  34
BRANCH  33  41
ATOM     40  O   UNL     1      56.430   8.636  12.343  0.00  0.00    +0.000 OA
ATOM     41  N   UNL     1      55.239   7.469  10.836  0.00  0.00    +0.000 N 
ATOM     42  C   UNL     1      55.466   7.912  12.111  0.00  0.00    +0.000 C 
ATOM     43  H   UNL     1      55.878   7.857  10.149  0.00  0.00    +0.000 HD
BRANCH  42  44
ATOM     44  C   UNL     1      54.585   7.487  13.222  0.00  0.00    +0.000 A 
ATOM     45  C   UNL     1      54.820   6.302  13.926  0.00  0.00    +0.000 A 
ATOM     46  C   UNL     1      53.458   8.263  13.515  0.00  0.00    +0.000 A 
ATOM     47  C   UNL     1      53.962   5.927  14.961  0.00  0.00    +0.000 A 
ATOM     48  C   UNL     1      52.600   7.885  14.548  0.00  0.00    +0.000 A 
ATOM     49  C   UNL     1      52.859   6.723  15.276  0.00  0.00    +0.000 A 
ENDBRANCH  42  44
ENDBRANCH  33  41
ENDBRANCH  30  33
ENDBRANCH  29  30
ENDBRANCH  27  29
ENDBRANCH  18  27
BRANCH  17  50
ATOM     50  O   UNL     1      56.651  -2.443  11.757  0.00  0.00    +0.000 OA
BRANCH  50  52
ATOM     51  O   UNL     1      58.177  -4.002  11.258  0.00  0.00    +0.000 OA
ATOM     52  C   UNL     1      57.894  -2.966  11.852  0.00  0.00    +0.000 C 
ATOM     53  C   UNL     1      58.870  -2.291  12.768  0.00  0.00    +0.000 C 
ENDBRANCH  50  52
ENDBRANCH  17  50
BRANCH   7  54
ATOM     54  O   UNL     1      53.729   1.255   9.946  0.00  0.00    +0.000 OA
BRANCH  54  56
ATOM     55  O   UNL     1      53.908   2.677   8.538  0.00  0.00    +0.000 OA
ATOM     56  C   UNL     1      53.111   2.364   9.416  0.00  0.00    +0.000 C 
BRANCH  56  57
ATOM     57  C   UNL     1      51.597   3.231  10.202  0.00  0.00    +0.000 A 
ATOM     58  C   UNL     1      51.639   4.107  11.371  0.00  0.00    +0.000 A 
ATOM     59  C   UNL     1      50.259   3.263   9.705  0.00  0.00    +0.000 A 
ATOM     60  C   UNL     1      50.568   4.856  11.920  0.00  0.00    +0.000 A 
ATOM     61  C   UNL     1      49.171   4.007  10.242  0.00  0.00    +0.000 A 
ATOM     62  C   UNL     1      49.323   4.808  11.348  0.00  0.00    +0.000 A 
ENDBRANCH  56  57
ENDBRANCH  54  56
ENDBRANCH   7  54
BRANCH   4  63
ATOM     63  O   UNL     1      52.338   1.003   7.060  0.00  0.00    +0.000 OA
BRANCH  63  65
ATOM     64  O   UNL     1      51.859   1.203   4.885  0.00  0.00    +0.000 OA
ATOM     65  C   UNL     1      51.805   1.679   6.017  0.00  0.00    +0.000 C 
ATOM     66  C   UNL     1      51.259   3.055   6.236  0.00  0.00    +0.000 C 
ENDBRANCH  63  65
ENDBRANCH   4  63
TORSDOF 17
ENDMDL
MODEL 9
REMARK VINA RESULT:      -6.1      2.847      9.346
REMARK  Name = 
REMARK  23 active torsions:
REMARK  status: ('A' for Active; 'I' for Inactive)
REMARK    1  A    between atoms: O_2  and  C_17
REMARK    2  A    between atoms: O_2  and  C_36
REMARK    3  A    between atoms: O_3  and  C_20
REMARK    4  A    between atoms: O_3  and  C_37
REMARK    5  A    between atoms: O_4  and  C_21
REMARK    6  A    between atoms: O_5  and  C_22
REMARK    7  A    between atoms: O_6  and  C_30
REMARK    8  A    between atoms: O_6  and  C_39
REMARK    9  A    between atoms: O_8  and  C_31
REMARK   10  A    between atoms: O_8  and  C_40
REMARK   11  A    between atoms: O_13  and  C_42
REMARK   12  A    between atoms: N_15  and  C_46
REMARK   13  A    between atoms: C_18  and  C_29
REMARK   14  A    between atoms: C_24  and  C_33
REMARK   15  A    between atoms: C_24  and  C_34
REMARK   16  A    between atoms: C_32  and  C_35
REMARK   17  A    between atoms: C_36  and  C_38
REMARK   18  A    between atoms: C_37  and  C_41
REMARK   19  A    between atoms: C_39  and  C_43
REMARK   20  A    between atoms: C_40  and  C_42
REMARK   21  A    between atoms: C_42  and  C_46
REMARK   22  A    between atoms: C_46  and  C_50
REMARK   23  A    between atoms: C_53  and  C_56
REMARK                            x       y       z     vdW  Elec       q    Type
REMARK                         _______ _______ _______ _____ _____    ______ ____
ROOT
ATOM      1  O   UNL     1      55.135   7.535   8.185  0.00  0.00    +0.000 OA
ATOM      2  O   UNL     1      50.529   3.857  11.300  0.00  0.00    +0.000 OA
ATOM      3  C   UNL     1      53.913   4.345   8.602  0.00  0.00    +0.000 C 
ATOM      4  C   UNL     1      54.250   5.628   7.786  0.00  0.00    +0.000 C 
ATOM      5  C   UNL     1      52.186   4.599   9.345  0.00  0.00    +0.000 C 
ATOM      6  C   UNL     1      54.360   6.624   9.011  0.00  0.00    +0.000 C 
ATOM      7  C   UNL     1      54.375   2.791   7.680  0.00  0.00    +0.000 C 
ATOM      8  C   UNL     1      54.297   0.904   7.824  0.00  0.00    +0.000 C 
ATOM      9  C   UNL     1      52.343   5.886  10.258  0.00  0.00    +0.000 C 
ATOM     10  C   UNL     1      53.049   7.105   9.591  0.00  0.00    +0.000 C 
ATOM     11  C   UNL     1      53.398  -0.080   8.995  0.00  0.00    +0.000 C 
ATOM     12  C   UNL     1      55.639   6.324   7.501  0.00  0.00    +0.000 C 
ATOM     13  C   UNL     1      51.186   3.368  10.357  0.00  0.00    +0.000 C 
ATOM     14  C   UNL     1      53.629   0.391   6.467  0.00  0.00    +0.000 C 
ATOM     15  C   UNL     1      51.840   0.304   9.024  0.00  0.00    +0.000 C 
ATOM     16  C   UNL     1      51.121   5.060   8.265  0.00  0.00    +0.000 C 
ATOM     17  C   UNL     1      51.056   1.462  10.154  0.00  0.00    +0.000 C 
ATOM     18  C   UNL     1      52.060   0.097   6.458  0.00  0.00    +0.000 C 
ATOM     19  C   UNL     1      51.244   0.095   7.802  0.00  0.00    +0.000 C 
ATOM     20  C   UNL     1      53.503  -1.603   8.481  0.00  0.00    +0.000 C 
ATOM     21  C   UNL     1      54.029  -0.366  10.395  0.00  0.00    +0.000 C 
ATOM     22  C   UNL     1      49.747   0.122   7.616  0.00  0.00    +0.000 C 
ENDROOT
BRANCH   9  23
ATOM     23  O   UNL     1      53.106   5.546  11.415  0.00  0.00    +0.000 OA
ATOM     24  H   UNL     1      53.969   5.996  11.318  0.00  0.00    +0.000 HD
ENDBRANCH   9  23
BRANCH   8  25
ATOM     25  O   UNL     1      55.667   0.458   7.802  0.00  0.00    +0.000 OA
ATOM     26  H   UNL     1      56.100   0.816   7.008  0.00  0.00    +0.000 HD
ENDBRANCH   8  25
BRANCH  18  27
ATOM     27  O   UNL     1      51.424   1.081   5.591  0.00  0.00    +0.000 OA
BRANCH  27  29
ATOM     28  O   UNL     1      50.285  -0.381   4.293  0.00  0.00    +0.000 OA
ATOM     29  C   UNL     1      50.962   0.637   4.394  0.00  0.00    +0.000 C 
BRANCH  29  30
ATOM     30  C   UNL     1      51.487   1.413   3.183  0.00  0.00    +0.000 C 
BRANCH  30  31
ATOM     31  O   UNL     1      50.587   1.499   2.072  0.00  0.00    +0.000 OA
ATOM     32  H   UNL     1      49.807   1.990   2.393  0.00  0.00    +0.000 HD
ENDBRANCH  30  31
BRANCH  30  33
ATOM     33  C   UNL     1      52.833   0.772   2.745  0.00  0.00    +0.000 C 
BRANCH  33  34
ATOM     34  C   UNL     1      53.747   1.817   2.120  0.00  0.00    +0.000 A 
ATOM     35  C   UNL     1      53.503   3.180   2.359  0.00  0.00    +0.000 A 
ATOM     36  C   UNL     1      54.815   1.464   1.279  0.00  0.00    +0.000 A 
ATOM     37  C   UNL     1      54.315   4.161   1.789  0.00  0.00    +0.000 A 
ATOM     38  C   UNL     1      55.628   2.447   0.712  0.00  0.00    +0.000 A 
ATOM     39  C   UNL     1      55.379   3.794   0.968  0.00  0.00    +0.000 A 
ENDBRANCH  33  34
BRANCH  33  41
ATOM     40  O   UNL     1      52.003  -2.456   1.342  0.00  0.00    +0.000 OA
ATOM     41  N   UNL     1      52.593  -0.340   1.817  0.00  0.00    +0.000 N 
ATOM     42  C   UNL     1      52.640  -1.687   2.056  0.00  0.00    +0.000 C 
ATOM     43  H   UNL     1      52.068  -0.092   0.984  0.00  0.00    +0.000 HD
BRANCH  42  44
ATOM     44  C   UNL     1      53.415  -2.220   3.198  0.00  0.00    +0.000 A 
ATOM     45  C   UNL     1      52.791  -2.893   4.253  0.00  0.00    +0.000 A 
ATOM     46  C   UNL     1      54.793  -1.975   3.244  0.00  0.00    +0.000 A 
ATOM     47  C   UNL     1      53.553  -3.373   5.319  0.00  0.00    +0.000 A 
ATOM     48  C   UNL     1      55.552  -2.453   4.312  0.00  0.00    +0.000 A 
ATOM     49  C   UNL     1      54.932  -3.160   5.343  0.00  0.00    +0.000 A 
ENDBRANCH  42  44
ENDBRANCH  33  41
ENDBRANCH  30  33
ENDBRANCH  29  30
ENDBRANCH  27  29
ENDBRANCH  18  27
BRANCH  17  50
ATOM     50  O   UNL     1      51.081   0.768  11.420  0.00  0.00    +0.000 OA
BRANCH  50  52
ATOM     51  O   UNL     1      50.038  -0.086  13.207  0.00  0.00    +0.000 OA
ATOM     52  C   UNL     1      49.961   0.396  12.081  0.00  0.00    +0.000 C 
ATOM     53  C   UNL     1      48.652   0.508  11.359  0.00  0.00    +0.000 C 
ENDBRANCH  50  52
ENDBRANCH  17  50
BRANCH   7  54
ATOM     54  O   UNL     1      53.126   2.778   7.264  0.00  0.00    +0.000 OA
BRANCH  54  56
ATOM     55  O   UNL     1      52.424   3.603   5.572  0.00  0.00    +0.000 OA
ATOM     56  C   UNL     1      53.508   3.267   6.037  0.00  0.00    +0.000 C 
BRANCH  56  57
ATOM     57  C   UNL     1      55.262   3.066   5.298  0.00  0.00    +0.000 A 
ATOM     58  C   UNL     1      55.839   1.811   4.822  0.00  0.00    +0.000 A 
ATOM     59  C   UNL     1      56.196   4.100   4.984  0.00  0.00    +0.000 A 
ATOM     60  C   UNL     1      57.083   1.633   4.167  0.00  0.00    +0.000 A 
ATOM     61  C   UNL     1      57.450   3.941   4.330  0.00  0.00    +0.000 A 
ATOM     62  C   UNL     1      57.895   2.709   3.917  0.00  0.00    +0.000 A 
ENDBRANCH  56  57
ENDBRANCH  54  56
ENDBRANCH   7  54
BRANCH   4  63
ATOM     63  O   UNL     1      53.211   5.963   6.836  0.00  0.00    +0.000 OA
BRANCH  63  65
ATOM     64  O   UNL     1      52.846   8.076   6.203  0.00  0.00    +0.000 OA
ATOM     65  C   UNL     1      53.293   6.963   5.930  0.00  0.00    +0.000 C 
ATOM     66  C   UNL     1      53.821   6.673   4.561  0.00  0.00    +0.000 C 
ENDBRANCH  63  65
ENDBRANCH   4  63
TORSDOF 17
ENDMDL
