MODEL 1
REMARK VINA RESULT:      -8.1      0.000      0.000
REMARK  Name = 
REMARK  5 active torsions:
REMARK  status: ('A' for Active; 'I' for Inactive)
REMARK    1  A    between atoms: O_1  and  C_16
REMARK    2  A    between atoms: O_3  and  C_25
REMARK    3  A    between atoms: C_11  and  C_22
REMARK    4  A    between atoms: C_16  and  C_28
REMARK    5  A    between atoms: C_29  and  C_31
REMARK                            x       y       z     vdW  Elec       q    Type
REMARK                         _______ _______ _______ _____ _____    ______ ____
ROOT
ATOM      1  O   UNL     1      34.301  19.196  20.436  0.00  0.00    +0.000 OA
ATOM      2  N   UNL     1      34.823  10.035  22.878  0.00  0.00    +0.000 NA
ATOM      3  C   UNL     1      34.396  13.264  20.824  0.00  0.00    +0.000 C 
ATOM      4  C   UNL     1      33.343  14.402  20.757  0.00  0.00    +0.000 C 
ATOM      5  C   UNL     1      35.513  15.305  20.249  0.00  0.00    +0.000 C 
ATOM      6  C   UNL     1      34.161  15.699  20.858  0.00  0.00    +0.000 C 
ATOM      7  C   UNL     1      34.117  12.232  21.934  0.00  0.00    +0.000 C 
ATOM      8  C   UNL     1      35.767  13.965  20.933  0.00  0.00    +0.000 C 
ATOM      9  C   UNL     1      36.569  16.436  20.367  0.00  0.00    +0.000 C 
ATOM     10  C   UNL     1      32.661  11.733  21.812  0.00  0.00    +0.000 C 
ATOM     11  C   UNL     1      32.277  14.299  21.843  0.00  0.00    +0.000 C 
ATOM     12  C   UNL     1      35.979  17.659  19.602  0.00  0.00    +0.000 C 
ATOM     13  C   UNL     1      31.654  12.907  21.925  0.00  0.00    +0.000 C 
ATOM     14  C   UNL     1      32.377  10.577  22.814  0.00  0.00    +0.000 C 
ATOM     15  C   UNL     1      33.566  16.923  20.176  0.00  0.00    +0.000 C 
ATOM     16  C   UNL     1      35.105  11.060  21.859  0.00  0.00    +0.000 C 
ATOM     17  C   UNL     1      33.468   9.449  22.681  0.00  0.00    +0.000 C 
ATOM     18  C   UNL     1      37.882  16.014  19.659  0.00  0.00    +0.000 C 
ATOM     19  C   UNL     1      34.600  18.039  20.145  0.00  0.00    +0.000 C 
ATOM     20  C   UNL     1      36.884  16.780  21.844  0.00  0.00    +0.000 C 
ATOM     21  C   UNL     1      36.956  18.833  19.533  0.00  0.00    +0.000 C 
ATOM     22  C   UNL     1      38.880  17.166  19.510  0.00  0.00    +0.000 C 
ATOM     23  C   UNL     1      38.263  18.406  18.862  0.00  0.00    +0.000 C 
ATOM     24  C   UNL     1      33.222   8.309  23.702  0.00  0.00    +0.000 C 
ATOM     25  C   UNL     1      35.878   9.004  22.807  0.00  0.00    +0.000 C 
ATOM     26  C   UNL     1      30.963  10.013  22.609  0.00  0.00    +0.000 C 
ATOM     27  C   UNL     1      35.710   7.905  23.861  0.00  0.00    +0.000 C 
ATOM     28  C   UNL     1      34.332   7.264  23.707  0.00  0.00    +0.000 C 
ATOM     29  C   UNL     1      35.943   8.435  25.279  0.00  0.00    +0.000 C 
ENDROOT
BRANCH  14  30
ATOM     30  O   UNL     1      32.438  11.115  24.145  0.00  0.00    +0.000 OA
ATOM     31  H   UNL     1      31.527  11.414  24.341  0.00  0.00    +0.000 HD
ENDBRANCH  14  30
BRANCH  23  32
ATOM     32  O   UNL     1      39.210  19.466  18.930  0.00  0.00    +0.000 OA
ATOM     33  H   UNL     1      39.480  19.565  19.859  0.00  0.00    +0.000 HD
ENDBRANCH  23  32
TORSDOF 2
ENDMDL
MODEL 2
REMARK VINA RESULT:      -7.0     13.712     16.826
REMARK  Name = 
REMARK  5 active torsions:
REMARK  status: ('A' for Active; 'I' for Inactive)
REMARK    1  A    between atoms: O_1  and  C_16
REMARK    2  A    between atoms: O_3  and  C_25
REMARK    3  A    between atoms: C_11  and  C_22
REMARK    4  A    between atoms: C_16  and  C_28
REMARK    5  A    between atoms: C_29  and  C_31
REMARK                            x       y       z     vdW  Elec       q    Type
REMARK                         _______ _______ _______ _____ _____    ______ ____
ROOT
ATOM      1  O   UNL     1      40.172   1.943  23.436  0.00  0.00    +0.000 OA
ATOM      2  N   UNL     1      42.129  -1.709  14.892  0.00  0.00    +0.000 NA
ATOM      3  C   UNL     1      41.915   0.699  17.890  0.00  0.00    +0.000 C 
ATOM      4  C   UNL     1      40.781   1.489  18.596  0.00  0.00    +0.000 C 
ATOM      5  C   UNL     1      42.444   0.874  20.220  0.00  0.00    +0.000 C 
ATOM      6  C   UNL     1      40.942   1.155  20.088  0.00  0.00    +0.000 C 
ATOM      7  C   UNL     1      41.412  -0.223  16.762  0.00  0.00    +0.000 C 
ATOM      8  C   UNL     1      42.685  -0.027  19.013  0.00  0.00    +0.000 C 
ATOM      9  C   UNL     1      42.831   0.374  21.637  0.00  0.00    +0.000 C 
ATOM     10  C   UNL     1      40.519   0.589  15.799  0.00  0.00    +0.000 C 
ATOM     11  C   UNL     1      39.391   1.147  18.068  0.00  0.00    +0.000 C 
ATOM     12  C   UNL     1      42.414   1.505  22.624  0.00  0.00    +0.000 C 
ATOM     13  C   UNL     1      39.310   1.210  16.544  0.00  0.00    +0.000 C 
ATOM     14  C   UNL     1      40.112  -0.258  14.559  0.00  0.00    +0.000 C 
ATOM     15  C   UNL     1      40.474   2.220  21.068  0.00  0.00    +0.000 C 
ATOM     16  C   UNL     1      42.586  -0.865  16.010  0.00  0.00    +0.000 C 
ATOM     17  C   UNL     1      41.383  -0.901  13.887  0.00  0.00    +0.000 C 
ATOM     18  C   UNL     1      44.367   0.192  21.737  0.00  0.00    +0.000 C 
ATOM     19  C   UNL     1      40.931   1.853  22.473  0.00  0.00    +0.000 C 
ATOM     20  C   UNL     1      42.144  -0.971  21.983  0.00  0.00    +0.000 C 
ATOM     21  C   UNL     1      42.829   1.209  24.065  0.00  0.00    +0.000 C 
ATOM     22  C   UNL     1      44.851  -0.053  23.169  0.00  0.00    +0.000 C 
ATOM     23  C   UNL     1      44.342   0.998  24.155  0.00  0.00    +0.000 C 
ATOM     24  C   UNL     1      40.989  -1.783  12.674  0.00  0.00    +0.000 C 
ATOM     25  C   UNL     1      43.307  -2.369  14.295  0.00  0.00    +0.000 C 
ATOM     26  C   UNL     1      39.318   0.591  13.555  0.00  0.00    +0.000 C 
ATOM     27  C   UNL     1      42.942  -3.314  13.146  0.00  0.00    +0.000 C 
ATOM     28  C   UNL     1      42.172  -2.539  12.079  0.00  0.00    +0.000 C 
ATOM     29  C   UNL     1      42.165  -4.538  13.640  0.00  0.00    +0.000 C 
ENDROOT
BRANCH  14  30
ATOM     30  O   UNL     1      39.249  -1.317  15.007  0.00  0.00    +0.000 OA
ATOM     31  H   UNL     1      39.506  -2.097  14.475  0.00  0.00    +0.000 HD
ENDBRANCH  14  30
BRANCH  23  32
ATOM     32  O   UNL     1      44.695   0.588  25.471  0.00  0.00    +0.000 OA
ATOM     33  H   UNL     1      44.398   1.279  26.088  0.00  0.00    +0.000 HD
ENDBRANCH  23  32
TORSDOF 2
ENDMDL
MODEL 3
REMARK VINA RESULT:      -6.1      3.945      9.137
REMARK  Name = 
REMARK  5 active torsions:
REMARK  status: ('A' for Active; 'I' for Inactive)
REMARK    1  A    between atoms: O_1  and  C_16
REMARK    2  A    between atoms: O_3  and  C_25
REMARK    3  A    between atoms: C_11  and  C_22
REMARK    4  A    between atoms: C_16  and  C_28
REMARK    5  A    between atoms: C_29  and  C_31
REMARK                            x       y       z     vdW  Elec       q    Type
REMARK                         _______ _______ _______ _____ _____    ______ ____
ROOT
ATOM      1  O   UNL     1      38.781   6.362  27.515  0.00  0.00    +0.000 OA
ATOM      2  N   UNL     1      35.493  13.768  22.566  0.00  0.00    +0.000 NA
ATOM      3  C   UNL     1      35.766  10.879  25.098  0.00  0.00    +0.000 C 
ATOM      4  C   UNL     1      35.794   9.330  25.011  0.00  0.00    +0.000 C 
ATOM      5  C   UNL     1      37.138  10.040  26.874  0.00  0.00    +0.000 C 
ATOM      6  C   UNL     1      37.021   8.914  25.839  0.00  0.00    +0.000 C 
ATOM      7  C   UNL     1      35.744  11.573  23.722  0.00  0.00    +0.000 C 
ATOM      8  C   UNL     1      36.959  11.273  25.993  0.00  0.00    +0.000 C 
ATOM      9  C   UNL     1      38.409   9.907  27.754  0.00  0.00    +0.000 C 
ATOM     10  C   UNL     1      34.609  10.971  22.866  0.00  0.00    +0.000 C 
ATOM     11  C   UNL     1      35.855   8.810  23.578  0.00  0.00    +0.000 C 
ATOM     12  C   UNL     1      38.292   8.532  28.478  0.00  0.00    +0.000 C 
ATOM     13  C   UNL     1      34.797   9.443  22.678  0.00  0.00    +0.000 C 
ATOM     14  C   UNL     1      34.446  11.743  21.524  0.00  0.00    +0.000 C 
ATOM     15  C   UNL     1      36.954   7.544  26.496  0.00  0.00    +0.000 C 
ATOM     16  C   UNL     1      35.570  13.090  23.872  0.00  0.00    +0.000 C 
ATOM     17  C   UNL     1      34.316  13.290  21.789  0.00  0.00    +0.000 C 
ATOM     18  C   UNL     1      38.428  11.018  28.835  0.00  0.00    +0.000 C 
ATOM     19  C   UNL     1      38.111   7.392  27.473  0.00  0.00    +0.000 C 
ATOM     20  C   UNL     1      39.707  10.005  26.914  0.00  0.00    +0.000 C 
ATOM     21  C   UNL     1      39.426   8.296  29.475  0.00  0.00    +0.000 C 
ATOM     22  C   UNL     1      39.511  10.805  29.897  0.00  0.00    +0.000 C 
ATOM     23  C   UNL     1      39.462   9.411  30.522  0.00  0.00    +0.000 C 
ATOM     24  C   UNL     1      34.194  14.077  20.459  0.00  0.00    +0.000 C 
ATOM     25  C   UNL     1      35.436  15.225  22.800  0.00  0.00    +0.000 C 
ATOM     26  C   UNL     1      33.245  11.209  20.730  0.00  0.00    +0.000 C 
ATOM     27  C   UNL     1      35.401  16.036  21.501  0.00  0.00    +0.000 C 
ATOM     28  C   UNL     1      34.209  15.588  20.658  0.00  0.00    +0.000 C 
ATOM     29  C   UNL     1      36.721  15.935  20.730  0.00  0.00    +0.000 C 
ENDROOT
BRANCH  14  30
ATOM     30  O   UNL     1      35.623  11.514  20.732  0.00  0.00    +0.000 OA
ATOM     31  H   UNL     1      35.659  12.265  20.106  0.00  0.00    +0.000 HD
ENDBRANCH  14  30
BRANCH  23  32
ATOM     32  O   UNL     1      40.603   9.253  31.357  0.00  0.00    +0.000 OA
ATOM     33  H   UNL     1      41.388   9.206  30.783  0.00  0.00    +0.000 HD
ENDBRANCH  23  32
TORSDOF 2
ENDMDL
MODEL 4
REMARK VINA RESULT:      -6.0      4.857      9.436
REMARK  Name = 
REMARK  5 active torsions:
REMARK  status: ('A' for Active; 'I' for Inactive)
REMARK    1  A    between atoms: O_1  and  C_16
REMARK    2  A    between atoms: O_3  and  C_25
REMARK    3  A    between atoms: C_11  and  C_22
REMARK    4  A    between atoms: C_16  and  C_28
REMARK    5  A    between atoms: C_29  and  C_31
REMARK                            x       y       z     vdW  Elec       q    Type
REMARK                         _______ _______ _______ _____ _____    ______ ____
ROOT
ATOM      1  O   UNL     1      41.014   6.728  28.756  0.00  0.00    +0.000 OA
ATOM      2  N   UNL     1      35.469  12.043  23.174  0.00  0.00    +0.000 NA
ATOM      3  C   UNL     1      36.761   9.954  26.140  0.00  0.00    +0.000 C 
ATOM      4  C   UNL     1      37.096   8.458  26.377  0.00  0.00    +0.000 C 
ATOM      5  C   UNL     1      38.557   9.816  27.719  0.00  0.00    +0.000 C 
ATOM      6  C   UNL     1      38.504   8.465  26.994  0.00  0.00    +0.000 C 
ATOM      7  C   UNL     1      36.363  10.273  24.686  0.00  0.00    +0.000 C 
ATOM      8  C   UNL     1      37.980  10.746  26.657  0.00  0.00    +0.000 C 
ATOM      9  C   UNL     1      39.959  10.113  28.316  0.00  0.00    +0.000 C 
ATOM     10  C   UNL     1      35.249   9.301  24.238  0.00  0.00    +0.000 C 
ATOM     11  C   UNL     1      37.020   7.617  25.107  0.00  0.00    +0.000 C 
ATOM     12  C   UNL     1      40.254   8.959  29.322  0.00  0.00    +0.000 C 
ATOM     13  C   UNL     1      35.716   7.827  24.340  0.00  0.00    +0.000 C 
ATOM     14  C   UNL     1      34.705   9.681  22.830  0.00  0.00    +0.000 C 
ATOM     15  C   UNL     1      38.835   7.308  27.924  0.00  0.00    +0.000 C 
ATOM     16  C   UNL     1      35.905  11.731  24.546  0.00  0.00    +0.000 C 
ATOM     17  C   UNL     1      34.303  11.202  22.784  0.00  0.00    +0.000 C 
ATOM     18  C   UNL     1      39.929  11.445  29.109  0.00  0.00    +0.000 C 
ATOM     19  C   UNL     1      40.147   7.592  28.642  0.00  0.00    +0.000 C 
ATOM     20  C   UNL     1      41.046  10.209  27.218  0.00  0.00    +0.000 C 
ATOM     21  C   UNL     1      41.565   9.165  30.081  0.00  0.00    +0.000 C 
ATOM     22  C   UNL     1      41.195  11.680  29.937  0.00  0.00    +0.000 C 
ATOM     23  C   UNL     1      41.544  10.495  30.837  0.00  0.00    +0.000 C 
ATOM     24  C   UNL     1      33.797  11.606  21.375  0.00  0.00    +0.000 C 
ATOM     25  C   UNL     1      35.151  13.483  23.102  0.00  0.00    +0.000 C 
ATOM     26  C   UNL     1      33.525   8.779  22.441  0.00  0.00    +0.000 C 
ATOM     27  C   UNL     1      34.729  13.931  21.699  0.00  0.00    +0.000 C 
ATOM     28  C   UNL     1      33.531  13.101  21.244  0.00  0.00    +0.000 C 
ATOM     29  C   UNL     1      35.891  13.858  20.704  0.00  0.00    +0.000 C 
ENDROOT
BRANCH  14  30
ATOM     30  O   UNL     1      35.753   9.458  21.872  0.00  0.00    +0.000 OA
ATOM     31  H   UNL     1      35.961  10.343  21.511  0.00  0.00    +0.000 HD
ENDBRANCH  14  30
BRANCH  23  32
ATOM     32  O   UNL     1      42.818  10.736  31.424  0.00  0.00    +0.000 OA
ATOM     33  H   UNL     1      43.139  11.594  31.096  0.00  0.00    +0.000 HD
ENDBRANCH  23  32
TORSDOF 2
ENDMDL
MODEL 5
REMARK VINA RESULT:      -5.8     32.618     34.095
REMARK  Name = 
REMARK  5 active torsions:
REMARK  status: ('A' for Active; 'I' for Inactive)
REMARK    1  A    between atoms: O_1  and  C_16
REMARK    2  A    between atoms: O_3  and  C_25
REMARK    3  A    between atoms: C_11  and  C_22
REMARK    4  A    between atoms: C_16  and  C_28
REMARK    5  A    between atoms: C_29  and  C_31
REMARK                            x       y       z     vdW  Elec       q    Type
REMARK                         _______ _______ _______ _____ _____    ______ ____
ROOT
ATOM      1  O   UNL     1      42.525  -2.346 -11.413  0.00  0.00    +0.000 OA
ATOM      2  N   UNL     1      39.109   6.042  -8.562  0.00  0.00    +0.000 NA
ATOM      3  C   UNL     1      40.872   2.618  -8.591  0.00  0.00    +0.000 C 
ATOM      4  C   UNL     1      40.415   1.139  -8.692  0.00  0.00    +0.000 C 
ATOM      5  C   UNL     1      42.570   1.372  -9.734  0.00  0.00    +0.000 C 
ATOM      6  C   UNL     1      41.286   0.535  -9.806  0.00  0.00    +0.000 C 
ATOM      7  C   UNL     1      39.719   3.630  -8.734  0.00  0.00    +0.000 C 
ATOM      8  C   UNL     1      42.000   2.783  -9.632  0.00  0.00    +0.000 C 
ATOM      9  C   UNL     1      43.565   1.030 -10.874  0.00  0.00    +0.000 C 
ATOM     10  C   UNL     1      38.587   3.254  -7.754  0.00  0.00    +0.000 C 
ATOM     11  C   UNL     1      38.923   0.988  -8.972  0.00  0.00    +0.000 C 
ATOM     12  C   UNL     1      43.907  -0.482 -10.711  0.00  0.00    +0.000 C 
ATOM     13  C   UNL     1      38.061   1.821  -8.025  0.00  0.00    +0.000 C 
ATOM     14  C   UNL     1      37.465   4.333  -7.749  0.00  0.00    +0.000 C 
ATOM     15  C   UNL     1      41.572  -0.955  -9.701  0.00  0.00    +0.000 C 
ATOM     16  C   UNL     1      40.207   5.063  -8.482  0.00  0.00    +0.000 C 
ATOM     17  C   UNL     1      38.077   5.766  -7.524  0.00  0.00    +0.000 C 
ATOM     18  C   UNL     1      44.875   1.839 -10.699  0.00  0.00    +0.000 C 
ATOM     19  C   UNL     1      42.639  -1.340 -10.716  0.00  0.00    +0.000 C 
ATOM     20  C   UNL     1      42.971   1.336 -12.272  0.00  0.00    +0.000 C 
ATOM     21  C   UNL     1      44.970  -0.954 -11.703  0.00  0.00    +0.000 C 
ATOM     22  C   UNL     1      45.998   1.374 -11.630  0.00  0.00    +0.000 C 
ATOM     23  C   UNL     1      46.250  -0.131 -11.549  0.00  0.00    +0.000 C 
ATOM     24  C   UNL     1      36.976   6.857  -7.558  0.00  0.00    +0.000 C 
ATOM     25  C   UNL     1      39.681   7.396  -8.416  0.00  0.00    +0.000 C 
ATOM     26  C   UNL     1      36.399   4.007  -6.693  0.00  0.00    +0.000 C 
ATOM     27  C   UNL     1      38.627   8.502  -8.531  0.00  0.00    +0.000 C 
ATOM     28  C   UNL     1      37.538   8.273  -7.486  0.00  0.00    +0.000 C 
ATOM     29  C   UNL     1      38.054   8.599  -9.948  0.00  0.00    +0.000 C 
ENDROOT
BRANCH  14  30
ATOM     30  O   UNL     1      36.820   4.310  -9.034  0.00  0.00    +0.000 OA
ATOM     31  H   UNL     1      36.875   3.379  -9.329  0.00  0.00    +0.000 HD
ENDBRANCH  14  30
BRANCH  23  32
ATOM     32  O   UNL     1      47.178  -0.487 -12.569  0.00  0.00    +0.000 OA
ATOM     33  H   UNL     1      46.701  -0.493 -13.416  0.00  0.00    +0.000 HD
ENDBRANCH  23  32
TORSDOF 2
ENDMDL
MODEL 6
REMARK VINA RESULT:      -5.7     21.469     23.778
REMARK  Name = 
REMARK  5 active torsions:
REMARK  status: ('A' for Active; 'I' for Inactive)
REMARK    1  A    between atoms: O_1  and  C_16
REMARK    2  A    between atoms: O_3  and  C_25
REMARK    3  A    between atoms: C_11  and  C_22
REMARK    4  A    between atoms: C_16  and  C_28
REMARK    5  A    between atoms: C_29  and  C_31
REMARK                            x       y       z     vdW  Elec       q    Type
REMARK                         _______ _______ _______ _____ _____    ______ ____
ROOT
ATOM      1  O   UNL     1      18.849   3.326   2.548  0.00  0.00    +0.000 OA
ATOM      2  N   UNL     1      26.496   8.720   4.158  0.00  0.00    +0.000 NA
ATOM      3  C   UNL     1      23.944   5.840   4.299  0.00  0.00    +0.000 C 
ATOM      4  C   UNL     1      22.497   5.668   4.832  0.00  0.00    +0.000 C 
ATOM      5  C   UNL     1      22.806   4.248   2.917  0.00  0.00    +0.000 C 
ATOM      6  C   UNL     1      21.723   5.035   3.664  0.00  0.00    +0.000 C 
ATOM      7  C   UNL     1      24.475   7.282   4.412  0.00  0.00    +0.000 C 
ATOM      8  C   UNL     1      23.936   5.272   2.864  0.00  0.00    +0.000 C 
ATOM      9  C   UNL     1      22.281   3.621   1.597  0.00  0.00    +0.000 C 
ATOM     10  C   UNL     1      24.273   7.788   5.857  0.00  0.00    +0.000 C 
ATOM     11  C   UNL     1      21.871   6.977   5.304  0.00  0.00    +0.000 C 
ATOM     12  C   UNL     1      21.118   2.667   2.005  0.00  0.00    +0.000 C 
ATOM     13  C   UNL     1      22.777   7.748   6.262  0.00  0.00    +0.000 C 
ATOM     14  C   UNL     1      24.932   9.183   6.062  0.00  0.00    +0.000 C 
ATOM     15  C   UNL     1      20.539   4.156   4.041  0.00  0.00    +0.000 C 
ATOM     16  C   UNL     1      25.953   7.359   4.007  0.00  0.00    +0.000 C 
ATOM     17  C   UNL     1      26.431   9.163   5.579  0.00  0.00    +0.000 C 
ATOM     18  C   UNL     1      23.391   2.768   0.933  0.00  0.00    +0.000 C 
ATOM     19  C   UNL     1      20.048   3.411   2.808  0.00  0.00    +0.000 C 
ATOM     20  C   UNL     1      21.811   4.701   0.592  0.00  0.00    +0.000 C 
ATOM     21  C   UNL     1      20.558   1.883   0.818  0.00  0.00    +0.000 C 
ATOM     22  C   UNL     1      22.878   1.915  -0.231  0.00  0.00    +0.000 C 
ATOM     23  C   UNL     1      21.663   1.067   0.145  0.00  0.00    +0.000 C 
ATOM     24  C   UNL     1      27.089  10.557   5.738  0.00  0.00    +0.000 C 
ATOM     25  C   UNL     1      27.881   8.729   3.648  0.00  0.00    +0.000 C 
ATOM     26  C   UNL     1      24.823   9.627   7.528  0.00  0.00    +0.000 C 
ATOM     27  C   UNL     1      28.532  10.114   3.713  0.00  0.00    +0.000 C 
ATOM     28  C   UNL     1      28.495  10.622   5.153  0.00  0.00    +0.000 C 
ATOM     29  C   UNL     1      27.876  11.098   2.739  0.00  0.00    +0.000 C 
ENDROOT
BRANCH  14  30
ATOM     30  O   UNL     1      24.210  10.138   5.266  0.00  0.00    +0.000 OA
ATOM     31  H   UNL     1      23.530   9.615   4.796  0.00  0.00    +0.000 HD
ENDBRANCH  14  30
BRANCH  23  32
ATOM     32  O   UNL     1      21.160   0.455  -1.037  0.00  0.00    +0.000 OA
ATOM     33  H   UNL     1      21.835  -0.168  -1.360  0.00  0.00    +0.000 HD
ENDBRANCH  23  32
TORSDOF 2
ENDMDL
MODEL 7
REMARK VINA RESULT:      -5.7     33.434     34.517
REMARK  Name = 
REMARK  5 active torsions:
REMARK  status: ('A' for Active; 'I' for Inactive)
REMARK    1  A    between atoms: O_1  and  C_16
REMARK    2  A    between atoms: O_3  and  C_25
REMARK    3  A    between atoms: C_11  and  C_22
REMARK    4  A    between atoms: C_16  and  C_28
REMARK    5  A    between atoms: C_29  and  C_31
REMARK                            x       y       z     vdW  Elec       q    Type
REMARK                         _______ _______ _______ _____ _____    ______ ____
ROOT
ATOM      1  O   UNL     1      45.086   0.289  -8.891  0.00  0.00    +0.000 OA
ATOM      2  N   UNL     1      35.637   1.039  -9.431  0.00  0.00    +0.000 NA
ATOM      3  C   UNL     1      39.400   1.755  -9.818  0.00  0.00    +0.000 C 
ATOM      4  C   UNL     1      40.555   2.152  -8.861  0.00  0.00    +0.000 C 
ATOM      5  C   UNL     1      41.436   0.797 -10.641  0.00  0.00    +0.000 C 
ATOM      6  C   UNL     1      41.680   1.150  -9.168  0.00  0.00    +0.000 C 
ATOM      7  C   UNL     1      38.066   1.488  -9.095  0.00  0.00    +0.000 C 
ATOM      8  C   UNL     1      39.928   0.564 -10.645  0.00  0.00    +0.000 C 
ATOM      9  C   UNL     1      42.384  -0.324 -11.146  0.00  0.00    +0.000 C 
ATOM     10  C   UNL     1      37.737   2.684  -8.175  0.00  0.00    +0.000 C 
ATOM     11  C   UNL     1      40.149   2.140  -7.391  0.00  0.00    +0.000 C 
ATOM     12  C   UNL     1      43.833   0.221 -10.964  0.00  0.00    +0.000 C 
ATOM     13  C   UNL     1      38.860   2.916  -7.132  0.00  0.00    +0.000 C 
ATOM     14  C   UNL     1      36.324   2.533  -7.540  0.00  0.00    +0.000 C 
ATOM     15  C   UNL     1      43.100   1.641  -8.929  0.00  0.00    +0.000 C 
ATOM     16  C   UNL     1      36.933   1.244 -10.100  0.00  0.00    +0.000 C 
ATOM     17  C   UNL     1      35.246   2.246  -8.651  0.00  0.00    +0.000 C 
ATOM     18  C   UNL     1      42.152  -0.576 -12.658  0.00  0.00    +0.000 C 
ATOM     19  C   UNL     1      44.088   0.642  -9.515  0.00  0.00    +0.000 C 
ATOM     20  C   UNL     1      42.169  -1.652 -10.379  0.00  0.00    +0.000 C 
ATOM     21  C   UNL     1      44.891  -0.731 -11.521  0.00  0.00    +0.000 C 
ATOM     22  C   UNL     1      43.216  -1.481 -13.286  0.00  0.00    +0.000 C 
ATOM     23  C   UNL     1      44.641  -1.003 -13.006  0.00  0.00    +0.000 C 
ATOM     24  C   UNL     1      33.839   2.052  -8.029  0.00  0.00    +0.000 C 
ATOM     25  C   UNL     1      34.629   0.705 -10.458  0.00  0.00    +0.000 C 
ATOM     26  C   UNL     1      35.961   3.778  -6.716  0.00  0.00    +0.000 C 
ATOM     27  C   UNL     1      33.245   0.423  -9.866  0.00  0.00    +0.000 C 
ATOM     28  C   UNL     1      32.789   1.632  -9.051  0.00  0.00    +0.000 C 
ATOM     29  C   UNL     1      33.230  -0.866  -9.040  0.00  0.00    +0.000 C 
ENDROOT
BRANCH  14  30
ATOM     30  O   UNL     1      36.358   1.414  -6.638  0.00  0.00    +0.000 OA
ATOM     31  H   UNL     1      36.582   0.643  -7.198  0.00  0.00    +0.000 HD
ENDBRANCH  14  30
BRANCH  23  32
ATOM     32  O   UNL     1      45.547  -1.995 -13.475  0.00  0.00    +0.000 OA
ATOM     33  H   UNL     1      45.990  -2.383 -12.700  0.00  0.00    +0.000 HD
ENDBRANCH  23  32
TORSDOF 2
ENDMDL
MODEL 8
REMARK VINA RESULT:      -5.7     33.317     34.604
REMARK  Name = 
REMARK  5 active torsions:
REMARK  status: ('A' for Active; 'I' for Inactive)
REMARK    1  A    between atoms: O_1  and  C_16
REMARK    2  A    between atoms: O_3  and  C_25
REMARK    3  A    between atoms: C_11  and  C_22
REMARK    4  A    between atoms: C_16  and  C_28
REMARK    5  A    between atoms: C_29  and  C_31
REMARK                            x       y       z     vdW  Elec       q    Type
REMARK                         _______ _______ _______ _____ _____    ______ ____
ROOT
ATOM      1  O   UNL     1      46.088   0.964 -10.694  0.00  0.00    +0.000 OA
ATOM      2  N   UNL     1      36.948   2.255  -8.470  0.00  0.00    +0.000 NA
ATOM      3  C   UNL     1      40.309   2.318 -10.347  0.00  0.00    +0.000 C 
ATOM      4  C   UNL     1      41.677   3.024 -10.146  0.00  0.00    +0.000 C 
ATOM      5  C   UNL     1      42.038   0.886 -11.184  0.00  0.00    +0.000 C 
ATOM      6  C   UNL     1      42.718   1.898 -10.253  0.00  0.00    +0.000 C 
ATOM      7  C   UNL     1      39.309   2.575  -9.204  0.00  0.00    +0.000 C 
ATOM      8  C   UNL     1      40.635   0.829 -10.588  0.00  0.00    +0.000 C 
ATOM      9  C   UNL     1      42.858  -0.423 -11.336  0.00  0.00    +0.000 C 
ATOM     10  C   UNL     1      39.200   4.096  -8.955  0.00  0.00    +0.000 C 
ATOM     11  C   UNL     1      41.773   3.782  -8.826  0.00  0.00    +0.000 C 
ATOM     12  C   UNL     1      44.238  -0.003 -11.926  0.00  0.00    +0.000 C 
ATOM     13  C   UNL     1      40.579   4.705  -8.590  0.00  0.00    +0.000 C 
ATOM     14  C   UNL     1      38.088   4.417  -7.915  0.00  0.00    +0.000 C 
ATOM     15  C   UNL     1      44.094   2.303 -10.762  0.00  0.00    +0.000 C 
ATOM     16  C   UNL     1      37.935   1.975  -9.527  0.00  0.00    +0.000 C 
ATOM     17  C   UNL     1      36.735   3.722  -8.319  0.00  0.00    +0.000 C 
ATOM     18  C   UNL     1      42.169  -1.369 -12.353  0.00  0.00    +0.000 C 
ATOM     19  C   UNL     1      44.915   1.054 -11.052  0.00  0.00    +0.000 C 
ATOM     20  C   UNL     1      43.014  -1.168  -9.986  0.00  0.00    +0.000 C 
ATOM     21  C   UNL     1      45.132  -1.203 -12.239  0.00  0.00    +0.000 C 
ATOM     22  C   UNL     1      43.041  -2.564 -12.748  0.00  0.00    +0.000 C 
ATOM     23  C   UNL     1      44.436  -2.151 -13.218  0.00  0.00    +0.000 C 
ATOM     24  C   UNL     1      35.627   3.999  -7.271  0.00  0.00    +0.000 C 
ATOM     25  C   UNL     1      35.692   1.555  -8.807  0.00  0.00    +0.000 C 
ATOM     26  C   UNL     1      37.912   5.935  -7.756  0.00  0.00    +0.000 C 
ATOM     27  C   UNL     1      34.603   1.740  -7.745  0.00  0.00    +0.000 C 
ATOM     28  C   UNL     1      34.340   3.231  -7.547  0.00  0.00    +0.000 C 
ATOM     29  C   UNL     1      34.963   1.039  -6.432  0.00  0.00    +0.000 C 
ENDROOT
BRANCH  14  30
ATOM     30  O   UNL     1      38.505   3.896  -6.641  0.00  0.00    +0.000 OA
ATOM     31  H   UNL     1      39.482   3.877  -6.682  0.00  0.00    +0.000 HD
ENDBRANCH  14  30
BRANCH  23  32
ATOM     32  O   UNL     1      45.218  -3.327 -13.391  0.00  0.00    +0.000 OA
ATOM     33  H   UNL     1      45.480  -3.642 -12.509  0.00  0.00    +0.000 HD
ENDBRANCH  23  32
TORSDOF 2
ENDMDL
MODEL 9
REMARK VINA RESULT:      -5.5     20.451     23.886
REMARK  Name = 
REMARK  5 active torsions:
REMARK  status: ('A' for Active; 'I' for Inactive)
REMARK    1  A    between atoms: O_1  and  C_16
REMARK    2  A    between atoms: O_3  and  C_25
REMARK    3  A    between atoms: C_11  and  C_22
REMARK    4  A    between atoms: C_16  and  C_28
REMARK    5  A    between atoms: C_29  and  C_31
REMARK                            x       y       z     vdW  Elec       q    Type
REMARK                         _______ _______ _______ _____ _____    ______ ____
ROOT
ATOM      1  O   UNL     1      32.131  20.180   3.406  0.00  0.00    +0.000 OA
ATOM      2  N   UNL     1      37.504  17.169  -3.820  0.00  0.00    +0.000 NA
ATOM      3  C   UNL     1      36.307  18.105  -0.282  0.00  0.00    +0.000 C 
ATOM      4  C   UNL     1      35.972  19.427   0.460  0.00  0.00    +0.000 C 
ATOM      5  C   UNL     1      34.566  17.669   1.306  0.00  0.00    +0.000 C 
ATOM      6  C   UNL     1      34.586  19.186   1.081  0.00  0.00    +0.000 C 
ATOM      7  C   UNL     1      36.655  18.305  -1.769  0.00  0.00    +0.000 C 
ATOM      8  C   UNL     1      35.111  17.164  -0.026  0.00  0.00    +0.000 C 
ATOM      9  C   UNL     1      33.188  17.163   1.810  0.00  0.00    +0.000 C 
ATOM     10  C   UNL     1      37.747  19.390  -1.895  0.00  0.00    +0.000 C 
ATOM     11  C   UNL     1      35.998  20.650  -0.450  0.00  0.00    +0.000 C 
ATOM     12  C   UNL     1      32.922  17.902   3.156  0.00  0.00    +0.000 C 
ATOM     13  C   UNL     1      37.275  20.735  -1.284  0.00  0.00    +0.000 C 
ATOM     14  C   UNL     1      38.243  19.520  -3.365  0.00  0.00    +0.000 C 
ATOM     15  C   UNL     1      34.282  19.954   2.359  0.00  0.00    +0.000 C 
ATOM     16  C   UNL     1      37.115  16.990  -2.410  0.00  0.00    +0.000 C 
ATOM     17  C   UNL     1      38.652  18.112  -3.937  0.00  0.00    +0.000 C 
ATOM     18  C   UNL     1      33.253  15.642   2.102  0.00  0.00    +0.000 C 
ATOM     19  C   UNL     1      32.997  19.420   2.978  0.00  0.00    +0.000 C 
ATOM     20  C   UNL     1      32.063  17.427   0.778  0.00  0.00    +0.000 C 
ATOM     21  C   UNL     1      31.640  17.429   3.841  0.00  0.00    +0.000 C 
ATOM     22  C   UNL     1      32.017  15.119   2.840  0.00  0.00    +0.000 C 
ATOM     23  C   UNL     1      31.694  15.922   4.100  0.00  0.00    +0.000 C 
ATOM     24  C   UNL     1      39.110  18.219  -5.414  0.00  0.00    +0.000 C 
ATOM     25  C   UNL     1      37.828  15.844  -4.386  0.00  0.00    +0.000 C 
ATOM     26  C   UNL     1      39.404  20.521  -3.461  0.00  0.00    +0.000 C 
ATOM     27  C   UNL     1      38.202  15.906  -5.870  0.00  0.00    +0.000 C 
ATOM     28  C   UNL     1      39.379  16.862  -6.054  0.00  0.00    +0.000 C 
ATOM     29  C   UNL     1      37.006  16.292  -6.745  0.00  0.00    +0.000 C 
ENDROOT
BRANCH  14  30
ATOM     30  O   UNL     1      37.161  20.038  -4.157  0.00  0.00    +0.000 OA
ATOM     31  H   UNL     1      37.451  20.931  -4.431  0.00  0.00    +0.000 HD
ENDBRANCH  14  30
BRANCH  23  32
ATOM     32  O   UNL     1      30.443  15.474   4.609  0.00  0.00    +0.000 OA
ATOM     33  H   UNL     1      29.747  15.785   4.004  0.00  0.00    +0.000 HD
ENDBRANCH  23  32
TORSDOF 2
ENDMDL
