MODEL 1
REMARK VINA RESULT:      -7.1      0.000      0.000
REMARK  Name = PhIP.pdbqt.pdb
REMARK  2 active torsions:
REMARK  status: ('A' for Active; 'I' for Inactive)
REMARK    1  A    between atoms: N_4  and  C_9
REMARK    2  A    between atoms: C_7  and  C_10
REMARK                            x       y       z     vdW  Elec       q    Type
REMARK                         _______ _______ _______ _____ _____    ______ ____
ROOT
ATOM      1  N   UNL     1      35.467  19.106  19.311  0.00  0.00    +0.000 N 
ATOM      2  N   UNL     1      37.788  19.281  18.804  0.00  0.00    +0.000 NA
ATOM      3  N   UNL     1      38.392  17.011  19.416  0.00  0.00    +0.000 NA
ATOM      4  C   UNL     1      36.014  17.881  19.548  0.00  0.00    +0.000 C 
ATOM      5  C   UNL     1      37.499  18.070  19.208  0.00  0.00    +0.000 C 
ATOM      6  C   UNL     1      36.578  15.712  20.499  0.00  0.00    +0.000 C 
ATOM      7  C   UNL     1      35.699  16.796  20.188  0.00  0.00    +0.000 C 
ATOM      8  C   UNL     1      36.548  19.892  18.905  0.00  0.00    +0.000 C 
ATOM      9  C   UNL     1      34.368  19.637  20.099  0.00  0.00    +0.000 C 
ATOM     10  C   UNL     1      37.850  16.126  19.976  0.00  0.00    +0.000 C 
ENDROOT
BRANCH   6  11
ATOM     11  C   UNL     1      36.246  14.448  21.127  0.00  0.00    +0.000 A 
ATOM     12  C   UNL     1      36.150  13.280  20.368  0.00  0.00    +0.000 A 
ATOM     13  C   UNL     1      36.017  14.376  22.503  0.00  0.00    +0.000 A 
ATOM     14  C   UNL     1      35.831  12.063  20.970  0.00  0.00    +0.000 A 
ATOM     15  C   UNL     1      35.697  13.162  23.110  0.00  0.00    +0.000 A 
ATOM     16  C   UNL     1      35.604  12.005  22.341  0.00  0.00    +0.000 A 
ENDBRANCH   6  11
BRANCH   8  17
ATOM     17  N   UNL     1      36.504  21.278  18.683  0.00  0.00    +0.000 NA
ATOM     18  H   UNL     1      37.411  21.686  18.487  0.00  0.00    +0.000 HD
ATOM     19  H   UNL     1      35.780  21.548  18.029  0.00  0.00    +0.000 HD
ENDBRANCH   8  17
TORSDOF 2
ENDMDL
MODEL 2
REMARK VINA RESULT:      -6.8     16.573     19.265
REMARK  Name = PhIP.pdbqt.pdb
REMARK  2 active torsions:
REMARK  status: ('A' for Active; 'I' for Inactive)
REMARK    1  A    between atoms: N_4  and  C_9
REMARK    2  A    between atoms: C_7  and  C_10
REMARK                            x       y       z     vdW  Elec       q    Type
REMARK                         _______ _______ _______ _____ _____    ______ ____
ROOT
ATOM      1  N   UNL     1      40.033   1.046  16.213  0.00  0.00    +0.000 N 
ATOM      2  N   UNL     1      39.386   2.113  14.184  0.00  0.00    +0.000 NA
ATOM      3  N   UNL     1      39.942   0.277  12.698  0.00  0.00    +0.000 NA
ATOM      4  C   UNL     1      40.227   0.140  15.214  0.00  0.00    +0.000 C 
ATOM      5  C   UNL     1      39.798   0.894  13.947  0.00  0.00    +0.000 C 
ATOM      6  C   UNL     1      41.125  -1.613  13.783  0.00  0.00    +0.000 C 
ATOM      7  C   UNL     1      40.877  -0.970  15.036  0.00  0.00    +0.000 C 
ATOM      8  C   UNL     1      39.568   2.187  15.555  0.00  0.00    +0.000 C 
ATOM      9  C   UNL     1      40.892   1.114  17.383  0.00  0.00    +0.000 C 
ATOM     10  C   UNL     1      40.528  -0.740  12.811  0.00  0.00    +0.000 C 
ENDROOT
BRANCH   6  11
ATOM     11  C   UNL     1      41.763  -2.895  13.552  0.00  0.00    +0.000 A 
ATOM     12  C   UNL     1      41.689  -3.511  12.300  0.00  0.00    +0.000 A 
ATOM     13  C   UNL     1      42.463  -3.537  14.575  0.00  0.00    +0.000 A 
ATOM     14  C   UNL     1      42.301  -4.742  12.075  0.00  0.00    +0.000 A 
ATOM     15  C   UNL     1      43.077  -4.769  14.355  0.00  0.00    +0.000 A 
ATOM     16  C   UNL     1      42.995  -5.371  13.103  0.00  0.00    +0.000 A 
ENDBRANCH   6  11
BRANCH   8  17
ATOM     17  N   UNL     1      39.359   3.440  16.157  0.00  0.00    +0.000 NA
ATOM     18  H   UNL     1      38.558   3.938  15.787  0.00  0.00    +0.000 HD
ATOM     19  H   UNL     1      39.390   3.400  17.168  0.00  0.00    +0.000 HD
ENDBRANCH   8  17
TORSDOF 2
ENDMDL
MODEL 3
REMARK VINA RESULT:      -6.7     14.827     17.679
REMARK  Name = PhIP.pdbqt.pdb
REMARK  2 active torsions:
REMARK  status: ('A' for Active; 'I' for Inactive)
REMARK    1  A    between atoms: N_4  and  C_9
REMARK    2  A    between atoms: C_7  and  C_10
REMARK                            x       y       z     vdW  Elec       q    Type
REMARK                         _______ _______ _______ _____ _____    ______ ____
ROOT
ATOM      1  N   UNL     1      39.756   1.568  17.945  0.00  0.00    +0.000 N 
ATOM      2  N   UNL     1      39.040   3.411  16.617  0.00  0.00    +0.000 NA
ATOM      3  N   UNL     1      39.366   2.358  14.455  0.00  0.00    +0.000 NA
ATOM      4  C   UNL     1      39.818   1.164  16.646  0.00  0.00    +0.000 C 
ATOM      5  C   UNL     1      39.351   2.394  15.855  0.00  0.00    +0.000 C 
ATOM      6  C   UNL     1      40.494   0.150  14.537  0.00  0.00    +0.000 C 
ATOM      7  C   UNL     1      40.379   0.213  15.962  0.00  0.00    +0.000 C 
ATOM      8  C   UNL     1      39.323   2.894  17.870  0.00  0.00    +0.000 C 
ATOM      9  C   UNL     1      40.698   1.110  18.952  0.00  0.00    +0.000 C 
ATOM     10  C   UNL     1      39.889   1.370  14.079  0.00  0.00    +0.000 C 
ENDROOT
BRANCH   6  11
ATOM     11  C   UNL     1      41.027  -0.933  13.734  0.00  0.00    +0.000 A 
ATOM     12  C   UNL     1      42.322  -1.408  13.950  0.00  0.00    +0.000 A 
ATOM     13  C   UNL     1      40.254  -1.522  12.731  0.00  0.00    +0.000 A 
ATOM     14  C   UNL     1      42.837  -2.450  13.179  0.00  0.00    +0.000 A 
ATOM     15  C   UNL     1      40.764  -2.563  11.957  0.00  0.00    +0.000 A 
ATOM     16  C   UNL     1      42.057  -3.027  12.182  0.00  0.00    +0.000 A 
ENDBRANCH   6  11
BRANCH   8  17
ATOM     17  N   UNL     1      39.242   3.782  18.957  0.00  0.00    +0.000 NA
ATOM     18  H   UNL     1      40.109   3.867  19.476  0.00  0.00    +0.000 HD
ATOM     19  H   UNL     1      38.820   4.668  18.709  0.00  0.00    +0.000 HD
ENDBRANCH   8  17
TORSDOF 2
ENDMDL
MODEL 4
REMARK VINA RESULT:      -6.2      3.645      6.593
REMARK  Name = PhIP.pdbqt.pdb
REMARK  2 active torsions:
REMARK  status: ('A' for Active; 'I' for Inactive)
REMARK    1  A    between atoms: N_4  and  C_9
REMARK    2  A    between atoms: C_7  and  C_10
REMARK                            x       y       z     vdW  Elec       q    Type
REMARK                         _______ _______ _______ _____ _____    ______ ____
ROOT
ATOM      1  N   UNL     1      34.782  11.948  21.504  0.00  0.00    +0.000 N 
ATOM      2  N   UNL     1      32.602  12.882  21.723  0.00  0.00    +0.000 NA
ATOM      3  N   UNL     1      33.143  15.090  20.873  0.00  0.00    +0.000 NA
ATOM      4  C   UNL     1      34.850  13.220  21.023  0.00  0.00    +0.000 C 
ATOM      5  C   UNL     1      33.422  13.757  21.200  0.00  0.00    +0.000 C 
ATOM      6  C   UNL     1      35.560  15.485  20.481  0.00  0.00    +0.000 C 
ATOM      7  C   UNL     1      35.769  14.096  20.749  0.00  0.00    +0.000 C 
ATOM      8  C   UNL     1      33.457  11.811  21.925  0.00  0.00    +0.000 C 
ATOM      9  C   UNL     1      35.890  11.315  22.198  0.00  0.00    +0.000 C 
ATOM     10  C   UNL     1      34.142  15.664  20.619  0.00  0.00    +0.000 C 
ENDROOT
BRANCH   6  11
ATOM     11  C   UNL     1      36.545  16.473  20.082  0.00  0.00    +0.000 A 
ATOM     12  C   UNL     1      36.217  17.830  20.044  0.00  0.00    +0.000 A 
ATOM     13  C   UNL     1      37.839  16.085  19.729  0.00  0.00    +0.000 A 
ATOM     14  C   UNL     1      37.161  18.781  19.661  0.00  0.00    +0.000 A 
ATOM     15  C   UNL     1      38.787  17.031  19.344  0.00  0.00    +0.000 A 
ATOM     16  C   UNL     1      38.446  18.381  19.311  0.00  0.00    +0.000 A 
ENDBRANCH   6  11
BRANCH   8  17
ATOM     17  N   UNL     1      32.939  10.709  22.626  0.00  0.00    +0.000 NA
ATOM     18  H   UNL     1      32.206  10.954  23.282  0.00  0.00    +0.000 HD
ATOM     19  H   UNL     1      32.708   9.931  22.020  0.00  0.00    +0.000 HD
ENDBRANCH   8  17
TORSDOF 2
ENDMDL
MODEL 5
REMARK VINA RESULT:      -5.8     13.622     16.199
REMARK  Name = PhIP.pdbqt.pdb
REMARK  2 active torsions:
REMARK  status: ('A' for Active; 'I' for Inactive)
REMARK    1  A    between atoms: N_4  and  C_9
REMARK    2  A    between atoms: C_7  and  C_10
REMARK                            x       y       z     vdW  Elec       q    Type
REMARK                         _______ _______ _______ _____ _____    ______ ____
ROOT
ATOM      1  N   UNL     1      40.094   2.099  19.982  0.00  0.00    +0.000 N 
ATOM      2  N   UNL     1      39.165   4.188  19.313  0.00  0.00    +0.000 NA
ATOM      3  N   UNL     1      39.058   3.713  16.935  0.00  0.00    +0.000 NA
ATOM      4  C   UNL     1      39.902   2.031  18.635  0.00  0.00    +0.000 C 
ATOM      5  C   UNL     1      39.311   3.402  18.277  0.00  0.00    +0.000 C 
ATOM      6  C   UNL     1      40.149   1.593  16.252  0.00  0.00    +0.000 C 
ATOM      7  C   UNL     1      40.308   1.298  17.643  0.00  0.00    +0.000 C 
ATOM      8  C   UNL     1      39.674   3.387  20.322  0.00  0.00    +0.000 C 
ATOM      9  C   UNL     1      41.204   1.439  20.647  0.00  0.00    +0.000 C 
ATOM     10  C   UNL     1      39.486   2.867  16.234  0.00  0.00    +0.000 C 
ENDROOT
BRANCH   6  11
ATOM     11  C   UNL     1      40.504   0.760  15.119  0.00  0.00    +0.000 A 
ATOM     12  C   UNL     1      39.703   0.737  13.975  0.00  0.00    +0.000 A 
ATOM     13  C   UNL     1      41.654  -0.032  15.150  0.00  0.00    +0.000 A 
ATOM     14  C   UNL     1      40.041  -0.062  12.884  0.00  0.00    +0.000 A 
ATOM     15  C   UNL     1      41.997  -0.833  14.062  0.00  0.00    +0.000 A 
ATOM     16  C   UNL     1      41.189  -0.847  12.929  0.00  0.00    +0.000 A 
ENDBRANCH   6  11
BRANCH   8  17
ATOM     17  N   UNL     1      39.814   3.976  21.590  0.00  0.00    +0.000 NA
ATOM     18  H   UNL     1      40.533   3.543  22.160  0.00  0.00    +0.000 HD
ATOM     19  H   UNL     1      39.869   4.986  21.551  0.00  0.00    +0.000 HD
ENDBRANCH   8  17
TORSDOF 2
ENDMDL
MODEL 6
REMARK VINA RESULT:      -5.5     24.962     26.788
REMARK  Name = PhIP.pdbqt.pdb
REMARK  2 active torsions:
REMARK  status: ('A' for Active; 'I' for Inactive)
REMARK    1  A    between atoms: N_4  and  C_9
REMARK    2  A    between atoms: C_7  and  C_10
REMARK                            x       y       z     vdW  Elec       q    Type
REMARK                         _______ _______ _______ _____ _____    ______ ____
ROOT
ATOM      1  N   UNL     1      50.601  -0.059   3.038  0.00  0.00    +0.000 N 
ATOM      2  N   UNL     1      50.722  -2.437   2.957  0.00  0.00    +0.000 NA
ATOM      3  N   UNL     1      50.426  -2.825   5.335  0.00  0.00    +0.000 NA
ATOM      4  C   UNL     1      50.406  -0.505   4.310  0.00  0.00    +0.000 C 
ATOM      5  C   UNL     1      50.503  -2.032   4.182  0.00  0.00    +0.000 C 
ATOM      6  C   UNL     1      50.443  -0.774   6.730  0.00  0.00    +0.000 C 
ATOM      7  C   UNL     1      50.443  -0.020   5.514  0.00  0.00    +0.000 C 
ATOM      8  C   UNL     1      50.808  -1.223   2.294  0.00  0.00    +0.000 C 
ATOM      9  C   UNL     1      51.288   1.187   2.744  0.00  0.00    +0.000 C 
ATOM     10  C   UNL     1      50.428  -2.144   6.298  0.00  0.00    +0.000 C 
ENDROOT
BRANCH   6  11
ATOM     11  C   UNL     1      50.389  -0.272   8.089  0.00  0.00    +0.000 A 
ATOM     12  C   UNL     1      51.549   0.167   8.732  0.00  0.00    +0.000 A 
ATOM     13  C   UNL     1      49.176  -0.215   8.779  0.00  0.00    +0.000 A 
ATOM     14  C   UNL     1      51.499   0.650  10.039  0.00  0.00    +0.000 A 
ATOM     15  C   UNL     1      49.121   0.267  10.086  0.00  0.00    +0.000 A 
ATOM     16  C   UNL     1      50.285   0.700  10.715  0.00  0.00    +0.000 A 
ENDBRANCH   6  11
BRANCH   8  17
ATOM     17  N   UNL     1      51.191  -1.263   0.943  0.00  0.00    +0.000 NA
ATOM     18  H   UNL     1      52.157  -0.995   0.788  0.00  0.00    +0.000 HD
ATOM     19  H   UNL     1      50.923  -2.125   0.484  0.00  0.00    +0.000 HD
ENDBRANCH   8  17
TORSDOF 2
ENDMDL
MODEL 7
REMARK VINA RESULT:      -4.9     19.765     22.427
REMARK  Name = PhIP.pdbqt.pdb
REMARK  2 active torsions:
REMARK  status: ('A' for Active; 'I' for Inactive)
REMARK    1  A    between atoms: N_4  and  C_9
REMARK    2  A    between atoms: C_7  and  C_10
REMARK                            x       y       z     vdW  Elec       q    Type
REMARK                         _______ _______ _______ _____ _____    ______ ____
ROOT
ATOM      1  N   UNL     1      29.814  -4.607  10.139  0.00  0.00    +0.000 N 
ATOM      2  N   UNL     1      29.861  -3.010   8.372  0.00  0.00    +0.000 NA
ATOM      3  N   UNL     1      29.418  -1.052   9.736  0.00  0.00    +0.000 NA
ATOM      4  C   UNL     1      29.625  -3.385  10.709  0.00  0.00    +0.000 C 
ATOM      5  C   UNL     1      29.662  -2.415   9.520  0.00  0.00    +0.000 C 
ATOM      6  C   UNL     1      28.846  -1.544  12.099  0.00  0.00    +0.000 C 
ATOM      7  C   UNL     1      29.185  -2.908  11.834  0.00  0.00    +0.000 C 
ATOM      8  C   UNL     1      29.919  -4.335   8.773  0.00  0.00    +0.000 C 
ATOM      9  C   UNL     1      29.184  -5.813  10.648  0.00  0.00    +0.000 C 
ATOM     10  C   UNL     1      29.074  -0.872  10.850  0.00  0.00    +0.000 C 
ENDROOT
BRANCH   6  11
ATOM     11  C   UNL     1      28.442  -0.956  13.362  0.00  0.00    +0.000 A 
ATOM     12  C   UNL     1      28.572   0.417  13.582  0.00  0.00    +0.000 A 
ATOM     13  C   UNL     1      27.914  -1.752  14.381  0.00  0.00    +0.000 A 
ATOM     14  C   UNL     1      28.184   0.985  14.794  0.00  0.00    +0.000 A 
ATOM     15  C   UNL     1      27.525  -1.190  15.596  0.00  0.00    +0.000 A 
ATOM     16  C   UNL     1      27.660   0.180  15.801  0.00  0.00    +0.000 A 
ENDBRANCH   6  11
BRANCH   8  17
ATOM     17  N   UNL     1      29.982  -5.303   7.756  0.00  0.00    +0.000 NA
ATOM     18  H   UNL     1      30.700  -6.003   7.908  0.00  0.00    +0.000 HD
ATOM     19  H   UNL     1      29.075  -5.687   7.522  0.00  0.00    +0.000 HD
ENDBRANCH   8  17
TORSDOF 2
ENDMDL
MODEL 8
REMARK VINA RESULT:      -4.9     16.491     18.593
REMARK  Name = PhIP.pdbqt.pdb
REMARK  2 active torsions:
REMARK  status: ('A' for Active; 'I' for Inactive)
REMARK    1  A    between atoms: N_4  and  C_9
REMARK    2  A    between atoms: C_7  and  C_10
REMARK                            x       y       z     vdW  Elec       q    Type
REMARK                         _______ _______ _______ _____ _____    ______ ____
ROOT
ATOM      1  N   UNL     1      42.584  -0.277  19.440  0.00  0.00    +0.000 N 
ATOM      2  N   UNL     1      41.024   1.522  19.511  0.00  0.00    +0.000 NA
ATOM      3  N   UNL     1      40.309   1.381  17.197  0.00  0.00    +0.000 NA
ATOM      4  C   UNL     1      42.010  -0.206  18.207  0.00  0.00    +0.000 C 
ATOM      5  C   UNL     1      41.028   0.969  18.326  0.00  0.00    +0.000 C 
ATOM      6  C   UNL     1      41.610  -0.207  15.805  0.00  0.00    +0.000 C 
ATOM      7  C   UNL     1      42.254  -0.639  17.007  0.00  0.00    +0.000 C 
ATOM      8  C   UNL     1      41.994   0.770  20.153  0.00  0.00    +0.000 C 
ATOM      9  C   UNL     1      43.968  -0.672  19.635  0.00  0.00    +0.000 C 
ATOM     10  C   UNL     1      40.689   0.806  16.240  0.00  0.00    +0.000 C 
ENDROOT
BRANCH   6  11
ATOM     11  C   UNL     1      41.787  -0.729  14.464  0.00  0.00    +0.000 A 
ATOM     12  C   UNL     1      41.105  -0.163  13.384  0.00  0.00    +0.000 A 
ATOM     13  C   UNL     1      42.644  -1.806  14.226  0.00  0.00    +0.000 A 
ATOM     14  C   UNL     1      41.274  -0.663  12.094  0.00  0.00    +0.000 A 
ATOM     15  C   UNL     1      42.816  -2.310  12.938  0.00  0.00    +0.000 A 
ATOM     16  C   UNL     1      42.129  -1.737  11.871  0.00  0.00    +0.000 A 
ENDBRANCH   6  11
BRANCH   8  17
ATOM     17  N   UNL     1      42.372   1.186  21.441  0.00  0.00    +0.000 NA
ATOM     18  H   UNL     1      41.603   1.556  21.989  0.00  0.00    +0.000 HD
ATOM     19  H   UNL     1      42.933   0.498  21.928  0.00  0.00    +0.000 HD
ENDBRANCH   8  17
TORSDOF 2
ENDMDL
MODEL 9
REMARK VINA RESULT:      -4.9      3.503      5.267
REMARK  Name = PhIP.pdbqt.pdb
REMARK  2 active torsions:
REMARK  status: ('A' for Active; 'I' for Inactive)
REMARK    1  A    between atoms: N_4  and  C_9
REMARK    2  A    between atoms: C_7  and  C_10
REMARK                            x       y       z     vdW  Elec       q    Type
REMARK                         _______ _______ _______ _____ _____    ______ ____
ROOT
ATOM      1  N   UNL     1      34.390  23.168  18.757  0.00  0.00    +0.000 N 
ATOM      2  N   UNL     1      35.830  24.527  20.082  0.00  0.00    +0.000 NA
ATOM      3  N   UNL     1      37.551  22.855  20.451  0.00  0.00    +0.000 NA
ATOM      4  C   UNL     1      35.485  22.412  19.048  0.00  0.00    +0.000 C 
ATOM      5  C   UNL     1      36.358  23.343  19.902  0.00  0.00    +0.000 C 
ATOM      6  C   UNL     1      36.978  20.582  19.641  0.00  0.00    +0.000 C 
ATOM      7  C   UNL     1      35.816  21.156  19.036  0.00  0.00    +0.000 C 
ATOM      8  C   UNL     1      34.629  24.382  19.406  0.00  0.00    +0.000 C 
ATOM      9  C   UNL     1      33.059  22.600  18.630  0.00  0.00    +0.000 C 
ATOM     10  C   UNL     1      37.638  21.694  20.267  0.00  0.00    +0.000 C 
ENDROOT
BRANCH   6  11
ATOM     11  C   UNL     1      37.431  19.206  19.571  0.00  0.00    +0.000 A 
ATOM     12  C   UNL     1      38.750  18.908  19.226  0.00  0.00    +0.000 A 
ATOM     13  C   UNL     1      36.555  18.154  19.849  0.00  0.00    +0.000 A 
ATOM     14  C   UNL     1      39.188  17.586  19.158  0.00  0.00    +0.000 A 
ATOM     15  C   UNL     1      36.987  16.831  19.782  0.00  0.00    +0.000 A 
ATOM     16  C   UNL     1      38.305  16.547  19.436  0.00  0.00    +0.000 A 
ENDBRANCH   6  11
BRANCH   8  17
ATOM     17  N   UNL     1      33.709  25.439  19.512  0.00  0.00    +0.000 NA
ATOM     18  H   UNL     1      32.742  25.134  19.524  0.00  0.00    +0.000 HD
ATOM     19  H   UNL     1      33.945  26.093  20.248  0.00  0.00    +0.000 HD
ENDBRANCH   8  17
TORSDOF 2
ENDMDL
