MODEL 1
REMARK VINA RESULT:      -6.7      0.000      0.000
REMARK  Name = Piroxicam.pdbqt.pdb
REMARK  3 active torsions:
REMARK  status: ('A' for Active; 'I' for Inactive)
REMARK    1  A    between atoms: C_7  and  C_14
REMARK    2  A    between atoms: C_8  and  O_24
REMARK    3  A    between atoms: N_16  and  C_18
REMARK                            x       y       z     vdW  Elec       q    Type
REMARK                         _______ _______ _______ _____ _____    ______ ____
ROOT
ATOM      1  S   UNL     1      39.609   0.958  19.931  0.00  0.00    +0.000 S 
ATOM      2  O   UNL     1      38.283   0.422  19.686  0.00  0.00    +0.000 OA
ATOM      3  O   UNL     1      40.271   0.743  21.202  0.00  0.00    +0.000 OA
ATOM      4  N   UNL     1      40.637   0.491  18.631  0.00  0.00    +0.000 N 
ATOM      5  C   UNL     1      39.499   2.685  19.663  0.00  0.00    +0.000 A 
ATOM      6  C   UNL     1      39.545   3.136  18.346  0.00  0.00    +0.000 A 
ATOM      7  C   UNL     1      40.184   0.949  17.348  0.00  0.00    +0.000 C 
ATOM      8  C   UNL     1      39.665   2.192  17.218  0.00  0.00    +0.000 C 
ATOM      9  C   UNL     1      39.403   3.547  20.750  0.00  0.00    +0.000 A 
ATOM     10  C   UNL     1      42.093   0.645  18.793  0.00  0.00    +0.000 C 
ATOM     11  C   UNL     1      39.448   4.512  18.131  0.00  0.00    +0.000 A 
ATOM     12  C   UNL     1      39.321   4.914  20.512  0.00  0.00    +0.000 A 
ATOM     13  C   UNL     1      39.337   5.397  19.206  0.00  0.00    +0.000 A 
ENDROOT
BRANCH   7  14
ATOM     14  C   UNL     1      40.283   0.018  16.177  0.00  0.00    +0.000 C 
ATOM     15  O   UNL     1      39.555  -0.972  16.131  0.00  0.00    +0.000 OA
ATOM     16  N   UNL     1      41.216   0.367  15.235  0.00  0.00    +0.000 N 
ATOM     17  H   UNL     1      41.730   1.237  15.317  0.00  0.00    +0.000 HD
BRANCH  16  18
ATOM     18  C   UNL     1      41.525  -0.338  14.071  0.00  0.00    +0.000 A 
ATOM     19  N   UNL     1      42.427  -1.326  14.244  0.00  0.00    +0.000 NA
ATOM     20  C   UNL     1      42.760  -2.045  13.148  0.00  0.00    +0.000 A 
ATOM     21  C   UNL     1      42.237  -1.832  11.885  0.00  0.00    +0.000 A 
ATOM     22  C   UNL     1      41.309  -0.810  11.742  0.00  0.00    +0.000 A 
ATOM     23  C   UNL     1      40.943  -0.048  12.846  0.00  0.00    +0.000 A 
ENDBRANCH  16  18
ENDBRANCH   7  14
BRANCH   8  24
ATOM     24  O   UNL     1      39.209   2.712  16.018  0.00  0.00    +0.000 OA
ATOM     25  H   UNL     1      38.942   1.978  15.419  0.00  0.00    +0.000 HD
ENDBRANCH   8  24
TORSDOF 3
ENDMDL
MODEL 2
REMARK VINA RESULT:      -5.9     12.488     14.120
REMARK  Name = Piroxicam.pdbqt.pdb
REMARK  3 active torsions:
REMARK  status: ('A' for Active; 'I' for Inactive)
REMARK    1  A    between atoms: C_7  and  C_14
REMARK    2  A    between atoms: C_8  and  O_24
REMARK    3  A    between atoms: N_16  and  C_18
REMARK                            x       y       z     vdW  Elec       q    Type
REMARK                         _______ _______ _______ _____ _____    ______ ____
ROOT
ATOM      1  S   UNL     1      35.537   9.342  23.112  0.00  0.00    +0.000 S 
ATOM      2  O   UNL     1      35.847   8.680  21.859  0.00  0.00    +0.000 OA
ATOM      3  O   UNL     1      36.111   8.874  24.359  0.00  0.00    +0.000 OA
ATOM      4  N   UNL     1      35.814  11.032  22.922  0.00  0.00    +0.000 N 
ATOM      5  C   UNL     1      33.794   9.307  23.272  0.00  0.00    +0.000 A 
ATOM      6  C   UNL     1      33.064  10.264  22.569  0.00  0.00    +0.000 A 
ATOM      7  C   UNL     1      35.027  11.626  21.879  0.00  0.00    +0.000 C 
ATOM      8  C   UNL     1      33.735  11.260  21.712  0.00  0.00    +0.000 C 
ATOM      9  C   UNL     1      33.197   8.365  24.101  0.00  0.00    +0.000 A 
ATOM     10  C   UNL     1      35.870  11.877  24.127  0.00  0.00    +0.000 C 
ATOM     11  C   UNL     1      31.674  10.229  22.689  0.00  0.00    +0.000 A 
ATOM     12  C   UNL     1      31.811   8.359  24.214  0.00  0.00    +0.000 A 
ATOM     13  C   UNL     1      31.050   9.285  23.505  0.00  0.00    +0.000 A 
ENDROOT
BRANCH   7  14
ATOM     14  C   UNL     1      35.673  12.639  20.980  0.00  0.00    +0.000 C 
ATOM     15  O   UNL     1      36.285  12.257  19.984  0.00  0.00    +0.000 OA
ATOM     16  N   UNL     1      35.521  13.944  21.373  0.00  0.00    +0.000 N 
ATOM     17  H   UNL     1      34.945  14.177  22.173  0.00  0.00    +0.000 HD
BRANCH  16  18
ATOM     18  C   UNL     1      36.044  15.069  20.734  0.00  0.00    +0.000 A 
ATOM     19  N   UNL     1      35.145  16.050  20.515  0.00  0.00    +0.000 NA
ATOM     20  C   UNL     1      35.600  17.167  19.901  0.00  0.00    +0.000 A 
ATOM     21  C   UNL     1      36.909  17.357  19.496  0.00  0.00    +0.000 A 
ATOM     22  C   UNL     1      37.808  16.329  19.739  0.00  0.00    +0.000 A 
ATOM     23  C   UNL     1      37.378  15.166  20.366  0.00  0.00    +0.000 A 
ENDBRANCH  16  18
ENDBRANCH   7  14
BRANCH   8  24
ATOM     24  O   UNL     1      32.907  11.786  20.734  0.00  0.00    +0.000 OA
ATOM     25  H   UNL     1      32.220  12.353  21.153  0.00  0.00    +0.000 HD
ENDBRANCH   8  24
TORSDOF 3
ENDMDL
MODEL 3
REMARK VINA RESULT:      -5.9     25.206     26.377
REMARK  Name = Piroxicam.pdbqt.pdb
REMARK  3 active torsions:
REMARK  status: ('A' for Active; 'I' for Inactive)
REMARK    1  A    between atoms: C_7  and  C_14
REMARK    2  A    between atoms: C_8  and  O_24
REMARK    3  A    between atoms: N_16  and  C_18
REMARK                            x       y       z     vdW  Elec       q    Type
REMARK                         _______ _______ _______ _____ _____    ______ ____
ROOT
ATOM      1  S   UNL     1      38.937   2.714  -7.138  0.00  0.00    +0.000 S 
ATOM      2  O   UNL     1      39.202   1.723  -6.111  0.00  0.00    +0.000 OA
ATOM      3  O   UNL     1      38.265   3.956  -6.813  0.00  0.00    +0.000 OA
ATOM      4  N   UNL     1      40.403   3.028  -7.987  0.00  0.00    +0.000 N 
ATOM      5  C   UNL     1      38.004   1.902  -8.377  0.00  0.00    +0.000 A 
ATOM      6  C   UNL     1      38.698   1.116  -9.295  0.00  0.00    +0.000 A 
ATOM      7  C   UNL     1      40.969   1.862  -8.604  0.00  0.00    +0.000 C 
ATOM      8  C   UNL     1      40.164   0.961  -9.215  0.00  0.00    +0.000 C 
ATOM      9  C   UNL     1      36.627   2.083  -8.433  0.00  0.00    +0.000 A 
ATOM     10  C   UNL     1      40.470   4.210  -8.864  0.00  0.00    +0.000 C 
ATOM     11  C   UNL     1      37.953   0.461 -10.277  0.00  0.00    +0.000 A 
ATOM     12  C   UNL     1      35.908   1.431  -9.428  0.00  0.00    +0.000 A 
ATOM     13  C   UNL     1      36.568   0.616 -10.345  0.00  0.00    +0.000 A 
ENDROOT
BRANCH   7  14
ATOM     14  C   UNL     1      42.454   1.665  -8.540  0.00  0.00    +0.000 C 
ATOM     15  O   UNL     1      43.046   1.888  -7.486  0.00  0.00    +0.000 OA
ATOM     16  N   UNL     1      43.034   1.244  -9.709  0.00  0.00    +0.000 N 
ATOM     17  H   UNL     1      42.463   1.020 -10.516  0.00  0.00    +0.000 HD
BRANCH  16  18
ATOM     18  C   UNL     1      44.394   1.013  -9.924  0.00  0.00    +0.000 A 
ATOM     19  N   UNL     1      44.967   1.857 -10.806  0.00  0.00    +0.000 NA
ATOM     20  C   UNL     1      46.286   1.681 -11.049  0.00  0.00    +0.000 A 
ATOM     21  C   UNL     1      47.066   0.705 -10.455  0.00  0.00    +0.000 A 
ATOM     22  C   UNL     1      46.446  -0.145  -9.550  0.00  0.00    +0.000 A 
ATOM     23  C   UNL     1      45.092   0.004  -9.275  0.00  0.00    +0.000 A 
ENDBRANCH  16  18
ENDBRANCH   7  14
BRANCH   8  24
ATOM     24  O   UNL     1      40.628  -0.186  -9.836  0.00  0.00    +0.000 OA
ATOM     25  H   UNL     1      41.560  -0.355  -9.567  0.00  0.00    +0.000 HD
ENDBRANCH   8  24
TORSDOF 3
ENDMDL
MODEL 4
REMARK VINA RESULT:      -5.9     11.173     13.677
REMARK  Name = Piroxicam.pdbqt.pdb
REMARK  3 active torsions:
REMARK  status: ('A' for Active; 'I' for Inactive)
REMARK    1  A    between atoms: C_7  and  C_14
REMARK    2  A    between atoms: C_8  and  O_24
REMARK    3  A    between atoms: N_16  and  C_18
REMARK                            x       y       z     vdW  Elec       q    Type
REMARK                         _______ _______ _______ _____ _____    ______ ____
ROOT
ATOM      1  S   UNL     1      35.352   8.352  23.006  0.00  0.00    +0.000 S 
ATOM      2  O   UNL     1      36.122   8.442  21.779  0.00  0.00    +0.000 OA
ATOM      3  O   UNL     1      35.936   7.786  24.206  0.00  0.00    +0.000 OA
ATOM      4  N   UNL     1      34.673   9.899  23.341  0.00  0.00    +0.000 N 
ATOM      5  C   UNL     1      33.913   7.434  22.619  0.00  0.00    +0.000 A 
ATOM      6  C   UNL     1      32.866   8.111  21.995  0.00  0.00    +0.000 A 
ATOM      7  C   UNL     1      33.820  10.389  22.295  0.00  0.00    +0.000 C 
ATOM      8  C   UNL     1      32.974   9.544  21.660  0.00  0.00    +0.000 C 
ATOM      9  C   UNL     1      33.839   6.089  22.964  0.00  0.00    +0.000 A 
ATOM     10  C   UNL     1      34.110  10.148  24.679  0.00  0.00    +0.000 C 
ATOM     11  C   UNL     1      31.722   7.377  21.677  0.00  0.00    +0.000 A 
ATOM     12  C   UNL     1      32.684   5.383  22.649  0.00  0.00    +0.000 A 
ATOM     13  C   UNL     1      31.629   6.023  22.001  0.00  0.00    +0.000 A 
ENDROOT
BRANCH   7  14
ATOM     14  C   UNL     1      33.903  11.838  21.920  0.00  0.00    +0.000 C 
ATOM     15  O   UNL     1      32.918  12.392  21.435  0.00  0.00    +0.000 OA
ATOM     16  N   UNL     1      35.118  12.430  22.154  0.00  0.00    +0.000 N 
ATOM     17  H   UNL     1      35.859  11.917  22.619  0.00  0.00    +0.000 HD
BRANCH  16  18
ATOM     18  C   UNL     1      35.466  13.751  21.871  0.00  0.00    +0.000 A 
ATOM     19  N   UNL     1      34.982  14.653  22.749  0.00  0.00    +0.000 NA
ATOM     20  C   UNL     1      35.293  15.950  22.525  0.00  0.00    +0.000 A 
ATOM     21  C   UNL     1      36.066  16.395  21.468  0.00  0.00    +0.000 A 
ATOM     22  C   UNL     1      36.551  15.442  20.585  0.00  0.00    +0.000 A 
ATOM     23  C   UNL     1      36.252  14.099  20.782  0.00  0.00    +0.000 A 
ENDBRANCH  16  18
ENDBRANCH   7  14
BRANCH   8  24
ATOM     24  O   UNL     1      32.117   9.934  20.645  0.00  0.00    +0.000 OA
ATOM     25  H   UNL     1      31.357  10.431  21.026  0.00  0.00    +0.000 HD
ENDBRANCH   8  24
TORSDOF 3
ENDMDL
MODEL 5
REMARK VINA RESULT:      -5.6      4.909      7.804
REMARK  Name = Piroxicam.pdbqt.pdb
REMARK  3 active torsions:
REMARK  status: ('A' for Active; 'I' for Inactive)
REMARK    1  A    between atoms: C_7  and  C_14
REMARK    2  A    between atoms: C_8  and  O_24
REMARK    3  A    between atoms: N_16  and  C_18
REMARK                            x       y       z     vdW  Elec       q    Type
REMARK                         _______ _______ _______ _____ _____    ______ ____
ROOT
ATOM      1  S   UNL     1      43.431  -3.697  14.128  0.00  0.00    +0.000 S 
ATOM      2  O   UNL     1      44.807  -3.255  14.260  0.00  0.00    +0.000 OA
ATOM      3  O   UNL     1      43.103  -4.872  13.344  0.00  0.00    +0.000 OA
ATOM      4  N   UNL     1      42.739  -3.813  15.701  0.00  0.00    +0.000 N 
ATOM      5  C   UNL     1      42.538  -2.341  13.472  0.00  0.00    +0.000 A 
ATOM      6  C   UNL     1      42.146  -1.340  14.358  0.00  0.00    +0.000 A 
ATOM      7  C   UNL     1      42.759  -2.576  16.428  0.00  0.00    +0.000 C 
ATOM      8  C   UNL     1      42.484  -1.412  15.792  0.00  0.00    +0.000 C 
ATOM      9  C   UNL     1      42.223  -2.314  12.118  0.00  0.00    +0.000 A 
ATOM     10  C   UNL     1      41.462  -4.530  15.859  0.00  0.00    +0.000 C 
ATOM     11  C   UNL     1      41.443  -0.254  13.833  0.00  0.00    +0.000 A 
ATOM     12  C   UNL     1      41.511  -1.229  11.621  0.00  0.00    +0.000 A 
ATOM     13  C   UNL     1      41.126  -0.197  12.475  0.00  0.00    +0.000 A 
ENDROOT
BRANCH   7  14
ATOM     14  C   UNL     1      43.104  -2.605  17.887  0.00  0.00    +0.000 C 
ATOM     15  O   UNL     1      42.297  -3.075  18.687  0.00  0.00    +0.000 OA
ATOM     16  N   UNL     1      44.330  -2.080  18.204  0.00  0.00    +0.000 N 
ATOM     17  H   UNL     1      44.963  -1.772  17.474  0.00  0.00    +0.000 HD
BRANCH  16  18
ATOM     18  C   UNL     1      44.877  -1.962  19.482  0.00  0.00    +0.000 A 
ATOM     19  N   UNL     1      44.497  -0.853  20.148  0.00  0.00    +0.000 NA
ATOM     20  C   UNL     1      44.995  -0.690  21.396  0.00  0.00    +0.000 A 
ATOM     21  C   UNL     1      45.853  -1.580  22.016  0.00  0.00    +0.000 A 
ATOM     22  C   UNL     1      46.223  -2.713  21.304  0.00  0.00    +0.000 A 
ATOM     23  C   UNL     1      45.732  -2.914  20.019  0.00  0.00    +0.000 A 
ENDBRANCH  16  18
ENDBRANCH   7  14
BRANCH   8  24
ATOM     24  O   UNL     1      42.479  -0.178  16.419  0.00  0.00    +0.000 OA
ATOM     25  H   UNL     1      41.584   0.227  16.344  0.00  0.00    +0.000 HD
ENDBRANCH   8  24
TORSDOF 3
ENDMDL
MODEL 6
REMARK VINA RESULT:      -5.5     25.020     26.660
REMARK  Name = Piroxicam.pdbqt.pdb
REMARK  3 active torsions:
REMARK  status: ('A' for Active; 'I' for Inactive)
REMARK    1  A    between atoms: C_7  and  C_14
REMARK    2  A    between atoms: C_8  and  O_24
REMARK    3  A    between atoms: N_16  and  C_18
REMARK                            x       y       z     vdW  Elec       q    Type
REMARK                         _______ _______ _______ _____ _____    ______ ____
ROOT
ATOM      1  S   UNL     1      40.748   4.801  -8.935  0.00  0.00    +0.000 S 
ATOM      2  O   UNL     1      41.637   5.168  -7.848  0.00  0.00    +0.000 OA
ATOM      3  O   UNL     1      40.214   5.810  -9.828  0.00  0.00    +0.000 OA
ATOM      4  N   UNL     1      41.480   3.528  -9.835  0.00  0.00    +0.000 N 
ATOM      5  C   UNL     1      39.399   3.957  -8.204  0.00  0.00    +0.000 A 
ATOM      6  C   UNL     1      39.580   2.614  -7.878  0.00  0.00    +0.000 A 
ATOM      7  C   UNL     1      41.759   2.359  -9.051  0.00  0.00    +0.000 C 
ATOM      8  C   UNL     1      40.865   1.933  -8.127  0.00  0.00    +0.000 C 
ATOM      9  C   UNL     1      38.197   4.625  -7.999  0.00  0.00    +0.000 A 
ATOM     10  C   UNL     1      40.926   3.191 -11.158  0.00  0.00    +0.000 C 
ATOM     11  C   UNL     1      38.508   1.944  -7.287  0.00  0.00    +0.000 A 
ATOM     12  C   UNL     1      37.140   3.933  -7.420  0.00  0.00    +0.000 A 
ATOM     13  C   UNL     1      37.295   2.597  -7.059  0.00  0.00    +0.000 A 
ENDROOT
BRANCH   7  14
ATOM     14  C   UNL     1      43.057   1.641  -9.269  0.00  0.00    +0.000 C 
ATOM     15  O   UNL     1      43.636   1.139  -8.307  0.00  0.00    +0.000 OA
ATOM     16  N   UNL     1      43.497   1.616 -10.567  0.00  0.00    +0.000 N 
ATOM     17  H   UNL     1      42.924   1.998 -11.311  0.00  0.00    +0.000 HD
BRANCH  16  18
ATOM     18  C   UNL     1      44.680   1.042 -11.033  0.00  0.00    +0.000 A 
ATOM     19  N   UNL     1      45.785   1.777 -10.793  0.00  0.00    +0.000 NA
ATOM     20  C   UNL     1      46.962   1.265 -11.220  0.00  0.00    +0.000 A 
ATOM     21  C   UNL     1      47.095   0.052 -11.873  0.00  0.00    +0.000 A 
ATOM     22  C   UNL     1      45.939  -0.680 -12.101  0.00  0.00    +0.000 A 
ATOM     23  C   UNL     1      44.711  -0.186 -11.678  0.00  0.00    +0.000 A 
ENDBRANCH  16  18
ENDBRANCH   7  14
BRANCH   8  24
ATOM     24  O   UNL     1      41.055   0.815  -7.333  0.00  0.00    +0.000 OA
ATOM     25  H   UNL     1      40.804   0.006  -7.835  0.00  0.00    +0.000 HD
ENDBRANCH   8  24
TORSDOF 3
ENDMDL
MODEL 7
REMARK VINA RESULT:      -5.4     24.676     28.339
REMARK  Name = Piroxicam.pdbqt.pdb
REMARK  3 active torsions:
REMARK  status: ('A' for Active; 'I' for Inactive)
REMARK    1  A    between atoms: C_7  and  C_14
REMARK    2  A    between atoms: C_8  and  O_24
REMARK    3  A    between atoms: N_16  and  C_18
REMARK                            x       y       z     vdW  Elec       q    Type
REMARK                         _______ _______ _______ _____ _____    ______ ____
ROOT
ATOM      1  S   UNL     1      44.424   0.086 -11.383  0.00  0.00    +0.000 S 
ATOM      2  O   UNL     1      43.575   0.995 -12.130  0.00  0.00    +0.000 OA
ATOM      3  O   UNL     1      45.793   0.443 -11.066  0.00  0.00    +0.000 OA
ATOM      4  N   UNL     1      43.585  -0.402  -9.960  0.00  0.00    +0.000 N 
ATOM      5  C   UNL     1      44.451  -1.415 -12.283  0.00  0.00    +0.000 A 
ATOM      6  C   UNL     1      43.368  -2.278 -12.129  0.00  0.00    +0.000 A 
ATOM      7  C   UNL     1      42.334  -1.053 -10.227  0.00  0.00    +0.000 C 
ATOM      8  C   UNL     1      42.233  -1.931 -11.252  0.00  0.00    +0.000 C 
ATOM      9  C   UNL     1      45.544  -1.717 -13.088  0.00  0.00    +0.000 A 
ATOM     10  C   UNL     1      44.343  -1.073  -8.889  0.00  0.00    +0.000 C 
ATOM     11  C   UNL     1      43.385  -3.471 -12.854  0.00  0.00    +0.000 A 
ATOM     12  C   UNL     1      45.544  -2.916 -13.790  0.00  0.00    +0.000 A 
ATOM     13  C   UNL     1      44.464  -3.790 -13.679  0.00  0.00    +0.000 A 
ENDROOT
BRANCH   7  14
ATOM     14  C   UNL     1      41.154  -0.724  -9.362  0.00  0.00    +0.000 C 
ATOM     15  O   UNL     1      40.547  -1.633  -8.800  0.00  0.00    +0.000 OA
ATOM     16  N   UNL     1      40.848   0.611  -9.281  0.00  0.00    +0.000 N 
ATOM     17  H   UNL     1      41.441   1.302  -9.724  0.00  0.00    +0.000 HD
BRANCH  16  18
ATOM     18  C   UNL     1      39.789   1.177  -8.571  0.00  0.00    +0.000 A 
ATOM     19  N   UNL     1      40.076   1.470  -7.287  0.00  0.00    +0.000 NA
ATOM     20  C   UNL     1      39.085   2.026  -6.552  0.00  0.00    +0.000 A 
ATOM     21  C   UNL     1      37.820   2.308  -7.035  0.00  0.00    +0.000 A 
ATOM     22  C   UNL     1      37.558   1.997  -8.362  0.00  0.00    +0.000 A 
ATOM     23  C   UNL     1      38.551   1.424  -9.148  0.00  0.00    +0.000 A 
ENDBRANCH  16  18
ENDBRANCH   7  14
BRANCH   8  24
ATOM     24  O   UNL     1      41.067  -2.604 -11.575  0.00  0.00    +0.000 OA
ATOM     25  H   UNL     1      41.145  -2.988 -12.478  0.00  0.00    +0.000 HD
ENDBRANCH   8  24
TORSDOF 3
ENDMDL
MODEL 8
REMARK VINA RESULT:      -5.4     24.847     26.920
REMARK  Name = Piroxicam.pdbqt.pdb
REMARK  3 active torsions:
REMARK  status: ('A' for Active; 'I' for Inactive)
REMARK    1  A    between atoms: C_7  and  C_14
REMARK    2  A    between atoms: C_8  and  O_24
REMARK    3  A    between atoms: N_16  and  C_18
REMARK                            x       y       z     vdW  Elec       q    Type
REMARK                         _______ _______ _______ _____ _____    ______ ____
ROOT
ATOM      1  S   UNL     1      42.229   2.522 -10.975  0.00  0.00    +0.000 S 
ATOM      2  O   UNL     1      41.188   1.878 -11.754  0.00  0.00    +0.000 OA
ATOM      3  O   UNL     1      42.957   3.657 -11.507  0.00  0.00    +0.000 OA
ATOM      4  N   UNL     1      41.596   2.892  -9.416  0.00  0.00    +0.000 N 
ATOM      5  C   UNL     1      43.389   1.273 -10.575  0.00  0.00    +0.000 A 
ATOM      6  C   UNL     1      43.087   0.434  -9.505  0.00  0.00    +0.000 A 
ATOM      7  C   UNL     1      41.129   1.739  -8.699  0.00  0.00    +0.000 C 
ATOM      8  C   UNL     1      41.830   0.582  -8.747  0.00  0.00    +0.000 C 
ATOM      9  C   UNL     1      44.571   1.173 -11.300  0.00  0.00    +0.000 A 
ATOM     10  C   UNL     1      42.349   3.817  -8.551  0.00  0.00    +0.000 C 
ATOM     11  C   UNL     1      44.008  -0.568  -9.192  0.00  0.00    +0.000 A 
ATOM     12  C   UNL     1      45.478   0.175 -10.961  0.00  0.00    +0.000 A 
ATOM     13  C   UNL     1      45.195  -0.698  -9.913  0.00  0.00    +0.000 A 
ENDROOT
BRANCH   7  14
ATOM     14  C   UNL     1      39.851   1.847  -7.922  0.00  0.00    +0.000 C 
ATOM     15  O   UNL     1      39.793   1.370  -6.790  0.00  0.00    +0.000 OA
ATOM     16  N   UNL     1      38.827   2.485  -8.573  0.00  0.00    +0.000 N 
ATOM     17  H   UNL     1      38.980   2.908  -9.481  0.00  0.00    +0.000 HD
BRANCH  16  18
ATOM     18  C   UNL     1      37.536   2.692  -8.086  0.00  0.00    +0.000 A 
ATOM     19  N   UNL     1      36.612   1.847  -8.588  0.00  0.00    +0.000 NA
ATOM     20  C   UNL     1      35.342   2.001  -8.147  0.00  0.00    +0.000 A 
ATOM     21  C   UNL     1      34.946   2.955  -7.227  0.00  0.00    +0.000 A 
ATOM     22  C   UNL     1      35.921   3.807  -6.729  0.00  0.00    +0.000 A 
ATOM     23  C   UNL     1      37.237   3.680  -7.159  0.00  0.00    +0.000 A 
ENDBRANCH  16  18
ENDBRANCH   7  14
BRANCH   8  24
ATOM     24  O   UNL     1      41.451  -0.573  -8.083  0.00  0.00    +0.000 OA
ATOM     25  H   UNL     1      40.904  -1.133  -8.680  0.00  0.00    +0.000 HD
ENDBRANCH   8  24
TORSDOF 3
ENDMDL
MODEL 9
REMARK VINA RESULT:      -5.1     18.661     20.897
REMARK  Name = Piroxicam.pdbqt.pdb
REMARK  3 active torsions:
REMARK  status: ('A' for Active; 'I' for Inactive)
REMARK    1  A    between atoms: C_7  and  C_14
REMARK    2  A    between atoms: C_8  and  O_24
REMARK    3  A    between atoms: N_16  and  C_18
REMARK                            x       y       z     vdW  Elec       q    Type
REMARK                         _______ _______ _______ _____ _____    ______ ____
ROOT
ATOM      1  S   UNL     1      27.829  -4.578   0.831  0.00  0.00    +0.000 S 
ATOM      2  O   UNL     1      27.081  -3.402   1.236  0.00  0.00    +0.000 OA
ATOM      3  O   UNL     1      27.144  -5.804   0.472  0.00  0.00    +0.000 OA
ATOM      4  N   UNL     1      28.936  -4.123  -0.408  0.00  0.00    +0.000 N 
ATOM      5  C   UNL     1      28.930  -4.938   2.144  0.00  0.00    +0.000 A 
ATOM      6  C   UNL     1      30.108  -4.197   2.218  0.00  0.00    +0.000 A 
ATOM      7  C   UNL     1      29.862  -3.104  -0.003  0.00  0.00    +0.000 C 
ATOM      8  C   UNL     1      30.408  -3.138   1.235  0.00  0.00    +0.000 C 
ATOM      9  C   UNL     1      28.623  -5.953   3.043  0.00  0.00    +0.000 A 
ATOM     10  C   UNL     1      29.587  -5.184  -1.196  0.00  0.00    +0.000 C 
ATOM     11  C   UNL     1      30.981  -4.477   3.270  0.00  0.00    +0.000 A 
ATOM     12  C   UNL     1      29.515  -6.223   4.074  0.00  0.00    +0.000 A 
ATOM     13  C   UNL     1      30.689  -5.483   4.193  0.00  0.00    +0.000 A 
ENDROOT
BRANCH   7  14
ATOM     14  C   UNL     1      30.189  -2.006  -0.971  0.00  0.00    +0.000 C 
ATOM     15  O   UNL     1      29.570  -0.945  -0.910  0.00  0.00    +0.000 OA
ATOM     16  N   UNL     1      31.181  -2.301  -1.870  0.00  0.00    +0.000 N 
ATOM     17  H   UNL     1      31.687  -3.177  -1.809  0.00  0.00    +0.000 HD
BRANCH  16  18
ATOM     18  C   UNL     1      31.654  -1.470  -2.887  0.00  0.00    +0.000 A 
ATOM     19  N   UNL     1      31.110  -1.711  -4.097  0.00  0.00    +0.000 NA
ATOM     20  C   UNL     1      31.530  -0.930  -5.120  0.00  0.00    +0.000 A 
ATOM     21  C   UNL     1      32.465   0.082  -4.996  0.00  0.00    +0.000 A 
ATOM     22  C   UNL     1      33.003   0.305  -3.737  0.00  0.00    +0.000 A 
ATOM     23  C   UNL     1      32.596  -0.477  -2.662  0.00  0.00    +0.000 A 
ENDBRANCH  16  18
ENDBRANCH   7  14
BRANCH   8  24
ATOM     24  O   UNL     1      31.310  -2.197   1.703  0.00  0.00    +0.000 OA
ATOM     25  H   UNL     1      31.669  -1.678   0.947  0.00  0.00    +0.000 HD
ENDBRANCH   8  24
TORSDOF 3
ENDMDL
