MODEL 1
REMARK VINA RESULT:      -7.5      0.000      0.000
REMARK  Name = PKR_Inhibitor.pdbqt.pdb
REMARK  0 active torsions:
REMARK  status: ('A' for Active; 'I' for Inactive)
REMARK                            x       y       z     vdW  Elec       q    Type
REMARK                         _______ _______ _______ _____ _____    ______ ____
ROOT
ATOM      1  S   UNL     1      42.867  -2.065  15.844  0.00  0.00    +0.000 S 
ATOM      2  O   UNL     1      39.265   2.214  14.377  0.00  0.00    +0.000 OA
ATOM      3  N   UNL     1      40.229   0.757  12.812  0.00  0.00    +0.000 N 
ATOM      4  N   UNL     1      43.676  -3.410  13.769  0.00  0.00    +0.000 NA
ATOM      5  C   UNL     1      41.477  -0.591  14.166  0.00  0.00    +0.000 A 
ATOM      6  C   UNL     1      41.095  -0.326  12.827  0.00  0.00    +0.000 A 
ATOM      7  C   UNL     1      40.781   0.417  15.016  0.00  0.00    +0.000 C 
ATOM      8  C   UNL     1      42.329  -1.632  14.326  0.00  0.00    +0.000 A 
ATOM      9  C   UNL     1      39.978   1.274  14.083  0.00  0.00    +0.000 C 
ATOM     10  C   UNL     1      42.826  -2.418  13.309  0.00  0.00    +0.000 A 
ATOM     11  C   UNL     1      41.529  -1.047  11.718  0.00  0.00    +0.000 A 
ATOM     12  C   UNL     1      40.807   0.589  16.299  0.00  0.00    +0.000 C 
ATOM     13  C   UNL     1      42.415  -2.114  11.990  0.00  0.00    +0.000 A 
ATOM     14  C   UNL     1      43.763  -3.310  15.079  0.00  0.00    +0.000 A 
ATOM     15  H   UNL     1      39.809   1.149  11.980  0.00  0.00    +0.000 HD
ATOM     16  C   UNL     1      40.782   0.844  17.691  0.00  0.00    +0.000 C 
ATOM     17  N   UNL     1      40.063   1.838  18.293  0.00  0.00    +0.000 N 
ATOM     18  C   UNL     1      40.297   1.761  19.638  0.00  0.00    +0.000 C 
ATOM     19  H   UNL     1      39.466   2.512  17.835  0.00  0.00    +0.000 HD
ATOM     20  N   UNL     1      41.121   0.777  19.925  0.00  0.00    +0.000 NA
ATOM     21  C   UNL     1      41.430   0.198  18.718  0.00  0.00    +0.000 C 
ENDROOT
TORSDOF 0
ENDMDL
MODEL 2
REMARK VINA RESULT:      -6.8      1.779      5.302
REMARK  Name = PKR_Inhibitor.pdbqt.pdb
REMARK  0 active torsions:
REMARK  status: ('A' for Active; 'I' for Inactive)
REMARK                            x       y       z     vdW  Elec       q    Type
REMARK                         _______ _______ _______ _____ _____    ______ ____
ROOT
ATOM      1  S   UNL     1      42.014  -0.533  17.053  0.00  0.00    +0.000 S 
ATOM      2  O   UNL     1      41.792  -1.979  11.459  0.00  0.00    +0.000 OA
ATOM      3  N   UNL     1      40.561  -0.204  12.374  0.00  0.00    +0.000 N 
ATOM      4  N   UNL     1      40.479   1.496  17.594  0.00  0.00    +0.000 NA
ATOM      5  C   UNL     1      41.196  -0.303  14.563  0.00  0.00    +0.000 A 
ATOM      6  C   UNL     1      40.392   0.382  13.619  0.00  0.00    +0.000 A 
ATOM      7  C   UNL     1      41.899  -1.386  13.820  0.00  0.00    +0.000 C 
ATOM      8  C   UNL     1      41.125   0.171  15.830  0.00  0.00    +0.000 A 
ATOM      9  C   UNL     1      41.451  -1.279  12.392  0.00  0.00    +0.000 C 
ATOM     10  C   UNL     1      40.352   1.236  16.240  0.00  0.00    +0.000 A 
ATOM     11  C   UNL     1      39.571   1.469  13.910  0.00  0.00    +0.000 A 
ATOM     12  C   UNL     1      42.740  -2.278  14.237  0.00  0.00    +0.000 C 
ATOM     13  C   UNL     1      39.567   1.888  15.260  0.00  0.00    +0.000 A 
ATOM     14  C   UNL     1      41.325   0.628  18.109  0.00  0.00    +0.000 A 
ATOM     15  H   UNL     1      40.099   0.096  11.526  0.00  0.00    +0.000 HD
ATOM     16  C   UNL     1      43.662  -3.282  14.615  0.00  0.00    +0.000 C 
ATOM     17  N   UNL     1      44.209  -4.204  13.766  0.00  0.00    +0.000 N 
ATOM     18  C   UNL     1      45.047  -4.997  14.500  0.00  0.00    +0.000 C 
ATOM     19  H   UNL     1      44.031  -4.290  12.775  0.00  0.00    +0.000 HD
ATOM     20  N   UNL     1      45.065  -4.634  15.763  0.00  0.00    +0.000 NA
ATOM     21  C   UNL     1      44.205  -3.565  15.847  0.00  0.00    +0.000 C 
ENDROOT
TORSDOF 0
ENDMDL
MODEL 3
REMARK VINA RESULT:      -6.5      2.173      2.497
REMARK  Name = PKR_Inhibitor.pdbqt.pdb
REMARK  0 active torsions:
REMARK  status: ('A' for Active; 'I' for Inactive)
REMARK                            x       y       z     vdW  Elec       q    Type
REMARK                         _______ _______ _______ _____ _____    ______ ____
ROOT
ATOM      1  S   UNL     1      43.032  -3.739  15.112  0.00  0.00    +0.000 S 
ATOM      2  O   UNL     1      41.291   1.681  16.124  0.00  0.00    +0.000 OA
ATOM      3  N   UNL     1      40.826   0.537  14.129  0.00  0.00    +0.000 N 
ATOM      4  N   UNL     1      42.280  -4.580  12.767  0.00  0.00    +0.000 NA
ATOM      5  C   UNL     1      41.831  -1.474  14.523  0.00  0.00    +0.000 A 
ATOM      6  C   UNL     1      41.085  -0.714  13.589  0.00  0.00    +0.000 A 
ATOM      7  C   UNL     1      42.034  -0.604  15.716  0.00  0.00    +0.000 C 
ATOM      8  C   UNL     1      42.155  -2.726  14.120  0.00  0.00    +0.000 A 
ATOM      9  C   UNL     1      41.358   0.700  15.409  0.00  0.00    +0.000 C 
ATOM     10  C   UNL     1      41.815  -3.284  12.906  0.00  0.00    +0.000 A 
ATOM     11  C   UNL     1      40.683  -1.166  12.334  0.00  0.00    +0.000 A 
ATOM     12  C   UNL     1      42.651  -0.841  16.829  0.00  0.00    +0.000 C 
ATOM     13  C   UNL     1      41.069  -2.486  12.007  0.00  0.00    +0.000 A 
ATOM     14  C   UNL     1      42.928  -4.912  13.865  0.00  0.00    +0.000 A 
ATOM     15  H   UNL     1      40.309   1.271  13.665  0.00  0.00    +0.000 HD
ATOM     16  C   UNL     1      43.306  -1.022  18.071  0.00  0.00    +0.000 C 
ATOM     17  N   UNL     1      43.383  -0.082  19.061  0.00  0.00    +0.000 N 
ATOM     18  C   UNL     1      44.090  -0.629  20.095  0.00  0.00    +0.000 C 
ATOM     19  H   UNL     1      42.991   0.849  19.039  0.00  0.00    +0.000 HD
ATOM     20  N   UNL     1      44.467  -1.858  19.822  0.00  0.00    +0.000 NA
ATOM     21  C   UNL     1      43.983  -2.114  18.561  0.00  0.00    +0.000 C 
ENDROOT
TORSDOF 0
ENDMDL
MODEL 4
REMARK VINA RESULT:      -5.9     11.533     12.865
REMARK  Name = PKR_Inhibitor.pdbqt.pdb
REMARK  0 active torsions:
REMARK  status: ('A' for Active; 'I' for Inactive)
REMARK                            x       y       z     vdW  Elec       q    Type
REMARK                         _______ _______ _______ _____ _____    ______ ____
ROOT
ATOM      1  S   UNL     1      51.269   2.964   7.603  0.00  0.00    +0.000 S 
ATOM      2  O   UNL     1      50.570   6.269  12.296  0.00  0.00    +0.000 OA
ATOM      3  N   UNL     1      50.740   3.931  12.388  0.00  0.00    +0.000 N 
ATOM      4  N   UNL     1      51.405   0.437   8.206  0.00  0.00    +0.000 NA
ATOM      5  C   UNL     1      50.990   3.414  10.180  0.00  0.00    +0.000 A 
ATOM      6  C   UNL     1      50.905   2.886  11.492  0.00  0.00    +0.000 A 
ATOM      7  C   UNL     1      50.864   4.894  10.306  0.00  0.00    +0.000 C 
ATOM      8  C   UNL     1      51.153   2.495   9.199  0.00  0.00    +0.000 A 
ATOM      9  C   UNL     1      50.703   5.181  11.770  0.00  0.00    +0.000 C 
ATOM     10  C   UNL     1      51.239   1.133   9.391  0.00  0.00    +0.000 A 
ATOM     11  C   UNL     1      50.978   1.533  11.813  0.00  0.00    +0.000 A 
ATOM     12  C   UNL     1      50.881   5.815   9.397  0.00  0.00    +0.000 C 
ATOM     13  C   UNL     1      51.150   0.654  10.719  0.00  0.00    +0.000 A 
ATOM     14  C   UNL     1      51.433   1.303   7.213  0.00  0.00    +0.000 A 
ATOM     15  H   UNL     1      50.653   3.825  13.390  0.00  0.00    +0.000 HD
ATOM     16  C   UNL     1      50.887   6.880   8.464  0.00  0.00    +0.000 C 
ATOM     17  N   UNL     1      50.758   8.202   8.783  0.00  0.00    +0.000 N 
ATOM     18  C   UNL     1      50.813   8.916   7.618  0.00  0.00    +0.000 C 
ATOM     19  H   UNL     1      50.641   8.590   9.709  0.00  0.00    +0.000 HD
ATOM     20  N   UNL     1      50.971   8.126   6.579  0.00  0.00    +0.000 NA
ATOM     21  C   UNL     1      51.018   6.853   7.095  0.00  0.00    +0.000 C 
ENDROOT
TORSDOF 0
ENDMDL
MODEL 5
REMARK VINA RESULT:      -5.7     21.072     22.189
REMARK  Name = PKR_Inhibitor.pdbqt.pdb
REMARK  0 active torsions:
REMARK  status: ('A' for Active; 'I' for Inactive)
REMARK                            x       y       z     vdW  Elec       q    Type
REMARK                         _______ _______ _______ _____ _____    ______ ____
ROOT
ATOM      1  S   UNL     1      53.365  17.992  11.348  0.00  0.00    +0.000 S 
ATOM      2  O   UNL     1      48.839  17.999   7.750  0.00  0.00    +0.000 OA
ATOM      3  N   UNL     1      48.800  16.968   9.857  0.00  0.00    +0.000 N 
ATOM      4  N   UNL     1      52.846  16.728  13.562  0.00  0.00    +0.000 NA
ATOM      5  C   UNL     1      50.908  17.411  10.610  0.00  0.00    +0.000 A 
ATOM      6  C   UNL     1      49.673  16.789  10.920  0.00  0.00    +0.000 A 
ATOM      7  C   UNL     1      50.758  18.007   9.252  0.00  0.00    +0.000 C 
ATOM      8  C   UNL     1      51.860  17.311  11.569  0.00  0.00    +0.000 A 
ATOM      9  C   UNL     1      49.361  17.690   8.804  0.00  0.00    +0.000 C 
ATOM     10  C   UNL     1      51.706  16.670  12.779  0.00  0.00    +0.000 A 
ATOM     11  C   UNL     1      49.397  16.113  12.105  0.00  0.00    +0.000 A 
ATOM     12  C   UNL     1      51.602  18.676   8.534  0.00  0.00    +0.000 C 
ATOM     13  C   UNL     1      50.454  16.065  13.043  0.00  0.00    +0.000 A 
ATOM     14  C   UNL     1      53.770  17.398  12.904  0.00  0.00    +0.000 A 
ATOM     15  H   UNL     1      47.851  16.622   9.825  0.00  0.00    +0.000 HD
ATOM     16  C   UNL     1      52.466  19.412   7.688  0.00  0.00    +0.000 C 
ATOM     17  N   UNL     1      52.135  19.885   6.449  0.00  0.00    +0.000 N 
ATOM     18  C   UNL     1      53.226  20.540   5.951  0.00  0.00    +0.000 C 
ATOM     19  H   UNL     1      51.247  19.773   5.979  0.00  0.00    +0.000 HD
ATOM     20  N   UNL     1      54.230  20.512   6.800  0.00  0.00    +0.000 NA
ATOM     21  C   UNL     1      53.767  19.811   7.887  0.00  0.00    +0.000 C 
ENDROOT
TORSDOF 0
ENDMDL
MODEL 6
REMARK VINA RESULT:      -5.7     19.552     21.828
REMARK  Name = PKR_Inhibitor.pdbqt.pdb
REMARK  0 active torsions:
REMARK  status: ('A' for Active; 'I' for Inactive)
REMARK                            x       y       z     vdW  Elec       q    Type
REMARK                         _______ _______ _______ _____ _____    ______ ____
ROOT
ATOM      1  S   UNL     1      29.373  -2.329  -4.232  0.00  0.00    +0.000 S 
ATOM      2  O   UNL     1      34.292  -3.634  -1.488  0.00  0.00    +0.000 OA
ATOM      3  N   UNL     1      33.632  -1.433  -1.958  0.00  0.00    +0.000 N 
ATOM      4  N   UNL     1      29.074   0.239  -4.524  0.00  0.00    +0.000 NA
ATOM      5  C   UNL     1      31.644  -1.781  -3.023  0.00  0.00    +0.000 A 
ATOM      6  C   UNL     1      32.562  -0.800  -2.573  0.00  0.00    +0.000 A 
ATOM      7  C   UNL     1      32.215  -3.105  -2.646  0.00  0.00    +0.000 C 
ATOM      8  C   UNL     1      30.544  -1.296  -3.647  0.00  0.00    +0.000 A 
ATOM      9  C   UNL     1      33.515  -2.823  -1.952  0.00  0.00    +0.000 C 
ATOM     10  C   UNL     1      30.273   0.038  -3.861  0.00  0.00    +0.000 A 
ATOM     11  C   UNL     1      32.401   0.574  -2.730  0.00  0.00    +0.000 A 
ATOM     12  C   UNL     1      31.753  -4.300  -2.837  0.00  0.00    +0.000 C 
ATOM     13  C   UNL     1      31.220   0.979  -3.393  0.00  0.00    +0.000 A 
ATOM     14  C   UNL     1      28.527  -0.936  -4.763  0.00  0.00    +0.000 A 
ATOM     15  H   UNL     1      34.426  -0.959  -1.549  0.00  0.00    +0.000 HD
ATOM     16  C   UNL     1      31.319  -5.636  -3.007  0.00  0.00    +0.000 C 
ATOM     17  N   UNL     1      31.998  -6.742  -2.580  0.00  0.00    +0.000 N 
ATOM     18  C   UNL     1      31.261  -7.840  -2.927  0.00  0.00    +0.000 C 
ATOM     19  H   UNL     1      32.885  -6.754  -2.095  0.00  0.00    +0.000 HD
ATOM     20  N   UNL     1      30.154  -7.497  -3.548  0.00  0.00    +0.000 NA
ATOM     21  C   UNL     1      30.180  -6.124  -3.604  0.00  0.00    +0.000 C 
ENDROOT
TORSDOF 0
ENDMDL
MODEL 7
REMARK VINA RESULT:      -5.6     11.140     13.301
REMARK  Name = PKR_Inhibitor.pdbqt.pdb
REMARK  0 active torsions:
REMARK  status: ('A' for Active; 'I' for Inactive)
REMARK                            x       y       z     vdW  Elec       q    Type
REMARK                         _______ _______ _______ _____ _____    ______ ____
ROOT
ATOM      1  S   UNL     1      51.848   4.986   7.755  0.00  0.00    +0.000 S 
ATOM      2  O   UNL     1      48.666   0.681   9.938  0.00  0.00    +0.000 OA
ATOM      3  N   UNL     1      49.125   2.659  11.113  0.00  0.00    +0.000 N 
ATOM      4  N   UNL     1      52.081   6.968   9.426  0.00  0.00    +0.000 NA
ATOM      5  C   UNL     1      50.397   3.794   9.596  0.00  0.00    +0.000 A 
ATOM      6  C   UNL     1      49.822   3.836  10.892  0.00  0.00    +0.000 A 
ATOM      7  C   UNL     1      50.009   2.484   9.000  0.00  0.00    +0.000 C 
ATOM      8  C   UNL     1      51.112   4.890   9.248  0.00  0.00    +0.000 A 
ATOM      9  C   UNL     1      49.178   1.779  10.031  0.00  0.00    +0.000 C 
ATOM     10  C   UNL     1      51.307   5.999  10.043  0.00  0.00    +0.000 A 
ATOM     11  C   UNL     1      49.948   4.897  11.784  0.00  0.00    +0.000 A 
ATOM     12  C   UNL     1      50.287   1.978   7.841  0.00  0.00    +0.000 C 
ATOM     13  C   UNL     1      50.713   5.994  11.327  0.00  0.00    +0.000 A 
ATOM     14  C   UNL     1      52.414   6.535   8.227  0.00  0.00    +0.000 A 
ATOM     15  H   UNL     1      48.621   2.436  11.961  0.00  0.00    +0.000 HD
ATOM     16  C   UNL     1      50.546   1.356   6.597  0.00  0.00    +0.000 C 
ATOM     17  N   UNL     1      50.090   0.122   6.227  0.00  0.00    +0.000 N 
ATOM     18  C   UNL     1      50.548  -0.126   4.963  0.00  0.00    +0.000 C 
ATOM     19  H   UNL     1      49.519  -0.500   6.782  0.00  0.00    +0.000 HD
ATOM     20  N   UNL     1      51.266   0.876   4.508  0.00  0.00    +0.000 NA
ATOM     21  C   UNL     1      51.272   1.807   5.519  0.00  0.00    +0.000 C 
ENDROOT
TORSDOF 0
ENDMDL
MODEL 8
REMARK VINA RESULT:      -5.6     11.735     12.982
REMARK  Name = PKR_Inhibitor.pdbqt.pdb
REMARK  0 active torsions:
REMARK  status: ('A' for Active; 'I' for Inactive)
REMARK                            x       y       z     vdW  Elec       q    Type
REMARK                         _______ _______ _______ _____ _____    ______ ____
ROOT
ATOM      1  S   UNL     1      51.422   3.893   7.089  0.00  0.00    +0.000 S 
ATOM      2  O   UNL     1      50.117   5.467  12.497  0.00  0.00    +0.000 OA
ATOM      3  N   UNL     1      51.149   6.905  10.958  0.00  0.00    +0.000 N 
ATOM      4  N   UNL     1      52.554   5.823   5.761  0.00  0.00    +0.000 NA
ATOM      5  C   UNL     1      51.306   5.556   9.124  0.00  0.00    +0.000 A 
ATOM      6  C   UNL     1      51.581   6.847   9.641  0.00  0.00    +0.000 A 
ATOM      7  C   UNL     1      50.659   4.784  10.222  0.00  0.00    +0.000 C 
ATOM      8  C   UNL     1      51.680   5.361   7.837  0.00  0.00    +0.000 A 
ATOM      9  C   UNL     1      50.579   5.710  11.400  0.00  0.00    +0.000 C 
ATOM     10  C   UNL     1      52.285   6.302   7.032  0.00  0.00    +0.000 A 
ATOM     11  C   UNL     1      52.186   7.879   8.929  0.00  0.00    +0.000 A 
ATOM     12  C   UNL     1      50.224   3.565  10.243  0.00  0.00    +0.000 C 
ATOM     13  C   UNL     1      52.538   7.576   7.594  0.00  0.00    +0.000 A 
ATOM     14  C   UNL     1      52.141   4.575   5.689  0.00  0.00    +0.000 A 
ATOM     15  H   UNL     1      51.227   7.716  11.556  0.00  0.00    +0.000 HD
ATOM     16  C   UNL     1      49.727   2.244  10.348  0.00  0.00    +0.000 C 
ATOM     17  N   UNL     1      49.153   1.709  11.467  0.00  0.00    +0.000 N 
ATOM     18  C   UNL     1      48.802   0.420  11.176  0.00  0.00    +0.000 C 
ATOM     19  H   UNL     1      49.011   2.175  12.353  0.00  0.00    +0.000 HD
ATOM     20  N   UNL     1      49.118   0.105   9.939  0.00  0.00    +0.000 NA
ATOM     21  C   UNL     1      49.696   1.236   9.413  0.00  0.00    +0.000 C 
ENDROOT
TORSDOF 0
ENDMDL
MODEL 9
REMARK VINA RESULT:      -5.5     13.961     14.945
REMARK  Name = PKR_Inhibitor.pdbqt.pdb
REMARK  0 active torsions:
REMARK  status: ('A' for Active; 'I' for Inactive)
REMARK                            x       y       z     vdW  Elec       q    Type
REMARK                         _______ _______ _______ _____ _____    ______ ____
ROOT
ATOM      1  S   UNL     1      52.882   4.186   6.235  0.00  0.00    +0.000 S 
ATOM      2  O   UNL     1      50.581   8.927   8.614  0.00  0.00    +0.000 OA
ATOM      3  N   UNL     1      51.647   8.930   6.524  0.00  0.00    +0.000 N 
ATOM      4  N   UNL     1      53.951   4.683   3.916  0.00  0.00    +0.000 NA
ATOM      5  C   UNL     1      52.249   6.738   6.328  0.00  0.00    +0.000 A 
ATOM      6  C   UNL     1      52.277   8.009   5.701  0.00  0.00    +0.000 A 
ATOM      7  C   UNL     1      51.545   6.918   7.628  0.00  0.00    +0.000 C 
ATOM      8  C   UNL     1      52.836   5.738   5.627  0.00  0.00    +0.000 A 
ATOM      9  C   UNL     1      51.171   8.369   7.709  0.00  0.00    +0.000 C 
ATOM     10  C   UNL     1      53.434   5.875   4.393  0.00  0.00    +0.000 A 
ATOM     11  C   UNL     1      52.850   8.273   4.460  0.00  0.00    +0.000 A 
ATOM     12  C   UNL     1      51.269   6.058   8.556  0.00  0.00    +0.000 C 
ATOM     13  C   UNL     1      53.436   7.164   3.808  0.00  0.00    +0.000 A 
ATOM     14  C   UNL     1      53.714   3.740   4.804  0.00  0.00    +0.000 A 
ATOM     15  H   UNL     1      51.530   9.911   6.310  0.00  0.00    +0.000 HD
ATOM     16  C   UNL     1      50.931   5.181   9.614  0.00  0.00    +0.000 C 
ATOM     17  N   UNL     1      50.265   5.545  10.752  0.00  0.00    +0.000 N 
ATOM     18  C   UNL     1      50.128   4.426  11.526  0.00  0.00    +0.000 C 
ATOM     19  H   UNL     1      49.933   6.470  10.985  0.00  0.00    +0.000 HD
ATOM     20  N   UNL     1      50.666   3.375  10.948  0.00  0.00    +0.000 NA
ATOM     21  C   UNL     1      51.170   3.834   9.755  0.00  0.00    +0.000 C 
ENDROOT
TORSDOF 0
ENDMDL
