MODEL 1
REMARK VINA RESULT:      -7.6      0.000      0.000
REMARK  Name = 
REMARK  14 active torsions:
REMARK  status: ('A' for Active; 'I' for Inactive)
REMARK    1  A    between atoms: O_1  and  C_14
REMARK    2  A    between atoms: O_1  and  C_15
REMARK    3  A    between atoms: O_4  and  C_16
REMARK    4  A    between atoms: O_5  and  C_18
REMARK    5  A    between atoms: O_6  and  C_26
REMARK    6  A    between atoms: O_7  and  C_29
REMARK    7  A    between atoms: O_8  and  C_35
REMARK    8  A    between atoms: O_9  and  C_36
REMARK    9  A    between atoms: O_10  and  C_39
REMARK   10  A    between atoms: O_11  and  C_40
REMARK   11  A    between atoms: O_12  and  C_41
REMARK   12  A    between atoms: O_13  and  C_43
REMARK   13  A    between atoms: C_14  and  C_20
REMARK   14  A    between atoms: C_17  and  C_24
REMARK                            x       y       z     vdW  Elec       q    Type
REMARK                         _______ _______ _______ _____ _____    ______ ____
ROOT
ATOM      1  O   UNL     1      51.476   1.431   8.697  0.00  0.00    +0.000 OA
ATOM      2  C   UNL     1      50.472   0.755   7.928  0.00  0.00    +0.000 C 
ATOM      3  C   UNL     1      49.088   0.806   8.643  0.00  0.00    +0.000 C 
ATOM      4  C   UNL     1      49.194   0.237  10.055  0.00  0.00    +0.000 C 
ATOM      5  C   UNL     1      50.370   0.813  10.787  0.00  0.00    +0.000 A 
ATOM      6  C   UNL     1      51.433   1.359  10.062  0.00  0.00    +0.000 A 
ATOM      7  C   UNL     1      50.465   0.788  12.186  0.00  0.00    +0.000 A 
ATOM      8  C   UNL     1      52.549   1.879  10.721  0.00  0.00    +0.000 A 
ATOM      9  C   UNL     1      51.582   1.286  12.851  0.00  0.00    +0.000 A 
ATOM     10  C   UNL     1      52.617   1.834  12.109  0.00  0.00    +0.000 A 
ENDROOT
BRANCH   2  11
ATOM     11  C   UNL     1      50.859  -0.694   7.577  0.00  0.00    +0.000 A 
ATOM     12  C   UNL     1      49.904  -1.583   7.034  0.00  0.00    +0.000 A 
ATOM     13  C   UNL     1      52.173  -1.171   7.770  0.00  0.00    +0.000 A 
ATOM     14  C   UNL     1      50.261  -2.889   6.717  0.00  0.00    +0.000 A 
ATOM     15  C   UNL     1      52.518  -2.490   7.462  0.00  0.00    +0.000 A 
ATOM     16  C   UNL     1      51.556  -3.339   6.944  0.00  0.00    +0.000 A 
BRANCH  14  17
ATOM     17  O   UNL     1      49.378  -3.778   6.171  0.00  0.00    +0.000 OA
ATOM     18  H   UNL     1      49.827  -4.298   5.474  0.00  0.00    +0.000 HD
ENDBRANCH  14  17
BRANCH  16  19
ATOM     19  O   UNL     1      51.894  -4.626   6.639  0.00  0.00    +0.000 OA
ATOM     20  H   UNL     1      52.520  -4.887   7.344  0.00  0.00    +0.000 HD
ENDBRANCH  16  19
ENDBRANCH   2  11
BRANCH   3  21
ATOM     21  O   UNL     1      48.569   2.164   8.734  0.00  0.00    +0.000 OA
ATOM     22  H   UNL     1      48.173   2.340   7.857  0.00  0.00    +0.000 HD
ENDBRANCH   3  21
BRANCH   4  23
ATOM     23  O   UNL     1      47.989   0.531  10.782  0.00  0.00    +0.000 OA
ATOM     24  H   UNL     1      47.433  -0.271  10.658  0.00  0.00    +0.000 HD
ENDBRANCH   4  23
BRANCH   7  25
ATOM     25  O   UNL     1      49.456   0.289  12.966  0.00  0.00    +0.000 OA
ATOM     26  H   UNL     1      49.578   0.659  13.868  0.00  0.00    +0.000 HD
ENDBRANCH   7  25
BRANCH  10  27
ATOM     27  O   UNL     1      53.731   2.345  12.709  0.00  0.00    +0.000 OA
ATOM     28  H   UNL     1      54.142   1.642  13.241  0.00  0.00    +0.000 HD
ENDBRANCH  10  27
BRANCH   2  29
ATOM     29  O   UNL     1      50.242   1.520   6.711  0.00  0.00    +0.000 OA
BRANCH  29  31
ATOM     30  O   UNL     1      52.495   2.673   4.004  0.00  0.00    +0.000 OA
ATOM     31  C   UNL     1      51.367   2.234   6.162  0.00  0.00    +0.000 C 
ATOM     32  C   UNL     1      51.359   2.054   4.624  0.00  0.00    +0.000 C 
ATOM     33  C   UNL     1      51.279   3.737   6.449  0.00  0.00    +0.000 C 
ATOM     34  C   UNL     1      52.129   4.550   5.513  0.00  0.00    +0.000 A 
ATOM     35  C   UNL     1      52.682   3.980   4.363  0.00  0.00    +0.000 A 
ATOM     36  C   UNL     1      52.378   5.904   5.772  0.00  0.00    +0.000 A 
ATOM     37  C   UNL     1      53.503   4.729   3.516  0.00  0.00    +0.000 A 
ATOM     38  C   UNL     1      53.181   6.666   4.927  0.00  0.00    +0.000 A 
ATOM     39  C   UNL     1      53.742   6.067   3.806  0.00  0.00    +0.000 A 
BRANCH  32  40
ATOM     40  C   UNL     1      51.378   0.579   4.243  0.00  0.00    +0.000 A 
ATOM     41  C   UNL     1      50.225  -0.057   3.758  0.00  0.00    +0.000 A 
ATOM     42  C   UNL     1      52.584  -0.143   4.297  0.00  0.00    +0.000 A 
ATOM     43  C   UNL     1      50.297  -1.369   3.295  0.00  0.00    +0.000 A 
ATOM     44  C   UNL     1      52.645  -1.465   3.849  0.00  0.00    +0.000 A 
ATOM     45  C   UNL     1      51.502  -2.068   3.334  0.00  0.00    +0.000 A 
BRANCH  43  46
ATOM     46  O   UNL     1      49.201  -1.961   2.734  0.00  0.00    +0.000 OA
ATOM     47  H   UNL     1      49.491  -2.702   2.175  0.00  0.00    +0.000 HD
ENDBRANCH  43  46
BRANCH  45  48
ATOM     48  O   UNL     1      51.554  -3.337   2.832  0.00  0.00    +0.000 OA
ATOM     49  H   UNL     1      50.663  -3.603   2.551  0.00  0.00    +0.000 HD
ENDBRANCH  45  48
ENDBRANCH  32  40
BRANCH  36  50
ATOM     50  O   UNL     1      51.818   6.471   6.882  0.00  0.00    +0.000 OA
ATOM     51  H   UNL     1      50.959   6.856   6.640  0.00  0.00    +0.000 HD
ENDBRANCH  36  50
BRANCH  39  52
ATOM     52  O   UNL     1      54.530   6.839   3.002  0.00  0.00    +0.000 OA
ATOM     53  H   UNL     1      54.987   6.261   2.367  0.00  0.00    +0.000 HD
ENDBRANCH  39  52
ENDBRANCH  29  31
ENDBRANCH   2  29
TORSDOF 14
ENDMDL
MODEL 2
REMARK VINA RESULT:      -7.1     24.154     27.284
REMARK  Name = 
REMARK  14 active torsions:
REMARK  status: ('A' for Active; 'I' for Inactive)
REMARK    1  A    between atoms: O_1  and  C_14
REMARK    2  A    between atoms: O_1  and  C_15
REMARK    3  A    between atoms: O_4  and  C_16
REMARK    4  A    between atoms: O_5  and  C_18
REMARK    5  A    between atoms: O_6  and  C_26
REMARK    6  A    between atoms: O_7  and  C_29
REMARK    7  A    between atoms: O_8  and  C_35
REMARK    8  A    between atoms: O_9  and  C_36
REMARK    9  A    between atoms: O_10  and  C_39
REMARK   10  A    between atoms: O_11  and  C_40
REMARK   11  A    between atoms: O_12  and  C_41
REMARK   12  A    between atoms: O_13  and  C_43
REMARK   13  A    between atoms: C_14  and  C_20
REMARK   14  A    between atoms: C_17  and  C_24
REMARK                            x       y       z     vdW  Elec       q    Type
REMARK                         _______ _______ _______ _____ _____    ______ ____
ROOT
ATOM      1  O   UNL     1      32.898  15.199  23.019  0.00  0.00    +0.000 OA
ATOM      2  C   UNL     1      32.399  14.336  21.989  0.00  0.00    +0.000 C 
ATOM      3  C   UNL     1      31.067  14.885  21.393  0.00  0.00    +0.000 C 
ATOM      4  C   UNL     1      30.036  15.100  22.496  0.00  0.00    +0.000 C 
ATOM      5  C   UNL     1      30.629  15.841  23.658  0.00  0.00    +0.000 A 
ATOM      6  C   UNL     1      32.013  15.832  23.847  0.00  0.00    +0.000 A 
ATOM      7  C   UNL     1      29.836  16.517  24.597  0.00  0.00    +0.000 A 
ATOM      8  C   UNL     1      32.586  16.495  24.935  0.00  0.00    +0.000 A 
ATOM      9  C   UNL     1      30.395  17.164  25.695  0.00  0.00    +0.000 A 
ATOM     10  C   UNL     1      31.773  17.151  25.852  0.00  0.00    +0.000 A 
ENDROOT
BRANCH   2  11
ATOM     11  C   UNL     1      32.235  12.876  22.455  0.00  0.00    +0.000 A 
ATOM     12  C   UNL     1      32.345  12.542  23.824  0.00  0.00    +0.000 A 
ATOM     13  C   UNL     1      31.957  11.839  21.540  0.00  0.00    +0.000 A 
ATOM     14  C   UNL     1      32.193  11.222  24.238  0.00  0.00    +0.000 A 
ATOM     15  C   UNL     1      31.820  10.515  21.964  0.00  0.00    +0.000 A 
ATOM     16  C   UNL     1      31.946  10.218  23.309  0.00  0.00    +0.000 A 
BRANCH  14  17
ATOM     17  O   UNL     1      32.270  10.853  25.551  0.00  0.00    +0.000 OA
ATOM     18  H   UNL     1      32.891  10.103  25.644  0.00  0.00    +0.000 HD
ENDBRANCH  14  17
BRANCH  16  19
ATOM     19  O   UNL     1      31.809   8.925  23.725  0.00  0.00    +0.000 OA
ATOM     20  H   UNL     1      32.688   8.524  23.568  0.00  0.00    +0.000 HD
ENDBRANCH  16  19
ENDBRANCH   2  11
BRANCH   3  21
ATOM     21  O   UNL     1      31.261  16.147  20.694  0.00  0.00    +0.000 OA
ATOM     22  H   UNL     1      31.394  16.809  21.403  0.00  0.00    +0.000 HD
ENDBRANCH   3  21
BRANCH   4  23
ATOM     23  O   UNL     1      28.923  15.844  21.974  0.00  0.00    +0.000 OA
ATOM     24  H   UNL     1      29.141  15.965  21.022  0.00  0.00    +0.000 HD
ENDBRANCH   4  23
BRANCH   7  25
ATOM     25  O   UNL     1      28.474  16.589  24.468  0.00  0.00    +0.000 OA
ATOM     26  H   UNL     1      28.210  15.906  23.813  0.00  0.00    +0.000 HD
ENDBRANCH   7  25
BRANCH  10  27
ATOM     27  O   UNL     1      32.376  17.776  26.905  0.00  0.00    +0.000 OA
ATOM     28  H   UNL     1      32.082  18.703  26.920  0.00  0.00    +0.000 HD
ENDBRANCH  10  27
BRANCH   2  29
ATOM     29  O   UNL     1      33.316  14.399  20.860  0.00  0.00    +0.000 OA
BRANCH  29  31
ATOM     30  O   UNL     1      36.951  15.112  20.903  0.00  0.00    +0.000 OA
ATOM     31  C   UNL     1      34.483  15.231  21.008  0.00  0.00    +0.000 C 
ATOM     32  C   UNL     1      35.737  14.375  20.703  0.00  0.00    +0.000 C 
ATOM     33  C   UNL     1      34.473  16.402  20.020  0.00  0.00    +0.000 C 
ATOM     34  C   UNL     1      35.844  16.983  19.806  0.00  0.00    +0.000 A 
ATOM     35  C   UNL     1      36.987  16.316  20.255  0.00  0.00    +0.000 A 
ATOM     36  C   UNL     1      36.003  18.206  19.142  0.00  0.00    +0.000 A 
ATOM     37  C   UNL     1      38.255  16.878  20.088  0.00  0.00    +0.000 A 
ATOM     38  C   UNL     1      37.263  18.769  18.955  0.00  0.00    +0.000 A 
ATOM     39  C   UNL     1      38.381  18.099  19.437  0.00  0.00    +0.000 A 
BRANCH  32  40
ATOM     40  C   UNL     1      35.795  13.146  21.600  0.00  0.00    +0.000 A 
ATOM     41  C   UNL     1      35.914  13.273  22.993  0.00  0.00    +0.000 A 
ATOM     42  C   UNL     1      35.645  11.863  21.042  0.00  0.00    +0.000 A 
ATOM     43  C   UNL     1      35.834  12.142  23.803  0.00  0.00    +0.000 A 
ATOM     44  C   UNL     1      35.585  10.731  21.859  0.00  0.00    +0.000 A 
ATOM     45  C   UNL     1      35.665  10.879  23.240  0.00  0.00    +0.000 A 
BRANCH  43  46
ATOM     46  O   UNL     1      35.854  12.269  25.163  0.00  0.00    +0.000 OA
ATOM     47  H   UNL     1      35.939  11.388  25.563  0.00  0.00    +0.000 HD
ENDBRANCH  43  46
BRANCH  45  48
ATOM     48  O   UNL     1      35.545   9.794  24.061  0.00  0.00    +0.000 OA
ATOM     49  H   UNL     1      36.337   9.238  23.969  0.00  0.00    +0.000 HD
ENDBRANCH  45  48
ENDBRANCH  32  40
BRANCH  36  50
ATOM     50  O   UNL     1      34.888  18.848  18.679  0.00  0.00    +0.000 OA
ATOM     51  H   UNL     1      34.962  19.796  18.887  0.00  0.00    +0.000 HD
ENDBRANCH  36  50
BRANCH  39  52
ATOM     52  O   UNL     1      39.600  18.680  19.245  0.00  0.00    +0.000 OA
ATOM     53  H   UNL     1      40.191  18.413  19.970  0.00  0.00    +0.000 HD
ENDBRANCH  39  52
ENDBRANCH  29  31
ENDBRANCH   2  29
TORSDOF 14
ENDMDL
MODEL 3
REMARK VINA RESULT:      -7.0      4.768      9.103
REMARK  Name = 
REMARK  14 active torsions:
REMARK  status: ('A' for Active; 'I' for Inactive)
REMARK    1  A    between atoms: O_1  and  C_14
REMARK    2  A    between atoms: O_1  and  C_15
REMARK    3  A    between atoms: O_4  and  C_16
REMARK    4  A    between atoms: O_5  and  C_18
REMARK    5  A    between atoms: O_6  and  C_26
REMARK    6  A    between atoms: O_7  and  C_29
REMARK    7  A    between atoms: O_8  and  C_35
REMARK    8  A    between atoms: O_9  and  C_36
REMARK    9  A    between atoms: O_10  and  C_39
REMARK   10  A    between atoms: O_11  and  C_40
REMARK   11  A    between atoms: O_12  and  C_41
REMARK   12  A    between atoms: O_13  and  C_43
REMARK   13  A    between atoms: C_14  and  C_20
REMARK   14  A    between atoms: C_17  and  C_24
REMARK                            x       y       z     vdW  Elec       q    Type
REMARK                         _______ _______ _______ _____ _____    ______ ____
ROOT
ATOM      1  O   UNL     1      52.542   3.440   9.660  0.00  0.00    +0.000 OA
ATOM      2  C   UNL     1      52.130   4.558  10.458  0.00  0.00    +0.000 C 
ATOM      3  C   UNL     1      50.872   4.207  11.309  0.00  0.00    +0.000 C 
ATOM      4  C   UNL     1      49.743   3.707  10.414  0.00  0.00    +0.000 C 
ATOM      5  C   UNL     1      50.233   2.670   9.448  0.00  0.00    +0.000 A 
ATOM      6  C   UNL     1      51.592   2.614   9.128  0.00  0.00    +0.000 A 
ATOM      7  C   UNL     1      49.365   1.769   8.812  0.00  0.00    +0.000 A 
ATOM      8  C   UNL     1      52.068   1.671   8.213  0.00  0.00    +0.000 A 
ATOM      9  C   UNL     1      49.826   0.840   7.884  0.00  0.00    +0.000 A 
ATOM     10  C   UNL     1      51.182   0.797   7.595  0.00  0.00    +0.000 A 
ENDROOT
BRANCH   2  11
ATOM     11  C   UNL     1      51.895   5.835   9.628  0.00  0.00    +0.000 A 
ATOM     12  C   UNL     1      51.360   6.996  10.229  0.00  0.00    +0.000 A 
ATOM     13  C   UNL     1      52.219   5.889   8.255  0.00  0.00    +0.000 A 
ATOM     14  C   UNL     1      51.153   8.146   9.474  0.00  0.00    +0.000 A 
ATOM     15  C   UNL     1      51.994   7.044   7.502  0.00  0.00    +0.000 A 
ATOM     16  C   UNL     1      51.457   8.160   8.117  0.00  0.00    +0.000 A 
BRANCH  14  17
ATOM     17  O   UNL     1      50.657   9.299  10.015  0.00  0.00    +0.000 OA
ATOM     18  H   UNL     1      50.606   9.208  10.988  0.00  0.00    +0.000 HD
ENDBRANCH  14  17
BRANCH  16  19
ATOM     19  O   UNL     1      51.240   9.291   7.383  0.00  0.00    +0.000 OA
ATOM     20  H   UNL     1      50.659   8.998   6.652  0.00  0.00    +0.000 HD
ENDBRANCH  16  19
ENDBRANCH   2  11
BRANCH   3  21
ATOM     21  O   UNL     1      51.155   3.183  12.305  0.00  0.00    +0.000 OA
ATOM     22  H   UNL     1      50.317   3.073  12.797  0.00  0.00    +0.000 HD
ENDBRANCH   3  21
BRANCH   4  23
ATOM     23  O   UNL     1      48.699   3.145  11.227  0.00  0.00    +0.000 OA
ATOM     24  H   UNL     1      48.928   3.428  12.141  0.00  0.00    +0.000 HD
ENDBRANCH   4  23
BRANCH   7  25
ATOM     25  O   UNL     1      48.024   1.749   9.089  0.00  0.00    +0.000 OA
ATOM     26  H   UNL     1      47.567   1.427   8.281  0.00  0.00    +0.000 HD
ENDBRANCH   7  25
BRANCH  10  27
ATOM     27  O   UNL     1      51.690  -0.099   6.700  0.00  0.00    +0.000 OA
ATOM     28  H   UNL     1      51.015  -0.778   6.528  0.00  0.00    +0.000 HD
ENDBRANCH  10  27
BRANCH   2  29
ATOM     29  O   UNL     1      53.153   4.799  11.465  0.00  0.00    +0.000 OA
BRANCH  29  31
ATOM     30  O   UNL     1      55.756   7.295  12.312  0.00  0.00    +0.000 OA
ATOM     31  C   UNL     1      54.133   5.814  11.175  0.00  0.00    +0.000 C 
ATOM     32  C   UNL     1      54.816   6.229  12.502  0.00  0.00    +0.000 C 
ATOM     33  C   UNL     1      55.228   5.294  10.237  0.00  0.00    +0.000 C 
ATOM     34  C   UNL     1      56.481   6.123  10.303  0.00  0.00    +0.000 A 
ATOM     35  C   UNL     1      56.670   7.064  11.320  0.00  0.00    +0.000 A 
ATOM     36  C   UNL     1      57.491   5.962   9.347  0.00  0.00    +0.000 A 
ATOM     37  C   UNL     1      57.818   7.859  11.355  0.00  0.00    +0.000 A 
ATOM     38  C   UNL     1      58.648   6.737   9.381  0.00  0.00    +0.000 A 
ATOM     39  C   UNL     1      58.798   7.685  10.385  0.00  0.00    +0.000 A 
BRANCH  32  40
ATOM     40  C   UNL     1      53.790   6.701  13.524  0.00  0.00    +0.000 A 
ATOM     41  C   UNL     1      52.595   7.315  13.118  0.00  0.00    +0.000 A 
ATOM     42  C   UNL     1      53.996   6.448  14.893  0.00  0.00    +0.000 A 
ATOM     43  C   UNL     1      51.615   7.621  14.059  0.00  0.00    +0.000 A 
ATOM     44  C   UNL     1      53.017   6.775  15.834  0.00  0.00    +0.000 A 
ATOM     45  C   UNL     1      51.822   7.347  15.410  0.00  0.00    +0.000 A 
BRANCH  43  46
ATOM     46  O   UNL     1      50.413   8.131  13.659  0.00  0.00    +0.000 OA
ATOM     47  H   UNL     1      50.134   7.683  12.843  0.00  0.00    +0.000 HD
ENDBRANCH  43  46
BRANCH  45  48
ATOM     48  O   UNL     1      50.826   7.616  16.305  0.00  0.00    +0.000 OA
ATOM     49  H   UNL     1      51.219   7.775  17.179  0.00  0.00    +0.000 HD
ENDBRANCH  45  48
ENDBRANCH  32  40
BRANCH  36  50
ATOM     50  O   UNL     1      57.321   5.025   8.367  0.00  0.00    +0.000 OA
ATOM     51  H   UNL     1      56.403   5.067   8.048  0.00  0.00    +0.000 HD
ENDBRANCH  36  50
BRANCH  39  52
ATOM     52  O   UNL     1      59.939   8.433  10.386  0.00  0.00    +0.000 OA
ATOM     53  H   UNL     1      60.705   7.834  10.391  0.00  0.00    +0.000 HD
ENDBRANCH  39  52
ENDBRANCH  29  31
ENDBRANCH   2  29
TORSDOF 14
ENDMDL
MODEL 4
REMARK VINA RESULT:      -7.0      2.186      6.714
REMARK  Name = 
REMARK  14 active torsions:
REMARK  status: ('A' for Active; 'I' for Inactive)
REMARK    1  A    between atoms: O_1  and  C_14
REMARK    2  A    between atoms: O_1  and  C_15
REMARK    3  A    between atoms: O_4  and  C_16
REMARK    4  A    between atoms: O_5  and  C_18
REMARK    5  A    between atoms: O_6  and  C_26
REMARK    6  A    between atoms: O_7  and  C_29
REMARK    7  A    between atoms: O_8  and  C_35
REMARK    8  A    between atoms: O_9  and  C_36
REMARK    9  A    between atoms: O_10  and  C_39
REMARK   10  A    between atoms: O_11  and  C_40
REMARK   11  A    between atoms: O_12  and  C_41
REMARK   12  A    between atoms: O_13  and  C_43
REMARK   13  A    between atoms: C_14  and  C_20
REMARK   14  A    between atoms: C_17  and  C_24
REMARK                            x       y       z     vdW  Elec       q    Type
REMARK                         _______ _______ _______ _____ _____    ______ ____
ROOT
ATOM      1  O   UNL     1      51.527   1.714   6.299  0.00  0.00    +0.000 OA
ATOM      2  C   UNL     1      52.108   1.680   7.610  0.00  0.00    +0.000 C 
ATOM      3  C   UNL     1      53.216   0.587   7.705  0.00  0.00    +0.000 C 
ATOM      4  C   UNL     1      52.660  -0.774   7.299  0.00  0.00    +0.000 C 
ATOM      5  C   UNL     1      51.886  -0.687   6.018  0.00  0.00    +0.000 A 
ATOM      6  C   UNL     1      51.364   0.544   5.611  0.00  0.00    +0.000 A 
ATOM      7  C   UNL     1      51.626  -1.812   5.222  0.00  0.00    +0.000 A 
ATOM      8  C   UNL     1      50.620   0.646   4.433  0.00  0.00    +0.000 A 
ATOM      9  C   UNL     1      50.869  -1.724   4.057  0.00  0.00    +0.000 A 
ATOM     10  C   UNL     1      50.374  -0.488   3.669  0.00  0.00    +0.000 A 
ENDROOT
BRANCH   2  11
ATOM     11  C   UNL     1      51.061   1.503   8.727  0.00  0.00    +0.000 A 
ATOM     12  C   UNL     1      51.448   1.524  10.086  0.00  0.00    +0.000 A 
ATOM     13  C   UNL     1      49.693   1.331   8.430  0.00  0.00    +0.000 A 
ATOM     14  C   UNL     1      50.497   1.367  11.089  0.00  0.00    +0.000 A 
ATOM     15  C   UNL     1      48.747   1.159   9.445  0.00  0.00    +0.000 A 
ATOM     16  C   UNL     1      49.160   1.172  10.764  0.00  0.00    +0.000 A 
BRANCH  14  17
ATOM     17  O   UNL     1      50.819   1.401  12.416  0.00  0.00    +0.000 OA
ATOM     18  H   UNL     1      50.616   0.535  12.824  0.00  0.00    +0.000 HD
ENDBRANCH  14  17
BRANCH  16  19
ATOM     19  O   UNL     1      48.235   1.008  11.756  0.00  0.00    +0.000 OA
ATOM     20  H   UNL     1      48.384   1.768  12.355  0.00  0.00    +0.000 HD
ENDBRANCH  16  19
ENDBRANCH   2  11
BRANCH   3  21
ATOM     21  O   UNL     1      54.356   0.889   6.851  0.00  0.00    +0.000 OA
ATOM     22  H   UNL     1      54.296   1.852   6.684  0.00  0.00    +0.000 HD
ENDBRANCH   3  21
BRANCH   4  23
ATOM     23  O   UNL     1      53.743  -1.707   7.140  0.00  0.00    +0.000 OA
ATOM     24  H   UNL     1      54.432  -1.381   7.761  0.00  0.00    +0.000 HD
ENDBRANCH   4  23
BRANCH   7  25
ATOM     25  O   UNL     1      52.121  -3.048   5.543  0.00  0.00    +0.000 OA
ATOM     26  H   UNL     1      51.609  -3.708   5.025  0.00  0.00    +0.000 HD
ENDBRANCH   7  25
BRANCH  10  27
ATOM     27  O   UNL     1      49.634  -0.343   2.532  0.00  0.00    +0.000 OA
ATOM     28  H   UNL     1      48.974   0.354   2.682  0.00  0.00    +0.000 HD
ENDBRANCH  10  27
BRANCH   2  29
ATOM     29  O   UNL     1      52.849   2.917   7.811  0.00  0.00    +0.000 OA
BRANCH  29  31
ATOM     30  O   UNL     1      52.034   6.505   7.373  0.00  0.00    +0.000 OA
ATOM     31  C   UNL     1      52.401   4.076   7.081  0.00  0.00    +0.000 C 
ATOM     32  C   UNL     1      52.533   5.315   8.000  0.00  0.00    +0.000 C 
ATOM     33  C   UNL     1      53.260   4.331   5.838  0.00  0.00    +0.000 C 
ATOM     34  C   UNL     1      53.149   5.747   5.345  0.00  0.00    +0.000 A 
ATOM     35  C   UNL     1      52.549   6.738   6.127  0.00  0.00    +0.000 A 
ATOM     36  C   UNL     1      53.654   6.104   4.088  0.00  0.00    +0.000 A 
ATOM     37  C   UNL     1      52.413   8.043   5.649  0.00  0.00    +0.000 A 
ATOM     38  C   UNL     1      53.540   7.406   3.607  0.00  0.00    +0.000 A 
ATOM     39  C   UNL     1      52.913   8.365   4.392  0.00  0.00    +0.000 A 
BRANCH  32  40
ATOM     40  C   UNL     1      51.758   5.123   9.297  0.00  0.00    +0.000 A 
ATOM     41  C   UNL     1      52.416   5.116  10.537  0.00  0.00    +0.000 A 
ATOM     42  C   UNL     1      50.355   5.033   9.269  0.00  0.00    +0.000 A 
ATOM     43  C   UNL     1      51.676   5.069  11.717  0.00  0.00    +0.000 A 
ATOM     44  C   UNL     1      49.619   4.966  10.455  0.00  0.00    +0.000 A 
ATOM     45  C   UNL     1      50.285   5.001  11.677  0.00  0.00    +0.000 A 
BRANCH  43  46
ATOM     46  O   UNL     1      52.304   5.158  12.926  0.00  0.00    +0.000 OA
ATOM     47  H   UNL     1      52.748   6.020  12.991  0.00  0.00    +0.000 HD
ENDBRANCH  43  46
BRANCH  45  48
ATOM     48  O   UNL     1      49.583   5.000  12.848  0.00  0.00    +0.000 OA
ATOM     49  H   UNL     1      48.721   4.578  12.701  0.00  0.00    +0.000 HD
ENDBRANCH  45  48
ENDBRANCH  32  40
BRANCH  36  50
ATOM     50  O   UNL     1      54.265   5.143   3.332  0.00  0.00    +0.000 OA
ATOM     51  H   UNL     1      55.179   5.030   3.643  0.00  0.00    +0.000 HD
ENDBRANCH  36  50
BRANCH  39  52
ATOM     52  O   UNL     1      52.810   9.629   3.889  0.00  0.00    +0.000 OA
ATOM     53  H   UNL     1      53.277  10.241   4.484  0.00  0.00    +0.000 HD
ENDBRANCH  39  52
ENDBRANCH  29  31
ENDBRANCH   2  29
TORSDOF 14
ENDMDL
MODEL 5
REMARK VINA RESULT:      -6.8     11.542     15.652
REMARK  Name = 
REMARK  14 active torsions:
REMARK  status: ('A' for Active; 'I' for Inactive)
REMARK    1  A    between atoms: O_1  and  C_14
REMARK    2  A    between atoms: O_1  and  C_15
REMARK    3  A    between atoms: O_4  and  C_16
REMARK    4  A    between atoms: O_5  and  C_18
REMARK    5  A    between atoms: O_6  and  C_26
REMARK    6  A    between atoms: O_7  and  C_29
REMARK    7  A    between atoms: O_8  and  C_35
REMARK    8  A    between atoms: O_9  and  C_36
REMARK    9  A    between atoms: O_10  and  C_39
REMARK   10  A    between atoms: O_11  and  C_40
REMARK   11  A    between atoms: O_12  and  C_41
REMARK   12  A    between atoms: O_13  and  C_43
REMARK   13  A    between atoms: C_14  and  C_20
REMARK   14  A    between atoms: C_17  and  C_24
REMARK                            x       y       z     vdW  Elec       q    Type
REMARK                         _______ _______ _______ _____ _____    ______ ____
ROOT
ATOM      1  O   UNL     1      39.899  -4.482  16.085  0.00  0.00    +0.000 OA
ATOM      2  C   UNL     1      40.803  -3.447  16.494  0.00  0.00    +0.000 C 
ATOM      3  C   UNL     1      40.893  -3.363  18.048  0.00  0.00    +0.000 C 
ATOM      4  C   UNL     1      39.507  -3.173  18.655  0.00  0.00    +0.000 C 
ATOM      5  C   UNL     1      38.520  -4.141  18.073  0.00  0.00    +0.000 A 
ATOM      6  C   UNL     1      38.776  -4.719  16.827  0.00  0.00    +0.000 A 
ATOM      7  C   UNL     1      37.317  -4.462  18.718  0.00  0.00    +0.000 A 
ATOM      8  C   UNL     1      37.861  -5.606  16.254  0.00  0.00    +0.000 A 
ATOM      9  C   UNL     1      36.389  -5.328  18.147  0.00  0.00    +0.000 A 
ATOM     10  C   UNL     1      36.674  -5.899  16.915  0.00  0.00    +0.000 A 
ENDROOT
BRANCH   2  11
ATOM     11  C   UNL     1      40.459  -2.073  15.887  0.00  0.00    +0.000 A 
ATOM     12  C   UNL     1      41.267  -0.945  16.154  0.00  0.00    +0.000 A 
ATOM     13  C   UNL     1      39.344  -1.904  15.038  0.00  0.00    +0.000 A 
ATOM     14  C   UNL     1      40.951   0.291  15.600  0.00  0.00    +0.000 A 
ATOM     15  C   UNL     1      39.028  -0.654  14.498  0.00  0.00    +0.000 A 
ATOM     16  C   UNL     1      39.831   0.433  14.790  0.00  0.00    +0.000 A 
BRANCH  14  17
ATOM     17  O   UNL     1      41.713   1.406  15.813  0.00  0.00    +0.000 OA
ATOM     18  H   UNL     1      41.783   1.575  16.774  0.00  0.00    +0.000 HD
ENDBRANCH  14  17
BRANCH  16  19
ATOM     19  O   UNL     1      39.525   1.653  14.259  0.00  0.00    +0.000 OA
ATOM     20  H   UNL     1      40.311   1.891  13.726  0.00  0.00    +0.000 HD
ENDBRANCH  16  19
ENDBRANCH   2  11
BRANCH   3  21
ATOM     21  O   UNL     1      41.486  -4.561  18.627  0.00  0.00    +0.000 OA
ATOM     22  H   UNL     1      42.314  -4.699  18.123  0.00  0.00    +0.000 HD
ENDBRANCH   3  21
BRANCH   4  23
ATOM     23  O   UNL     1      39.576  -3.360  20.079  0.00  0.00    +0.000 OA
ATOM     24  H   UNL     1      39.516  -2.449  20.444  0.00  0.00    +0.000 HD
ENDBRANCH   4  23
BRANCH   7  25
ATOM     25  O   UNL     1      37.005  -3.952  19.950  0.00  0.00    +0.000 OA
ATOM     26  H   UNL     1      37.414  -3.060  20.006  0.00  0.00    +0.000 HD
ENDBRANCH   7  25
BRANCH  10  27
ATOM     27  O   UNL     1      35.805  -6.762  16.313  0.00  0.00    +0.000 OA
ATOM     28  H   UNL     1      36.040  -6.827  15.372  0.00  0.00    +0.000 HD
ENDBRANCH  10  27
BRANCH   2  29
ATOM     29  O   UNL     1      42.150  -3.841  16.107  0.00  0.00    +0.000 OA
BRANCH  29  31
ATOM     30  O   UNL     1      43.323  -5.802  13.191  0.00  0.00    +0.000 OA
ATOM     31  C   UNL     1      42.279  -5.024  15.294  0.00  0.00    +0.000 C 
ATOM     32  C   UNL     1      43.203  -4.695  14.095  0.00  0.00    +0.000 C 
ATOM     33  C   UNL     1      42.925  -6.177  16.069  0.00  0.00    +0.000 C 
ATOM     34  C   UNL     1      43.510  -7.222  15.161  0.00  0.00    +0.000 A 
ATOM     35  C   UNL     1      43.671  -6.980  13.793  0.00  0.00    +0.000 A 
ATOM     36  C   UNL     1      43.915  -8.462  15.670  0.00  0.00    +0.000 A 
ATOM     37  C   UNL     1      44.179  -7.968  12.946  0.00  0.00    +0.000 A 
ATOM     38  C   UNL     1      44.439  -9.450  14.838  0.00  0.00    +0.000 A 
ATOM     39  C   UNL     1      44.560  -9.194  13.478  0.00  0.00    +0.000 A 
BRANCH  32  40
ATOM     40  C   UNL     1      42.669  -3.511  13.299  0.00  0.00    +0.000 A 
ATOM     41  C   UNL     1      41.485  -3.616  12.554  0.00  0.00    +0.000 A 
ATOM     42  C   UNL     1      43.321  -2.266  13.373  0.00  0.00    +0.000 A 
ATOM     43  C   UNL     1      40.947  -2.487  11.940  0.00  0.00    +0.000 A 
ATOM     44  C   UNL     1      42.786  -1.141  12.739  0.00  0.00    +0.000 A 
ATOM     45  C   UNL     1      41.590  -1.255  12.037  0.00  0.00    +0.000 A 
BRANCH  43  46
ATOM     46  O   UNL     1      39.746  -2.562  11.294  0.00  0.00    +0.000 OA
ATOM     47  H   UNL     1      39.904  -2.651  10.339  0.00  0.00    +0.000 HD
ENDBRANCH  43  46
BRANCH  45  48
ATOM     48  O   UNL     1      41.017  -0.156  11.463  0.00  0.00    +0.000 OA
ATOM     49  H   UNL     1      40.647  -0.405  10.601  0.00  0.00    +0.000 HD
ENDBRANCH  45  48
ENDBRANCH  32  40
BRANCH  36  50
ATOM     50  O   UNL     1      43.783  -8.693  17.010  0.00  0.00    +0.000 OA
ATOM     51  H   UNL     1      42.883  -9.017  17.187  0.00  0.00    +0.000 HD
ENDBRANCH  36  50
BRANCH  39  52
ATOM     52  O   UNL     1      45.069 -10.183  12.689  0.00  0.00    +0.000 OA
ATOM     53  H   UNL     1      45.260  -9.814  11.810  0.00  0.00    +0.000 HD
ENDBRANCH  39  52
ENDBRANCH  29  31
ENDBRANCH   2  29
TORSDOF 14
ENDMDL
MODEL 6
REMARK VINA RESULT:      -6.7     24.662     28.347
REMARK  Name = 
REMARK  14 active torsions:
REMARK  status: ('A' for Active; 'I' for Inactive)
REMARK    1  A    between atoms: O_1  and  C_14
REMARK    2  A    between atoms: O_1  and  C_15
REMARK    3  A    between atoms: O_4  and  C_16
REMARK    4  A    between atoms: O_5  and  C_18
REMARK    5  A    between atoms: O_6  and  C_26
REMARK    6  A    between atoms: O_7  and  C_29
REMARK    7  A    between atoms: O_8  and  C_35
REMARK    8  A    between atoms: O_9  and  C_36
REMARK    9  A    between atoms: O_10  and  C_39
REMARK   10  A    between atoms: O_11  and  C_40
REMARK   11  A    between atoms: O_12  and  C_41
REMARK   12  A    between atoms: O_13  and  C_43
REMARK   13  A    between atoms: C_14  and  C_20
REMARK   14  A    between atoms: C_17  and  C_24
REMARK                            x       y       z     vdW  Elec       q    Type
REMARK                         _______ _______ _______ _____ _____    ______ ____
ROOT
ATOM      1  O   UNL     1      35.483  16.760  20.014  0.00  0.00    +0.000 OA
ATOM      2  C   UNL     1      34.097  17.067  20.216  0.00  0.00    +0.000 C 
ATOM      3  C   UNL     1      33.609  18.152  19.208  0.00  0.00    +0.000 C 
ATOM      4  C   UNL     1      34.482  19.399  19.302  0.00  0.00    +0.000 C 
ATOM      5  C   UNL     1      35.940  19.046  19.283  0.00  0.00    +0.000 A 
ATOM      6  C   UNL     1      36.341  17.759  19.649  0.00  0.00    +0.000 A 
ATOM      7  C   UNL     1      36.931  19.980  18.947  0.00  0.00    +0.000 A 
ATOM      8  C   UNL     1      37.695  17.414  19.662  0.00  0.00    +0.000 A 
ATOM      9  C   UNL     1      38.284  19.652  18.976  0.00  0.00    +0.000 A 
ATOM     10  C   UNL     1      38.655  18.363  19.331  0.00  0.00    +0.000 A 
ENDROOT
BRANCH   2  11
ATOM     11  C   UNL     1      33.778  17.478  21.667  0.00  0.00    +0.000 A 
ATOM     12  C   UNL     1      34.554  16.987  22.741  0.00  0.00    +0.000 A 
ATOM     13  C   UNL     1      32.720  18.363  21.964  0.00  0.00    +0.000 A 
ATOM     14  C   UNL     1      34.262  17.364  24.048  0.00  0.00    +0.000 A 
ATOM     15  C   UNL     1      32.426  18.725  23.282  0.00  0.00    +0.000 A 
ATOM     16  C   UNL     1      33.196  18.216  24.311  0.00  0.00    +0.000 A 
BRANCH  14  17
ATOM     17  O   UNL     1      34.996  16.933  25.117  0.00  0.00    +0.000 OA
ATOM     18  H   UNL     1      35.944  16.914  24.876  0.00  0.00    +0.000 HD
ENDBRANCH  14  17
BRANCH  16  19
ATOM     19  O   UNL     1      32.912  18.573  25.599  0.00  0.00    +0.000 OA
ATOM     20  H   UNL     1      33.115  17.772  26.123  0.00  0.00    +0.000 HD
ENDBRANCH  16  19
ENDBRANCH   2  11
BRANCH   3  21
ATOM     21  O   UNL     1      33.639  17.673  17.834  0.00  0.00    +0.000 OA
ATOM     22  H   UNL     1      32.916  18.156  17.384  0.00  0.00    +0.000 HD
ENDBRANCH   3  21
BRANCH   4  23
ATOM     23  O   UNL     1      34.189  20.274  18.198  0.00  0.00    +0.000 OA
ATOM     24  H   UNL     1      34.152  19.673  17.421  0.00  0.00    +0.000 HD
ENDBRANCH   4  23
BRANCH   7  25
ATOM     25  O   UNL     1      36.615  21.254  18.557  0.00  0.00    +0.000 OA
ATOM     26  H   UNL     1      35.814  21.193  17.991  0.00  0.00    +0.000 HD
ENDBRANCH   7  25
BRANCH  10  27
ATOM     27  O   UNL     1      39.965  17.985  19.367  0.00  0.00    +0.000 OA
ATOM     28  H   UNL     1      40.082  17.354  20.097  0.00  0.00    +0.000 HD
ENDBRANCH  10  27
BRANCH   2  29
ATOM     29  O   UNL     1      33.313  15.897  19.845  0.00  0.00    +0.000 OA
BRANCH  29  31
ATOM     30  O   UNL     1      31.441  13.291  21.698  0.00  0.00    +0.000 OA
ATOM     31  C   UNL     1      33.138  14.880  20.851  0.00  0.00    +0.000 C 
ATOM     32  C   UNL     1      31.726  14.265  20.684  0.00  0.00    +0.000 C 
ATOM     33  C   UNL     1      34.156  13.745  20.693  0.00  0.00    +0.000 C 
ATOM     34  C   UNL     1      33.715  12.480  21.375  0.00  0.00    +0.000 A 
ATOM     35  C   UNL     1      32.404  12.328  21.835  0.00  0.00    +0.000 A 
ATOM     36  C   UNL     1      34.612  11.420  21.558  0.00  0.00    +0.000 A 
ATOM     37  C   UNL     1      32.009  11.167  22.502  0.00  0.00    +0.000 A 
ATOM     38  C   UNL     1      34.226  10.250  22.208  0.00  0.00    +0.000 A 
ATOM     39  C   UNL     1      32.925  10.137  22.680  0.00  0.00    +0.000 A 
BRANCH  32  40
ATOM     40  C   UNL     1      30.647  15.336  20.762  0.00  0.00    +0.000 A 
ATOM     41  C   UNL     1      30.001  15.796  19.604  0.00  0.00    +0.000 A 
ATOM     42  C   UNL     1      30.227  15.818  22.014  0.00  0.00    +0.000 A 
ATOM     43  C   UNL     1      28.929  16.680  19.710  0.00  0.00    +0.000 A 
ATOM     44  C   UNL     1      29.164  16.720  22.113  0.00  0.00    +0.000 A 
ATOM     45  C   UNL     1      28.508  17.135  20.958  0.00  0.00    +0.000 A 
BRANCH  43  46
ATOM     46  O   UNL     1      28.236  17.057  18.595  0.00  0.00    +0.000 OA
ATOM     47  H   UNL     1      28.577  17.912  18.283  0.00  0.00    +0.000 HD
ENDBRANCH  43  46
BRANCH  45  48
ATOM     48  O   UNL     1      27.427  17.966  21.036  0.00  0.00    +0.000 OA
ATOM     49  H   UNL     1      26.857  17.817  20.263  0.00  0.00    +0.000 HD
ENDBRANCH  45  48
ENDBRANCH  32  40
BRANCH  36  50
ATOM     50  O   UNL     1      35.888  11.556  21.088  0.00  0.00    +0.000 OA
ATOM     51  H   UNL     1      35.946  11.142  20.210  0.00  0.00    +0.000 HD
ENDBRANCH  36  50
BRANCH  39  52
ATOM     52  O   UNL     1      32.580   8.981  23.319  0.00  0.00    +0.000 OA
ATOM     53  H   UNL     1      32.679   9.114  24.278  0.00  0.00    +0.000 HD
ENDBRANCH  39  52
ENDBRANCH  29  31
ENDBRANCH   2  29
TORSDOF 14
ENDMDL
MODEL 7
REMARK VINA RESULT:      -6.5      3.338      5.370
REMARK  Name = 
REMARK  14 active torsions:
REMARK  status: ('A' for Active; 'I' for Inactive)
REMARK    1  A    between atoms: O_1  and  C_14
REMARK    2  A    between atoms: O_1  and  C_15
REMARK    3  A    between atoms: O_4  and  C_16
REMARK    4  A    between atoms: O_5  and  C_18
REMARK    5  A    between atoms: O_6  and  C_26
REMARK    6  A    between atoms: O_7  and  C_29
REMARK    7  A    between atoms: O_8  and  C_35
REMARK    8  A    between atoms: O_9  and  C_36
REMARK    9  A    between atoms: O_10  and  C_39
REMARK   10  A    between atoms: O_11  and  C_40
REMARK   11  A    between atoms: O_12  and  C_41
REMARK   12  A    between atoms: O_13  and  C_43
REMARK   13  A    between atoms: C_14  and  C_20
REMARK   14  A    between atoms: C_17  and  C_24
REMARK                            x       y       z     vdW  Elec       q    Type
REMARK                         _______ _______ _______ _____ _____    ______ ____
ROOT
ATOM      1  O   UNL     1      53.174   5.898   9.627  0.00  0.00    +0.000 OA
ATOM      2  C   UNL     1      51.800   5.489   9.632  0.00  0.00    +0.000 C 
ATOM      3  C   UNL     1      50.897   6.564  10.310  0.00  0.00    +0.000 C 
ATOM      4  C   UNL     1      51.399   6.872  11.718  0.00  0.00    +0.000 C 
ATOM      5  C   UNL     1      52.880   7.109  11.728  0.00  0.00    +0.000 A 
ATOM      6  C   UNL     1      53.666   6.598  10.692  0.00  0.00    +0.000 A 
ATOM      7  C   UNL     1      53.520   7.796  12.770  0.00  0.00    +0.000 A 
ATOM      8  C   UNL     1      55.051   6.786  10.693  0.00  0.00    +0.000 A 
ATOM      9  C   UNL     1      54.901   7.971  12.790  0.00  0.00    +0.000 A 
ATOM     10  C   UNL     1      55.657   7.465  11.743  0.00  0.00    +0.000 A 
ENDROOT
BRANCH   2  11
ATOM     11  C   UNL     1      51.586   4.105  10.274  0.00  0.00    +0.000 A 
ATOM     12  C   UNL     1      50.286   3.574  10.425  0.00  0.00    +0.000 A 
ATOM     13  C   UNL     1      52.676   3.323  10.713  0.00  0.00    +0.000 A 
ATOM     14  C   UNL     1      50.101   2.322  11.003  0.00  0.00    +0.000 A 
ATOM     15  C   UNL     1      52.479   2.073  11.306  0.00  0.00    +0.000 A 
ATOM     16  C   UNL     1      51.192   1.588  11.451  0.00  0.00    +0.000 A 
BRANCH  14  17
ATOM     17  O   UNL     1      48.865   1.759  11.152  0.00  0.00    +0.000 OA
ATOM     18  H   UNL     1      48.179   2.393  10.859  0.00  0.00    +0.000 HD
ENDBRANCH  14  17
BRANCH  16  19
ATOM     19  O   UNL     1      50.999   0.364  12.026  0.00  0.00    +0.000 OA
ATOM     20  H   UNL     1      51.055  -0.267  11.280  0.00  0.00    +0.000 HD
ENDBRANCH  16  19
ENDBRANCH   2  11
BRANCH   3  21
ATOM     21  O   UNL     1      50.865   7.808   9.553  0.00  0.00    +0.000 OA
ATOM     22  H   UNL     1      51.313   7.599   8.709  0.00  0.00    +0.000 HD
ENDBRANCH   3  21
BRANCH   4  23
ATOM     23  O   UNL     1      50.726   8.038  12.222  0.00  0.00    +0.000 OA
ATOM     24  H   UNL     1      50.464   7.787  13.136  0.00  0.00    +0.000 HD
ENDBRANCH   4  23
BRANCH   7  25
ATOM     25  O   UNL     1      52.816   8.343  13.809  0.00  0.00    +0.000 OA
ATOM     26  H   UNL     1      53.192   9.236  13.975  0.00  0.00    +0.000 HD
ENDBRANCH   7  25
BRANCH  10  27
ATOM     27  O   UNL     1      57.013   7.616  11.707  0.00  0.00    +0.000 OA
ATOM     28  H   UNL     1      57.307   7.526  10.785  0.00  0.00    +0.000 HD
ENDBRANCH  10  27
BRANCH   2  29
ATOM     29  O   UNL     1      51.323   5.481   8.256  0.00  0.00    +0.000 OA
BRANCH  29  31
ATOM     30  O   UNL     1      53.002   4.344   5.155  0.00  0.00    +0.000 OA
ATOM     31  C   UNL     1      52.320   5.529   7.217  0.00  0.00    +0.000 C 
ATOM     32  C   UNL     1      52.008   4.414   6.187  0.00  0.00    +0.000 C 
ATOM     33  C   UNL     1      52.296   6.866   6.469  0.00  0.00    +0.000 C 
ATOM     34  C   UNL     1      52.947   6.779   5.116  0.00  0.00    +0.000 A 
ATOM     35  C   UNL     1      53.260   5.542   4.546  0.00  0.00    +0.000 A 
ATOM     36  C   UNL     1      53.246   7.941   4.394  0.00  0.00    +0.000 A 
ATOM     37  C   UNL     1      53.900   5.466   3.306  0.00  0.00    +0.000 A 
ATOM     38  C   UNL     1      53.869   7.879   3.150  0.00  0.00    +0.000 A 
ATOM     39  C   UNL     1      54.196   6.638   2.619  0.00  0.00    +0.000 A 
BRANCH  32  40
ATOM     40  C   UNL     1      51.948   3.048   6.857  0.00  0.00    +0.000 A 
ATOM     41  C   UNL     1      50.725   2.379   7.024  0.00  0.00    +0.000 A 
ATOM     42  C   UNL     1      53.137   2.403   7.244  0.00  0.00    +0.000 A 
ATOM     43  C   UNL     1      50.707   1.077   7.521  0.00  0.00    +0.000 A 
ATOM     44  C   UNL     1      53.110   1.105   7.760  0.00  0.00    +0.000 A 
ATOM     45  C   UNL     1      51.894   0.441   7.881  0.00  0.00    +0.000 A 
BRANCH  43  46
ATOM     46  O   UNL     1      49.531   0.387   7.596  0.00  0.00    +0.000 OA
ATOM     47  H   UNL     1      49.724  -0.552   7.756  0.00  0.00    +0.000 HD
ENDBRANCH  43  46
BRANCH  45  48
ATOM     48  O   UNL     1      51.850  -0.850   8.323  0.00  0.00    +0.000 OA
ATOM     49  H   UNL     1      52.415  -0.936   9.108  0.00  0.00    +0.000 HD
ENDBRANCH  45  48
ENDBRANCH  32  40
BRANCH  36  50
ATOM     50  O   UNL     1      52.918   9.151   4.938  0.00  0.00    +0.000 OA
ATOM     51  H   UNL     1      52.245   9.015   5.626  0.00  0.00    +0.000 HD
ENDBRANCH  36  50
BRANCH  39  52
ATOM     52  O   UNL     1      54.813   6.611   1.402  0.00  0.00    +0.000 OA
ATOM     53  H   UNL     1      54.268   7.105   0.766  0.00  0.00    +0.000 HD
ENDBRANCH  39  52
ENDBRANCH  29  31
ENDBRANCH   2  29
TORSDOF 14
ENDMDL
MODEL 8
REMARK VINA RESULT:      -6.4      2.850      7.228
REMARK  Name = 
REMARK  14 active torsions:
REMARK  status: ('A' for Active; 'I' for Inactive)
REMARK    1  A    between atoms: O_1  and  C_14
REMARK    2  A    between atoms: O_1  and  C_15
REMARK    3  A    between atoms: O_4  and  C_16
REMARK    4  A    between atoms: O_5  and  C_18
REMARK    5  A    between atoms: O_6  and  C_26
REMARK    6  A    between atoms: O_7  and  C_29
REMARK    7  A    between atoms: O_8  and  C_35
REMARK    8  A    between atoms: O_9  and  C_36
REMARK    9  A    between atoms: O_10  and  C_39
REMARK   10  A    between atoms: O_11  and  C_40
REMARK   11  A    between atoms: O_12  and  C_41
REMARK   12  A    between atoms: O_13  and  C_43
REMARK   13  A    between atoms: C_14  and  C_20
REMARK   14  A    between atoms: C_17  and  C_24
REMARK                            x       y       z     vdW  Elec       q    Type
REMARK                         _______ _______ _______ _____ _____    ______ ____
ROOT
ATOM      1  O   UNL     1      52.312   2.951   6.300  0.00  0.00    +0.000 OA
ATOM      2  C   UNL     1      53.064   3.269   7.479  0.00  0.00    +0.000 C 
ATOM      3  C   UNL     1      54.145   2.183   7.765  0.00  0.00    +0.000 C 
ATOM      4  C   UNL     1      53.503   0.802   7.862  0.00  0.00    +0.000 C 
ATOM      5  C   UNL     1      52.565   0.556   6.718  0.00  0.00    +0.000 A 
ATOM      6  C   UNL     1      52.026   1.643   6.024  0.00  0.00    +0.000 A 
ATOM      7  C   UNL     1      52.170  -0.735   6.338  0.00  0.00    +0.000 A 
ATOM      8  C   UNL     1      51.132   1.439   4.970  0.00  0.00    +0.000 A 
ATOM      9  C   UNL     1      51.265  -0.948   5.302  0.00  0.00    +0.000 A 
ATOM     10  C   UNL     1      50.755   0.148   4.621  0.00  0.00    +0.000 A 
ENDROOT
BRANCH   2  11
ATOM     11  C   UNL     1      52.174   3.501   8.715  0.00  0.00    +0.000 A 
ATOM     12  C   UNL     1      50.766   3.505   8.598  0.00  0.00    +0.000 A 
ATOM     13  C   UNL     1      52.733   3.701   9.995  0.00  0.00    +0.000 A 
ATOM     14  C   UNL     1      49.968   3.713   9.719  0.00  0.00    +0.000 A 
ATOM     15  C   UNL     1      51.923   3.924  11.113  0.00  0.00    +0.000 A 
ATOM     16  C   UNL     1      50.548   3.934  10.962  0.00  0.00    +0.000 A 
BRANCH  14  17
ATOM     17  O   UNL     1      48.603   3.705   9.659  0.00  0.00    +0.000 OA
ATOM     18  H   UNL     1      48.279   4.609   9.472  0.00  0.00    +0.000 HD
ENDBRANCH  14  17
BRANCH  16  19
ATOM     19  O   UNL     1      49.757   4.148  12.054  0.00  0.00    +0.000 OA
ATOM     20  H   UNL     1      49.033   3.495  11.961  0.00  0.00    +0.000 HD
ENDBRANCH  16  19
ENDBRANCH   2  11
BRANCH   3  21
ATOM     21  O   UNL     1      55.166   2.142   6.729  0.00  0.00    +0.000 OA
ATOM     22  H   UNL     1      55.817   2.824   6.991  0.00  0.00    +0.000 HD
ENDBRANCH   3  21
BRANCH   4  23
ATOM     23  O   UNL     1      54.529  -0.205   7.863  0.00  0.00    +0.000 OA
ATOM     24  H   UNL     1      55.148   0.084   8.571  0.00  0.00    +0.000 HD
ENDBRANCH   4  23
BRANCH   7  25
ATOM     25  O   UNL     1      52.671  -1.850   6.956  0.00  0.00    +0.000 OA
ATOM     26  H   UNL     1      52.673  -1.668   7.922  0.00  0.00    +0.000 HD
ENDBRANCH   7  25
BRANCH  10  27
ATOM     27  O   UNL     1      49.871  -0.003   3.592  0.00  0.00    +0.000 OA
ATOM     28  H   UNL     1      49.773  -0.953   3.409  0.00  0.00    +0.000 HD
ENDBRANCH  10  27
BRANCH   2  29
ATOM     29  O   UNL     1      53.857   4.458   7.204  0.00  0.00    +0.000 OA
BRANCH  29  31
ATOM     30  O   UNL     1      52.959   7.821   5.934  0.00  0.00    +0.000 OA
ATOM     31  C   UNL     1      53.326   5.394   6.246  0.00  0.00    +0.000 C 
ATOM     32  C   UNL     1      53.531   6.828   6.796  0.00  0.00    +0.000 C 
ATOM     33  C   UNL     1      54.057   5.307   4.903  0.00  0.00    +0.000 C 
ATOM     34  C   UNL     1      53.882   6.549   4.072  0.00  0.00    +0.000 A 
ATOM     35  C   UNL     1      53.348   7.716   4.626  0.00  0.00    +0.000 A 
ATOM     36  C   UNL     1      54.258   6.562   2.723  0.00  0.00    +0.000 A 
ATOM     37  C   UNL     1      53.150   8.855   3.841  0.00  0.00    +0.000 A 
ATOM     38  C   UNL     1      54.081   7.697   1.935  0.00  0.00    +0.000 A 
ATOM     39  C   UNL     1      53.522   8.834   2.502  0.00  0.00    +0.000 A 
BRANCH  32  40
ATOM     40  C   UNL     1      52.889   6.988   8.167  0.00  0.00    +0.000 A 
ATOM     41  C   UNL     1      53.674   7.067   9.328  0.00  0.00    +0.000 A 
ATOM     42  C   UNL     1      51.495   7.142   8.275  0.00  0.00    +0.000 A 
ATOM     43  C   UNL     1      53.075   7.343  10.555  0.00  0.00    +0.000 A 
ATOM     44  C   UNL     1      50.898   7.399   9.512  0.00  0.00    +0.000 A 
ATOM     45  C   UNL     1      51.695   7.514  10.646  0.00  0.00    +0.000 A 
BRANCH  43  46
ATOM     46  O   UNL     1      53.843   7.516  11.671  0.00  0.00    +0.000 OA
ATOM     47  H   UNL     1      53.999   6.652  12.087  0.00  0.00    +0.000 HD
ENDBRANCH  43  46
BRANCH  45  48
ATOM     48  O   UNL     1      51.140   7.828  11.854  0.00  0.00    +0.000 OA
ATOM     49  H   UNL     1      50.662   7.054  12.194  0.00  0.00    +0.000 HD
ENDBRANCH  45  48
ENDBRANCH  32  40
BRANCH  36  50
ATOM     50  O   UNL     1      54.804   5.430   2.186  0.00  0.00    +0.000 OA
ATOM     51  H   UNL     1      55.518   5.118   2.767  0.00  0.00    +0.000 HD
ENDBRANCH  36  50
BRANCH  39  52
ATOM     52  O   UNL     1      53.355   9.926   1.702  0.00  0.00    +0.000 OA
ATOM     53  H   UNL     1      53.637   9.698   0.799  0.00  0.00    +0.000 HD
ENDBRANCH  39  52
ENDBRANCH  29  31
ENDBRANCH   2  29
TORSDOF 14
ENDMDL
MODEL 9
REMARK VINA RESULT:      -6.0     19.977     23.120
REMARK  Name = 
REMARK  14 active torsions:
REMARK  status: ('A' for Active; 'I' for Inactive)
REMARK    1  A    between atoms: O_1  and  C_14
REMARK    2  A    between atoms: O_1  and  C_15
REMARK    3  A    between atoms: O_4  and  C_16
REMARK    4  A    between atoms: O_5  and  C_18
REMARK    5  A    between atoms: O_6  and  C_26
REMARK    6  A    between atoms: O_7  and  C_29
REMARK    7  A    between atoms: O_8  and  C_35
REMARK    8  A    between atoms: O_9  and  C_36
REMARK    9  A    between atoms: O_10  and  C_39
REMARK   10  A    between atoms: O_11  and  C_40
REMARK   11  A    between atoms: O_12  and  C_41
REMARK   12  A    between atoms: O_13  and  C_43
REMARK   13  A    between atoms: C_14  and  C_20
REMARK   14  A    between atoms: C_17  and  C_24
REMARK                            x       y       z     vdW  Elec       q    Type
REMARK                         _______ _______ _______ _____ _____    ______ ____
ROOT
ATOM      1  O   UNL     1      31.302  -5.271  13.414  0.00  0.00    +0.000 OA
ATOM      2  C   UNL     1      30.107  -5.977  13.051  0.00  0.00    +0.000 C 
ATOM      3  C   UNL     1      29.835  -7.159  14.029  0.00  0.00    +0.000 C 
ATOM      4  C   UNL     1      31.042  -8.090  14.093  0.00  0.00    +0.000 C 
ATOM      5  C   UNL     1      32.314  -7.319  14.281  0.00  0.00    +0.000 A 
ATOM      6  C   UNL     1      32.362  -5.970  13.920  0.00  0.00    +0.000 A 
ATOM      7  C   UNL     1      33.485  -7.915  14.773  0.00  0.00    +0.000 A 
ATOM      8  C   UNL     1      33.543  -5.237  14.065  0.00  0.00    +0.000 A 
ATOM      9  C   UNL     1      34.671  -7.199  14.902  0.00  0.00    +0.000 A 
ATOM     10  C   UNL     1      34.688  -5.858  14.549  0.00  0.00    +0.000 A 
ENDROOT
BRANCH   2  11
ATOM     11  C   UNL     1      30.117  -6.462  11.588  0.00  0.00    +0.000 A 
ATOM     12  C   UNL     1      31.175  -6.109  10.720  0.00  0.00    +0.000 A 
ATOM     13  C   UNL     1      29.086  -7.280  11.078  0.00  0.00    +0.000 A 
ATOM     14  C   UNL     1      31.179  -6.553   9.401  0.00  0.00    +0.000 A 
ATOM     15  C   UNL     1      29.092  -7.708   9.748  0.00  0.00    +0.000 A 
ATOM     16  C   UNL     1      30.135  -7.335   8.920  0.00  0.00    +0.000 A 
BRANCH  14  17
ATOM     17  O   UNL     1      32.189  -6.255   8.531  0.00  0.00    +0.000 OA
ATOM     18  H   UNL     1      32.602  -7.084   8.213  0.00  0.00    +0.000 HD
ENDBRANCH  14  17
BRANCH  16  19
ATOM     19  O   UNL     1      30.143  -7.756   7.621  0.00  0.00    +0.000 OA
ATOM     20  H   UNL     1      29.279  -7.466   7.266  0.00  0.00    +0.000 HD
ENDBRANCH  16  19
ENDBRANCH   2  11
BRANCH   3  21
ATOM     21  O   UNL     1      29.541  -6.696  15.378  0.00  0.00    +0.000 OA
ATOM     22  H   UNL     1      28.742  -6.140  15.283  0.00  0.00    +0.000 HD
ENDBRANCH   3  21
BRANCH   4  23
ATOM     23  O   UNL     1      30.878  -9.014  15.182  0.00  0.00    +0.000 OA
ATOM     24  H   UNL     1      31.719  -9.524  15.192  0.00  0.00    +0.000 HD
ENDBRANCH   4  23
BRANCH   7  25
ATOM     25  O   UNL     1      33.511  -9.226  15.168  0.00  0.00    +0.000 OA
ATOM     26  H   UNL     1      34.444  -9.529  15.102  0.00  0.00    +0.000 HD
ENDBRANCH   7  25
BRANCH  10  27
ATOM     27  O   UNL     1      35.821  -5.106  14.663  0.00  0.00    +0.000 OA
ATOM     28  H   UNL     1      35.892  -4.796  15.581  0.00  0.00    +0.000 HD
ENDBRANCH  10  27
BRANCH   2  29
ATOM     29  O   UNL     1      28.972  -5.095  13.276  0.00  0.00    +0.000 OA
BRANCH  29  31
ATOM     30  O   UNL     1      28.352  -1.510  12.574  0.00  0.00    +0.000 OA
ATOM     31  C   UNL     1      29.245  -3.682  13.353  0.00  0.00    +0.000 C 
ATOM     32  C   UNL     1      28.115  -2.924  12.610  0.00  0.00    +0.000 C 
ATOM     33  C   UNL     1      29.257  -3.184  14.802  0.00  0.00    +0.000 C 
ATOM     34  C   UNL     1      29.050  -1.698  14.900  0.00  0.00    +0.000 A 
ATOM     35  C   UNL     1      28.618  -0.956  13.796  0.00  0.00    +0.000 A 
ATOM     36  C   UNL     1      29.279  -1.025  16.106  0.00  0.00    +0.000 A 
ATOM     37  C   UNL     1      28.464   0.430  13.881  0.00  0.00    +0.000 A 
ATOM     38  C   UNL     1      29.113   0.354  16.208  0.00  0.00    +0.000 A 
ATOM     39  C   UNL     1      28.711   1.071  15.089  0.00  0.00    +0.000 A 
BRANCH  32  40
ATOM     40  C   UNL     1      27.986  -3.404  11.171  0.00  0.00    +0.000 A 
ATOM     41  C   UNL     1      28.999  -3.153  10.232  0.00  0.00    +0.000 A 
ATOM     42  C   UNL     1      26.878  -4.180  10.787  0.00  0.00    +0.000 A 
ATOM     43  C   UNL     1      28.920  -3.711   8.958  0.00  0.00    +0.000 A 
ATOM     44  C   UNL     1      26.795  -4.721   9.502  0.00  0.00    +0.000 A 
ATOM     45  C   UNL     1      27.827  -4.496   8.596  0.00  0.00    +0.000 A 
BRANCH  43  46
ATOM     46  O   UNL     1      29.947  -3.551   8.072  0.00  0.00    +0.000 OA
ATOM     47  H   UNL     1      29.767  -2.776   7.514  0.00  0.00    +0.000 HD
ENDBRANCH  43  46
BRANCH  45  48
ATOM     48  O   UNL     1      27.797  -5.067   7.356  0.00  0.00    +0.000 OA
ATOM     49  H   UNL     1      26.930  -4.901   6.951  0.00  0.00    +0.000 HD
ENDBRANCH  45  48
ENDBRANCH  32  40
BRANCH  36  50
ATOM     50  O   UNL     1      29.677  -1.751  17.194  0.00  0.00    +0.000 OA
ATOM     51  H   UNL     1      29.429  -2.682  17.059  0.00  0.00    +0.000 HD
ENDBRANCH  36  50
BRANCH  39  52
ATOM     52  O   UNL     1      28.565   2.422  15.219  0.00  0.00    +0.000 OA
ATOM     53  H   UNL     1      27.632   2.651  15.068  0.00  0.00    +0.000 HD
ENDBRANCH  39  52
ENDBRANCH  29  31
ENDBRANCH   2  29
TORSDOF 14
ENDMDL
