MODEL 1
REMARK VINA RESULT:      -7.0      0.000      0.000
REMARK  Name = Progesterone.pdbqt.pdb
REMARK  1 active torsions:
REMARK  status: ('A' for Active; 'I' for Inactive)
REMARK    1  A    between atoms: C_7  and  C_21
REMARK                            x       y       z     vdW  Elec       q    Type
REMARK                         _______ _______ _______ _____ _____    ______ ____
ROOT
ATOM      1  O   UNL     1      45.844  -5.817  18.435  0.00  0.00    +0.000 OA
ATOM      2  C   UNL     1      39.991  -1.892  15.443  0.00  0.00    +0.000 C 
ATOM      3  C   UNL     1      40.213  -0.515  14.611  0.00  0.00    +0.000 C 
ATOM      4  C   UNL     1      41.026  -2.941  15.529  0.00  0.00    +0.000 C 
ATOM      5  C   UNL     1      42.466  -2.799  15.123  0.00  0.00    +0.000 C 
ATOM      6  C   UNL     1      43.482  -3.962  15.122  0.00  0.00    +0.000 C 
ATOM      7  C   UNL     1      39.632   0.524  15.524  0.00  0.00    +0.000 C 
ATOM      8  C   UNL     1      41.663  -0.441  14.427  0.00  0.00    +0.000 C 
ATOM      9  C   UNL     1      42.728  -1.490  14.631  0.00  0.00    +0.000 C 
ATOM     10  C   UNL     1      39.192  -1.572  16.587  0.00  0.00    +0.000 C 
ATOM     11  C   UNL     1      40.761  -4.180  16.157  0.00  0.00    +0.000 C 
ATOM     12  C   UNL     1      38.999  -0.080  16.646  0.00  0.00    +0.000 C 
ATOM     13  C   UNL     1      43.080  -5.246  16.090  0.00  0.00    +0.000 C 
ATOM     14  C   UNL     1      39.399  -0.652  13.304  0.00  0.00    +0.000 C 
ATOM     15  C   UNL     1      41.710  -5.304  16.444  0.00  0.00    +0.000 C 
ATOM     16  C   UNL     1      44.792  -3.512  15.698  0.00  0.00    +0.000 C 
ATOM     17  C   UNL     1      43.645  -4.515  13.681  0.00  0.00    +0.000 C 
ATOM     18  C   UNL     1      45.701  -4.082  16.810  0.00  0.00    +0.000 C 
ATOM     19  C   UNL     1      43.965  -5.644  16.979  0.00  0.00    +0.000 C 
ATOM     20  C   UNL     1      45.263  -5.268  17.519  0.00  0.00    +0.000 C 
ENDROOT
BRANCH   7  21
ATOM     21  C   UNL     1      39.674   1.942  15.261  0.00  0.00    +0.000 C 
ATOM     22  O   UNL     1      39.445   2.466  14.184  0.00  0.00    +0.000 OA
ATOM     23  C   UNL     1      39.914   2.977  16.310  0.00  0.00    +0.000 C 
ENDBRANCH   7  21
TORSDOF 1
ENDMDL
MODEL 2
REMARK VINA RESULT:      -6.5     17.073     20.241
REMARK  Name = Progesterone.pdbqt.pdb
REMARK  1 active torsions:
REMARK  status: ('A' for Active; 'I' for Inactive)
REMARK    1  A    between atoms: C_7  and  C_21
REMARK                            x       y       z     vdW  Elec       q    Type
REMARK                         _______ _______ _______ _____ _____    ______ ____
ROOT
ATOM      1  O   UNL     1      34.089  10.603  25.049  0.00  0.00    +0.000 OA
ATOM      2  C   UNL     1      33.836  16.834  20.607  0.00  0.00    +0.000 C 
ATOM      3  C   UNL     1      35.124  17.803  20.408  0.00  0.00    +0.000 C 
ATOM      4  C   UNL     1      33.965  15.402  20.939  0.00  0.00    +0.000 C 
ATOM      5  C   UNL     1      35.219  14.709  21.394  0.00  0.00    +0.000 C 
ATOM      6  C   UNL     1      35.331  13.184  21.614  0.00  0.00    +0.000 C 
ATOM      7  C   UNL     1      34.714  19.057  21.121  0.00  0.00    +0.000 C 
ATOM      8  C   UNL     1      36.223  17.063  21.030  0.00  0.00    +0.000 C 
ATOM      9  C   UNL     1      36.305  15.624  21.473  0.00  0.00    +0.000 C 
ATOM     10  C   UNL     1      32.803  17.623  21.208  0.00  0.00    +0.000 C 
ATOM     11  C   UNL     1      32.832  14.557  20.987  0.00  0.00    +0.000 C 
ATOM     12  C   UNL     1      33.358  18.980  21.547  0.00  0.00    +0.000 C 
ATOM     13  C   UNL     1      33.890  12.402  21.856  0.00  0.00    +0.000 C 
ATOM     14  C   UNL     1      35.275  18.030  18.886  0.00  0.00    +0.000 C 
ATOM     15  C   UNL     1      32.752  13.124  21.419  0.00  0.00    +0.000 C 
ATOM     16  C   UNL     1      36.081  12.894  22.881  0.00  0.00    +0.000 C 
ATOM     17  C   UNL     1      36.004  12.523  20.382  0.00  0.00    +0.000 C 
ATOM     18  C   UNL     1      35.766  12.008  24.108  0.00  0.00    +0.000 C 
ATOM     19  C   UNL     1      33.770  11.657  22.935  0.00  0.00    +0.000 C 
ATOM     20  C   UNL     1      34.497  11.308  24.146  0.00  0.00    +0.000 C 
ENDROOT
BRANCH   7  21
ATOM     21  C   UNL     1      35.575  20.200  21.302  0.00  0.00    +0.000 C 
ATOM     22  O   UNL     1      36.634  20.382  20.724  0.00  0.00    +0.000 OA
ATOM     23  C   UNL     1      35.235  21.372  22.161  0.00  0.00    +0.000 C 
ENDBRANCH   7  21
TORSDOF 1
ENDMDL
MODEL 3
REMARK VINA RESULT:      -6.4      2.291      3.849
REMARK  Name = Progesterone.pdbqt.pdb
REMARK  1 active torsions:
REMARK  status: ('A' for Active; 'I' for Inactive)
REMARK    1  A    between atoms: C_7  and  C_21
REMARK                            x       y       z     vdW  Elec       q    Type
REMARK                         _______ _______ _______ _____ _____    ______ ____
ROOT
ATOM      1  O   UNL     1      44.066 -10.137  15.781  0.00  0.00    +0.000 OA
ATOM      2  C   UNL     1      42.701  -2.947  13.530  0.00  0.00    +0.000 C 
ATOM      3  C   UNL     1      41.568  -2.024  14.238  0.00  0.00    +0.000 C 
ATOM      4  C   UNL     1      43.384  -4.046  14.240  0.00  0.00    +0.000 C 
ATOM      5  C   UNL     1      42.974  -4.637  15.560  0.00  0.00    +0.000 C 
ATOM      6  C   UNL     1      43.791  -5.706  16.319  0.00  0.00    +0.000 C 
ATOM      7  C   UNL     1      40.524  -1.896  13.169  0.00  0.00    +0.000 C 
ATOM      8  C   UNL     1      41.164  -2.796  15.413  0.00  0.00    +0.000 C 
ATOM      9  C   UNL     1      41.810  -3.994  16.064  0.00  0.00    +0.000 C 
ATOM     10  C   UNL     1      42.326  -3.100  12.158  0.00  0.00    +0.000 C 
ATOM     11  C   UNL     1      44.451  -4.754  13.639  0.00  0.00    +0.000 C 
ATOM     12  C   UNL     1      40.972  -2.475  11.948  0.00  0.00    +0.000 C 
ATOM     13  C   UNL     1      44.850  -6.574  15.385  0.00  0.00    +0.000 C 
ATOM     14  C   UNL     1      42.238  -0.666  14.553  0.00  0.00    +0.000 C 
ATOM     15  C   UNL     1      45.176  -5.963  14.149  0.00  0.00    +0.000 C 
ATOM     16  C   UNL     1      42.882  -6.769  16.862  0.00  0.00    +0.000 C 
ATOM     17  C   UNL     1      44.625  -5.031  17.441  0.00  0.00    +0.000 C 
ATOM     18  C   UNL     1      42.895  -8.311  16.765  0.00  0.00    +0.000 C 
ATOM     19  C   UNL     1      44.765  -7.887  15.420  0.00  0.00    +0.000 C 
ATOM     20  C   UNL     1      43.937  -8.945  15.981  0.00  0.00    +0.000 C 
ENDROOT
BRANCH   7  21
ATOM     21  C   UNL     1      39.258  -1.230  13.354  0.00  0.00    +0.000 C 
ATOM     22  O   UNL     1      38.236  -1.760  13.757  0.00  0.00    +0.000 OA
ATOM     23  C   UNL     1      39.052   0.237  13.164  0.00  0.00    +0.000 C 
ENDBRANCH   7  21
TORSDOF 1
ENDMDL
MODEL 4
REMARK VINA RESULT:      -6.1      1.934      2.424
REMARK  Name = Progesterone.pdbqt.pdb
REMARK  1 active torsions:
REMARK  status: ('A' for Active; 'I' for Inactive)
REMARK    1  A    between atoms: C_7  and  C_21
REMARK                            x       y       z     vdW  Elec       q    Type
REMARK                         _______ _______ _______ _____ _____    ______ ____
ROOT
ATOM      1  O   UNL     1      44.489  -4.225  21.585  0.00  0.00    +0.000 OA
ATOM      2  C   UNL     1      40.839  -3.357  14.911  0.00  0.00    +0.000 C 
ATOM      3  C   UNL     1      41.022  -2.028  13.996  0.00  0.00    +0.000 C 
ATOM      4  C   UNL     1      41.884  -3.828  15.842  0.00  0.00    +0.000 C 
ATOM      5  C   UNL     1      43.096  -3.053  16.278  0.00  0.00    +0.000 C 
ATOM      6  C   UNL     1      44.222  -3.635  17.161  0.00  0.00    +0.000 C 
ATOM      7  C   UNL     1      39.684  -1.360  14.103  0.00  0.00    +0.000 C 
ATOM      8  C   UNL     1      42.129  -1.310  14.631  0.00  0.00    +0.000 C 
ATOM      9  C   UNL     1      43.121  -1.767  15.670  0.00  0.00    +0.000 C 
ATOM     10  C   UNL     1      39.459  -3.429  15.281  0.00  0.00    +0.000 C 
ATOM     11  C   UNL     1      41.747  -5.053  16.535  0.00  0.00    +0.000 C 
ATOM     12  C   UNL     1      38.759  -2.184  14.806  0.00  0.00    +0.000 C 
ATOM     13  C   UNL     1      43.794  -4.961  18.058  0.00  0.00    +0.000 C 
ATOM     14  C   UNL     1      41.307  -2.517  12.557  0.00  0.00    +0.000 C 
ATOM     15  C   UNL     1      42.633  -5.629  17.598  0.00  0.00    +0.000 C 
ATOM     16  C   UNL     1      44.627  -2.642  18.211  0.00  0.00    +0.000 C 
ATOM     17  C   UNL     1      45.421  -4.057  16.272  0.00  0.00    +0.000 C 
ATOM     18  C   UNL     1      44.780  -2.742  19.745  0.00  0.00    +0.000 C 
ATOM     19  C   UNL     1      44.007  -4.918  19.356  0.00  0.00    +0.000 C 
ATOM     20  C   UNL     1      44.452  -3.997  20.392  0.00  0.00    +0.000 C 
ENDROOT
BRANCH   7  21
ATOM     21  C   UNL     1      39.375  -0.075  13.525  0.00  0.00    +0.000 C 
ATOM     22  O   UNL     1      38.818   0.099  12.455  0.00  0.00    +0.000 OA
ATOM     23  C   UNL     1      39.614   1.228  14.214  0.00  0.00    +0.000 C 
ENDBRANCH   7  21
TORSDOF 1
ENDMDL
MODEL 5
REMARK VINA RESULT:      -5.9     14.785     17.613
REMARK  Name = Progesterone.pdbqt.pdb
REMARK  1 active torsions:
REMARK  status: ('A' for Active; 'I' for Inactive)
REMARK    1  A    between atoms: C_7  and  C_21
REMARK                            x       y       z     vdW  Elec       q    Type
REMARK                         _______ _______ _______ _____ _____    ______ ____
ROOT
ATOM      1  O   UNL     1      31.747   6.928  25.415  0.00  0.00    +0.000 OA
ATOM      2  C   UNL     1      34.006  12.860  21.135  0.00  0.00    +0.000 C 
ATOM      3  C   UNL     1      35.229  13.831  21.585  0.00  0.00    +0.000 C 
ATOM      4  C   UNL     1      33.910  11.454  21.572  0.00  0.00    +0.000 C 
ATOM      5  C   UNL     1      34.721  10.807  22.660  0.00  0.00    +0.000 C 
ATOM      6  C   UNL     1      34.667   9.301  22.999  0.00  0.00    +0.000 C 
ATOM      7  C   UNL     1      34.533  15.122  21.898  0.00  0.00    +0.000 C 
ATOM      8  C   UNL     1      35.819  13.147  22.735  0.00  0.00    +0.000 C 
ATOM      9  C   UNL     1      35.623  11.740  23.242  0.00  0.00    +0.000 C 
ATOM     10  C   UNL     1      32.830  13.672  21.053  0.00  0.00    +0.000 C 
ATOM     11  C   UNL     1      32.902  10.599  21.068  0.00  0.00    +0.000 C 
ATOM     12  C   UNL     1      33.154  15.055  21.550  0.00  0.00    +0.000 C 
ATOM     13  C   UNL     1      33.297   8.518  22.494  0.00  0.00    +0.000 C 
ATOM     14  C   UNL     1      36.162  13.963  20.359  0.00  0.00    +0.000 C 
ATOM     15  C   UNL     1      32.575   9.195  21.480  0.00  0.00    +0.000 C 
ATOM     16  C   UNL     1      34.632   9.102  24.486  0.00  0.00    +0.000 C 
ATOM     17  C   UNL     1      35.872   8.572  22.347  0.00  0.00    +0.000 C 
ATOM     18  C   UNL     1      33.699   8.292  25.414  0.00  0.00    +0.000 C 
ATOM     19  C   UNL     1      32.611   7.841  23.390  0.00  0.00    +0.000 C 
ATOM     20  C   UNL     1      32.584   7.580  24.822  0.00  0.00    +0.000 C 
ENDROOT
BRANCH   7  21
ATOM     21  C   UNL     1      35.196  16.285  22.434  0.00  0.00    +0.000 C 
ATOM     22  O   UNL     1      35.128  16.663  23.592  0.00  0.00    +0.000 OA
ATOM     23  C   UNL     1      36.142  17.139  21.656  0.00  0.00    +0.000 C 
ENDBRANCH   7  21
TORSDOF 1
ENDMDL
MODEL 6
REMARK VINA RESULT:      -5.8     20.204     22.043
REMARK  Name = Progesterone.pdbqt.pdb
REMARK  1 active torsions:
REMARK  status: ('A' for Active; 'I' for Inactive)
REMARK    1  A    between atoms: C_7  and  C_21
REMARK                            x       y       z     vdW  Elec       q    Type
REMARK                         _______ _______ _______ _____ _____    ______ ____
ROOT
ATOM      1  O   UNL     1      56.964  12.313  14.281  0.00  0.00    +0.000 OA
ATOM      2  C   UNL     1      52.518  17.775  11.279  0.00  0.00    +0.000 C 
ATOM      3  C   UNL     1      50.900  17.737  11.409  0.00  0.00    +0.000 C 
ATOM      4  C   UNL     1      53.408  17.132  12.265  0.00  0.00    +0.000 C 
ATOM      5  C   UNL     1      52.990  16.158  13.332  0.00  0.00    +0.000 C 
ATOM      6  C   UNL     1      53.940  15.604  14.416  0.00  0.00    +0.000 C 
ATOM      7  C   UNL     1      50.457  17.472  10.001  0.00  0.00    +0.000 C 
ATOM      8  C   UNL     1      50.646  16.651  12.356  0.00  0.00    +0.000 C 
ATOM      9  C   UNL     1      51.589  15.919  13.279  0.00  0.00    +0.000 C 
ATOM     10  C   UNL     1      52.832  17.723   9.884  0.00  0.00    +0.000 C 
ATOM     11  C   UNL     1      54.812  17.284  12.193  0.00  0.00    +0.000 C 
ATOM     12  C   UNL     1      51.562  17.508   9.104  0.00  0.00    +0.000 C 
ATOM     13  C   UNL     1      55.553  15.692  14.046  0.00  0.00    +0.000 C 
ATOM     14  C   UNL     1      50.462  19.138  11.896  0.00  0.00    +0.000 C 
ATOM     15  C   UNL     1      55.869  16.617  13.021  0.00  0.00    +0.000 C 
ATOM     16  C   UNL     1      53.722  14.130  14.597  0.00  0.00    +0.000 C 
ATOM     17  C   UNL     1      53.736  16.384  15.742  0.00  0.00    +0.000 C 
ATOM     18  C   UNL     1      54.683  12.920  14.598  0.00  0.00    +0.000 C 
ATOM     19  C   UNL     1      56.259  14.583  14.115  0.00  0.00    +0.000 C 
ATOM     20  C   UNL     1      56.091  13.156  14.345  0.00  0.00    +0.000 C 
ENDROOT
BRANCH   7  21
ATOM     21  C   UNL     1      49.084  17.259   9.614  0.00  0.00    +0.000 C 
ATOM     22  O   UNL     1      48.208  16.822  10.342  0.00  0.00    +0.000 OA
ATOM     23  C   UNL     1      48.524  17.638   8.283  0.00  0.00    +0.000 C 
ENDBRANCH   7  21
TORSDOF 1
ENDMDL
MODEL 7
REMARK VINA RESULT:      -5.8     12.442     14.270
REMARK  Name = Progesterone.pdbqt.pdb
REMARK  1 active torsions:
REMARK  status: ('A' for Active; 'I' for Inactive)
REMARK    1  A    between atoms: C_7  and  C_21
REMARK                            x       y       z     vdW  Elec       q    Type
REMARK                         _______ _______ _______ _____ _____    ______ ____
ROOT
ATOM      1  O   UNL     1      56.506   7.745  14.586  0.00  0.00    +0.000 OA
ATOM      2  C   UNL     1      50.905   5.304   9.972  0.00  0.00    +0.000 C 
ATOM      3  C   UNL     1      50.016   3.989  10.318  0.00  0.00    +0.000 C 
ATOM      4  C   UNL     1      51.549   6.122  11.019  0.00  0.00    +0.000 C 
ATOM      5  C   UNL     1      51.714   5.741  12.464  0.00  0.00    +0.000 C 
ATOM      6  C   UNL     1      52.289   6.683  13.545  0.00  0.00    +0.000 C 
ATOM      7  C   UNL     1      50.456   3.005   9.276  0.00  0.00    +0.000 C 
ATOM      8  C   UNL     1      50.397   3.655  11.691  0.00  0.00    +0.000 C 
ATOM      9  C   UNL     1      51.160   4.456  12.716  0.00  0.00    +0.000 C 
ATOM     10  C   UNL     1      51.586   5.043   8.741  0.00  0.00    +0.000 C 
ATOM     11  C   UNL     1      52.215   7.328  10.698  0.00  0.00    +0.000 C 
ATOM     12  C   UNL     1      51.328   3.618   8.332  0.00  0.00    +0.000 C 
ATOM     13  C   UNL     1      53.218   7.928  12.968  0.00  0.00    +0.000 C 
ATOM     14  C   UNL     1      48.536   4.397  10.136  0.00  0.00    +0.000 C 
ATOM     15  C   UNL     1      53.021   8.218  11.595  0.00  0.00    +0.000 C 
ATOM     16  C   UNL     1      53.247   5.939  14.429  0.00  0.00    +0.000 C 
ATOM     17  C   UNL     1      51.130   7.320  14.357  0.00  0.00    +0.000 C 
ATOM     18  C   UNL     1      54.698   6.222  14.876  0.00  0.00    +0.000 C 
ATOM     19  C   UNL     1      54.431   8.068  13.460  0.00  0.00    +0.000 C 
ATOM     20  C   UNL     1      55.362   7.402  14.358  0.00  0.00    +0.000 C 
ENDROOT
BRANCH   7  21
ATOM     21  C   UNL     1      50.008   1.635   9.221  0.00  0.00    +0.000 C 
ATOM     22  O   UNL     1      50.508   0.706   9.834  0.00  0.00    +0.000 OA
ATOM     23  C   UNL     1      48.799   1.182   8.472  0.00  0.00    +0.000 C 
ENDBRANCH   7  21
TORSDOF 1
ENDMDL
MODEL 8
REMARK VINA RESULT:      -5.6     11.576     14.979
REMARK  Name = Progesterone.pdbqt.pdb
REMARK  1 active torsions:
REMARK  status: ('A' for Active; 'I' for Inactive)
REMARK    1  A    between atoms: C_7  and  C_21
REMARK                            x       y       z     vdW  Elec       q    Type
REMARK                         _______ _______ _______ _____ _____    ______ ____
ROOT
ATOM      1  O   UNL     1      46.462  10.920  27.850  0.00  0.00    +0.000 OA
ATOM      2  C   UNL     1      41.391   6.171  24.633  0.00  0.00    +0.000 C 
ATOM      3  C   UNL     1      41.021   4.732  25.290  0.00  0.00    +0.000 C 
ATOM      4  C   UNL     1      41.869   7.311  25.439  0.00  0.00    +0.000 C 
ATOM      5  C   UNL     1      42.330   7.252  26.869  0.00  0.00    +0.000 C 
ATOM      6  C   UNL     1      42.708   8.494  27.706  0.00  0.00    +0.000 C 
ATOM      7  C   UNL     1      41.615   3.757  24.317  0.00  0.00    +0.000 C 
ATOM      8  C   UNL     1      41.661   4.768  26.605  0.00  0.00    +0.000 C 
ATOM      9  C   UNL     1      42.253   5.924  27.373  0.00  0.00    +0.000 C 
ATOM     10  C   UNL     1      41.956   5.914  23.343  0.00  0.00    +0.000 C 
ATOM     11  C   UNL     1      42.067   8.585  24.859  0.00  0.00    +0.000 C 
ATOM     12  C   UNL     1      42.117   4.428  23.166  0.00  0.00    +0.000 C 
ATOM     13  C   UNL     1      43.108   9.839  26.825  0.00  0.00    +0.000 C 
ATOM     14  C   UNL     1      39.478   4.645  25.322  0.00  0.00    +0.000 C 
ATOM     15  C   UNL     1      42.655   9.815  25.483  0.00  0.00    +0.000 C 
ATOM     16  C   UNL     1      43.958   8.231  28.494  0.00  0.00    +0.000 C 
ATOM     17  C   UNL     1      41.521   8.890  28.624  0.00  0.00    +0.000 C 
ATOM     18  C   UNL     1      45.288   9.004  28.640  0.00  0.00    +0.000 C 
ATOM     19  C   UNL     1      44.266  10.414  27.075  0.00  0.00    +0.000 C 
ATOM     20  C   UNL     1      45.468  10.220  27.871  0.00  0.00    +0.000 C 
ENDROOT
BRANCH   7  21
ATOM     21  C   UNL     1      41.626   2.328  24.514  0.00  0.00    +0.000 C 
ATOM     22  O   UNL     1      40.748   1.562  24.154  0.00  0.00    +0.000 OA
ATOM     23  C   UNL     1      42.772   1.577  25.106  0.00  0.00    +0.000 C 
ENDBRANCH   7  21
TORSDOF 1
ENDMDL
MODEL 9
REMARK VINA RESULT:      -5.4      3.568      5.632
REMARK  Name = Progesterone.pdbqt.pdb
REMARK  1 active torsions:
REMARK  status: ('A' for Active; 'I' for Inactive)
REMARK    1  A    between atoms: C_7  and  C_21
REMARK                            x       y       z     vdW  Elec       q    Type
REMARK                         _______ _______ _______ _____ _____    ______ ____
ROOT
ATOM      1  O   UNL     1      36.354  -9.256  15.715  0.00  0.00    +0.000 OA
ATOM      2  C   UNL     1      41.444  -3.565  15.148  0.00  0.00    +0.000 C 
ATOM      3  C   UNL     1      41.018  -2.074  14.666  0.00  0.00    +0.000 C 
ATOM      4  C   UNL     1      40.496  -4.485  15.807  0.00  0.00    +0.000 C 
ATOM      5  C   UNL     1      39.004  -4.314  15.885  0.00  0.00    +0.000 C 
ATOM      6  C   UNL     1      38.069  -5.243  16.689  0.00  0.00    +0.000 C 
ATOM      7  C   UNL     1      41.671  -1.957  13.321  0.00  0.00    +0.000 C 
ATOM      8  C   UNL     1      39.555  -2.111  14.647  0.00  0.00    +0.000 C 
ATOM      9  C   UNL     1      38.596  -3.122  15.225  0.00  0.00    +0.000 C 
ATOM     10  C   UNL     1      42.388  -4.064  14.195  0.00  0.00    +0.000 C 
ATOM     11  C   UNL     1      40.925  -5.729  16.324  0.00  0.00    +0.000 C 
ATOM     12  C   UNL     1      42.502  -3.083  13.059  0.00  0.00    +0.000 C 
ATOM     13  C   UNL     1      38.688  -6.744  17.021  0.00  0.00    +0.000 C 
ATOM     14  C   UNL     1      41.628  -1.088  15.688  0.00  0.00    +0.000 C 
ATOM     15  C   UNL     1      40.098  -6.833  16.910  0.00  0.00    +0.000 C 
ATOM     16  C   UNL     1      36.839  -5.562  15.891  0.00  0.00    +0.000 C 
ATOM     17  C   UNL     1      37.720  -4.586  18.050  0.00  0.00    +0.000 C 
ATOM     18  C   UNL     1      36.145  -6.892  15.519  0.00  0.00    +0.000 C 
ATOM     19  C   UNL     1      37.974  -7.793  16.670  0.00  0.00    +0.000 C 
ATOM     20  C   UNL     1      36.755  -8.134  15.953  0.00  0.00    +0.000 C 
ENDROOT
BRANCH   7  21
ATOM     21  C   UNL     1      41.507  -0.827  12.440  0.00  0.00    +0.000 C 
ATOM     22  O   UNL     1      41.127   0.281  12.780  0.00  0.00    +0.000 OA
ATOM     23  C   UNL     1      41.877  -0.836  10.993  0.00  0.00    +0.000 C 
ENDBRANCH   7  21
TORSDOF 1
ENDMDL
