MODEL 1
REMARK VINA RESULT:      -7.4      0.000      0.000
REMARK  Name = Quercetin.pdbqt.pdb
REMARK  6 active torsions:
REMARK  status: ('A' for Active; 'I' for Inactive)
REMARK    1  A    between atoms: C_5  and  C_12
REMARK    2  A    between atoms: C_6  and  O_22
REMARK    3  A    between atoms: C_8  and  O_24
REMARK    4  A    between atoms: C_10  and  O_26
REMARK    5  A    between atoms: C_15  and  O_18
REMARK    6  A    between atoms: C_17  and  O_20
REMARK                            x       y       z     vdW  Elec       q    Type
REMARK                         _______ _______ _______ _____ _____    ______ ____
ROOT
ATOM      1  O   UNL     1      36.895  15.016  21.056  0.00  0.00    +0.000 OA
ATOM      2  O   UNL     1      33.560  16.904  19.700  0.00  0.00    +0.000 OA
ATOM      3  C   UNL     1      35.885  16.877  19.874  0.00  0.00    +0.000 A 
ATOM      4  C   UNL     1      36.992  16.192  20.363  0.00  0.00    +0.000 A 
ATOM      5  C   UNL     1      35.640  14.466  21.271  0.00  0.00    +0.000 A 
ATOM      6  C   UNL     1      34.480  15.026  20.865  0.00  0.00    +0.000 A 
ATOM      7  C   UNL     1      34.554  16.312  20.114  0.00  0.00    +0.000 A 
ATOM      8  C   UNL     1      36.059  18.077  19.173  0.00  0.00    +0.000 A 
ATOM      9  C   UNL     1      38.274  16.698  20.157  0.00  0.00    +0.000 A 
ATOM     10  C   UNL     1      38.436  17.890  19.459  0.00  0.00    +0.000 A 
ATOM     11  C   UNL     1      37.337  18.586  18.965  0.00  0.00    +0.000 A 
ENDROOT
BRANCH   5  12
ATOM     12  C   UNL     1      35.714  13.196  22.007  0.00  0.00    +0.000 A 
ATOM     13  C   UNL     1      35.744  13.175  23.405  0.00  0.00    +0.000 A 
ATOM     14  C   UNL     1      35.691  11.985  21.304  0.00  0.00    +0.000 A 
ATOM     15  C   UNL     1      35.776  11.959  24.076  0.00  0.00    +0.000 A 
ATOM     16  C   UNL     1      35.706  10.766  21.980  0.00  0.00    +0.000 A 
ATOM     17  C   UNL     1      35.731  10.763  23.368  0.00  0.00    +0.000 A 
BRANCH  15  18
ATOM     18  O   UNL     1      35.888  11.963  25.435  0.00  0.00    +0.000 OA
ATOM     19  H   UNL     1      36.602  11.339  25.665  0.00  0.00    +0.000 HD
ENDBRANCH  15  18
BRANCH  17  20
ATOM     20  O   UNL     1      35.688   9.571  24.030  0.00  0.00    +0.000 OA
ATOM     21  H   UNL     1      36.439   9.571  24.652  0.00  0.00    +0.000 HD
ENDBRANCH  17  20
ENDBRANCH   5  12
BRANCH   6  22
ATOM     22  O   UNL     1      33.218  14.514  21.103  0.00  0.00    +0.000 OA
ATOM     23  H   UNL     1      33.185  13.576  20.858  0.00  0.00    +0.000 HD
ENDBRANCH   6  22
BRANCH   8  24
ATOM     24  O   UNL     1      35.016  18.805  18.666  0.00  0.00    +0.000 OA
ATOM     25  H   UNL     1      34.294  18.180  18.420  0.00  0.00    +0.000 HD
ENDBRANCH   8  24
BRANCH  10  26
ATOM     26  O   UNL     1      39.701  18.365  19.271  0.00  0.00    +0.000 OA
ATOM     27  H   UNL     1      39.909  18.305  18.321  0.00  0.00    +0.000 HD
ENDBRANCH  10  26
TORSDOF 6
ENDMDL
MODEL 2
REMARK VINA RESULT:      -6.9     15.029     18.455
REMARK  Name = Quercetin.pdbqt.pdb
REMARK  6 active torsions:
REMARK  status: ('A' for Active; 'I' for Inactive)
REMARK    1  A    between atoms: C_5  and  C_12
REMARK    2  A    between atoms: C_6  and  O_22
REMARK    3  A    between atoms: C_8  and  O_24
REMARK    4  A    between atoms: C_10  and  O_26
REMARK    5  A    between atoms: C_15  and  O_18
REMARK    6  A    between atoms: C_17  and  O_20
REMARK                            x       y       z     vdW  Elec       q    Type
REMARK                         _______ _______ _______ _____ _____    ______ ____
ROOT
ATOM      1  O   UNL     1      41.310  -1.164  15.440  0.00  0.00    +0.000 OA
ATOM      2  O   UNL     1      40.043  -2.317  11.754  0.00  0.00    +0.000 OA
ATOM      3  C   UNL     1      41.471  -2.685  13.558  0.00  0.00    +0.000 A 
ATOM      4  C   UNL     1      41.869  -2.246  14.816  0.00  0.00    +0.000 A 
ATOM      5  C   UNL     1      40.286  -0.478  14.803  0.00  0.00    +0.000 A 
ATOM      6  C   UNL     1      39.808  -0.784  13.577  0.00  0.00    +0.000 A 
ATOM      7  C   UNL     1      40.404  -1.953  12.870  0.00  0.00    +0.000 A 
ATOM      8  C   UNL     1      42.089  -3.801  12.979  0.00  0.00    +0.000 A 
ATOM      9  C   UNL     1      42.882  -2.914  15.502  0.00  0.00    +0.000 A 
ATOM     10  C   UNL     1      43.489  -4.021  14.918  0.00  0.00    +0.000 A 
ATOM     11  C   UNL     1      43.101  -4.471  13.660  0.00  0.00    +0.000 A 
ENDROOT
BRANCH   5  12
ATOM     12  C   UNL     1      39.782   0.638  15.615  0.00  0.00    +0.000 A 
ATOM     13  C   UNL     1      39.177   0.410  16.855  0.00  0.00    +0.000 A 
ATOM     14  C   UNL     1      39.963   1.955  15.172  0.00  0.00    +0.000 A 
ATOM     15  C   UNL     1      38.743   1.486  17.619  0.00  0.00    +0.000 A 
ATOM     16  C   UNL     1      39.542   3.033  15.949  0.00  0.00    +0.000 A 
ATOM     17  C   UNL     1      38.948   2.790  17.179  0.00  0.00    +0.000 A 
BRANCH  15  18
ATOM     18  O   UNL     1      38.083   1.238  18.787  0.00  0.00    +0.000 OA
ATOM     19  H   UNL     1      38.156   2.043  19.333  0.00  0.00    +0.000 HD
ENDBRANCH  15  18
BRANCH  17  20
ATOM     20  O   UNL     1      38.588   3.847  17.963  0.00  0.00    +0.000 OA
ATOM     21  H   UNL     1      38.271   4.545  17.359  0.00  0.00    +0.000 HD
ENDBRANCH  17  20
ENDBRANCH   5  12
BRANCH   6  22
ATOM     22  O   UNL     1      38.817  -0.089  12.910  0.00  0.00    +0.000 OA
ATOM     23  H   UNL     1      39.204   0.639  12.398  0.00  0.00    +0.000 HD
ENDBRANCH   6  22
BRANCH   8  24
ATOM     24  O   UNL     1      41.751  -4.287  11.745  0.00  0.00    +0.000 OA
ATOM     25  H   UNL     1      40.813  -4.591  11.779  0.00  0.00    +0.000 HD
ENDBRANCH   8  24
BRANCH  10  26
ATOM     26  O   UNL     1      44.478  -4.657  15.609  0.00  0.00    +0.000 OA
ATOM     27  H   UNL     1      45.268  -4.698  15.040  0.00  0.00    +0.000 HD
ENDBRANCH  10  26
TORSDOF 6
ENDMDL
MODEL 3
REMARK VINA RESULT:      -6.7     15.842     18.805
REMARK  Name = Quercetin.pdbqt.pdb
REMARK  6 active torsions:
REMARK  status: ('A' for Active; 'I' for Inactive)
REMARK    1  A    between atoms: C_5  and  C_12
REMARK    2  A    between atoms: C_6  and  O_22
REMARK    3  A    between atoms: C_8  and  O_24
REMARK    4  A    between atoms: C_10  and  O_26
REMARK    5  A    between atoms: C_15  and  O_18
REMARK    6  A    between atoms: C_17  and  O_20
REMARK                            x       y       z     vdW  Elec       q    Type
REMARK                         _______ _______ _______ _____ _____    ______ ____
ROOT
ATOM      1  O   UNL     1      41.833  -1.290  15.796  0.00  0.00    +0.000 OA
ATOM      2  O   UNL     1      40.229   1.018  12.859  0.00  0.00    +0.000 OA
ATOM      3  C   UNL     1      40.556   0.664  15.140  0.00  0.00    +0.000 A 
ATOM      4  C   UNL     1      41.122  -0.163  16.104  0.00  0.00    +0.000 A 
ATOM      5  C   UNL     1      42.017  -1.623  14.462  0.00  0.00    +0.000 A 
ATOM      6  C   UNL     1      41.515  -0.921  13.422  0.00  0.00    +0.000 A 
ATOM      7  C   UNL     1      40.729   0.308  13.728  0.00  0.00    +0.000 A 
ATOM      8  C   UNL     1      39.838   1.803  15.528  0.00  0.00    +0.000 A 
ATOM      9  C   UNL     1      40.977   0.140  17.457  0.00  0.00    +0.000 A 
ATOM     10  C   UNL     1      40.264   1.274  17.832  0.00  0.00    +0.000 A 
ATOM     11  C   UNL     1      39.692   2.109  16.878  0.00  0.00    +0.000 A 
ENDROOT
BRANCH   5  12
ATOM     12  C   UNL     1      42.821  -2.843  14.304  0.00  0.00    +0.000 A 
ATOM     13  C   UNL     1      42.346  -3.925  13.555  0.00  0.00    +0.000 A 
ATOM     14  C   UNL     1      44.106  -2.904  14.858  0.00  0.00    +0.000 A 
ATOM     15  C   UNL     1      43.142  -5.052  13.391  0.00  0.00    +0.000 A 
ATOM     16  C   UNL     1      44.908  -4.030  14.677  0.00  0.00    +0.000 A 
ATOM     17  C   UNL     1      44.424  -5.092  13.927  0.00  0.00    +0.000 A 
BRANCH  15  18
ATOM     18  O   UNL     1      42.628  -6.127  12.727  0.00  0.00    +0.000 OA
ATOM     19  H   UNL     1      42.797  -6.912  13.280  0.00  0.00    +0.000 HD
ENDBRANCH  15  18
BRANCH  17  20
ATOM     20  O   UNL     1      45.232  -6.169  13.704  0.00  0.00    +0.000 OA
ATOM     21  H   UNL     1      45.711  -5.989  12.874  0.00  0.00    +0.000 HD
ENDBRANCH  17  20
ENDBRANCH   5  12
BRANCH   6  22
ATOM     22  O   UNL     1      41.654  -1.258  12.089  0.00  0.00    +0.000 OA
ATOM     23  H   UNL     1      40.787  -1.269  11.654  0.00  0.00    +0.000 HD
ENDBRANCH   6  22
BRANCH   8  24
ATOM     24  O   UNL     1      39.253   2.659  14.635  0.00  0.00    +0.000 OA
ATOM     25  H   UNL     1      38.929   3.447  15.129  0.00  0.00    +0.000 HD
ENDBRANCH   8  24
BRANCH  10  26
ATOM     26  O   UNL     1      40.136   1.549  19.162  0.00  0.00    +0.000 OA
ATOM     27  H   UNL     1      40.695   2.320  19.367  0.00  0.00    +0.000 HD
ENDBRANCH  10  26
TORSDOF 6
ENDMDL
MODEL 4
REMARK VINA RESULT:      -6.7     17.656     20.551
REMARK  Name = Quercetin.pdbqt.pdb
REMARK  6 active torsions:
REMARK  status: ('A' for Active; 'I' for Inactive)
REMARK    1  A    between atoms: C_5  and  C_12
REMARK    2  A    between atoms: C_6  and  O_22
REMARK    3  A    between atoms: C_8  and  O_24
REMARK    4  A    between atoms: C_10  and  O_26
REMARK    5  A    between atoms: C_15  and  O_18
REMARK    6  A    between atoms: C_17  and  O_20
REMARK                            x       y       z     vdW  Elec       q    Type
REMARK                         _______ _______ _______ _____ _____    ______ ____
ROOT
ATOM      1  O   UNL     1      42.284  -2.694  14.968  0.00  0.00    +0.000 OA
ATOM      2  O   UNL     1      40.179  -2.016  11.557  0.00  0.00    +0.000 OA
ATOM      3  C   UNL     1      40.864  -1.240  13.646  0.00  0.00    +0.000 A 
ATOM      4  C   UNL     1      41.596  -1.525  14.793  0.00  0.00    +0.000 A 
ATOM      5  C   UNL     1      42.270  -3.639  13.951  0.00  0.00    +0.000 A 
ATOM      6  C   UNL     1      41.593  -3.502  12.791  0.00  0.00    +0.000 A 
ATOM      7  C   UNL     1      40.827  -2.241  12.576  0.00  0.00    +0.000 A 
ATOM      8  C   UNL     1      40.182  -0.021  13.535  0.00  0.00    +0.000 A 
ATOM      9  C   UNL     1      41.653  -0.600  15.834  0.00  0.00    +0.000 A 
ATOM     10  C   UNL     1      40.973   0.608  15.714  0.00  0.00    +0.000 A 
ATOM     11  C   UNL     1      40.236   0.906  14.572  0.00  0.00    +0.000 A 
ENDROOT
BRANCH   5  12
ATOM     12  C   UNL     1      43.074  -4.822  14.287  0.00  0.00    +0.000 A 
ATOM     13  C   UNL     1      44.339  -5.016  13.723  0.00  0.00    +0.000 A 
ATOM     14  C   UNL     1      42.596  -5.739  15.232  0.00  0.00    +0.000 A 
ATOM     15  C   UNL     1      45.094  -6.124  14.087  0.00  0.00    +0.000 A 
ATOM     16  C   UNL     1      43.363  -6.841  15.608  0.00  0.00    +0.000 A 
ATOM     17  C   UNL     1      44.618  -7.016  15.042  0.00  0.00    +0.000 A 
BRANCH  15  18
ATOM     18  O   UNL     1      46.288  -6.338  13.465  0.00  0.00    +0.000 OA
ATOM     19  H   UNL     1      46.450  -7.299  13.479  0.00  0.00    +0.000 HD
ENDBRANCH  15  18
BRANCH  17  20
ATOM     20  O   UNL     1      45.390  -8.064  15.452  0.00  0.00    +0.000 OA
ATOM     21  H   UNL     1      44.931  -8.467  16.212  0.00  0.00    +0.000 HD
ENDBRANCH  17  20
ENDBRANCH   5  12
BRANCH   6  22
ATOM     22  O   UNL     1      41.534  -4.447  11.784  0.00  0.00    +0.000 OA
ATOM     23  H   UNL     1      42.402  -4.539  11.359  0.00  0.00    +0.000 HD
ENDBRANCH   6  22
BRANCH   8  24
ATOM     24  O   UNL     1      39.441   0.325  12.438  0.00  0.00    +0.000 OA
ATOM     25  H   UNL     1      39.788   1.178  12.087  0.00  0.00    +0.000 HD
ENDBRANCH   8  24
BRANCH  10  26
ATOM     26  O   UNL     1      41.044   1.497  16.747  0.00  0.00    +0.000 OA
ATOM     27  H   UNL     1      41.032   0.994  17.581  0.00  0.00    +0.000 HD
ENDBRANCH  10  26
TORSDOF 6
ENDMDL
MODEL 5
REMARK VINA RESULT:      -6.6     13.651     17.047
REMARK  Name = Quercetin.pdbqt.pdb
REMARK  6 active torsions:
REMARK  status: ('A' for Active; 'I' for Inactive)
REMARK    1  A    between atoms: C_5  and  C_12
REMARK    2  A    between atoms: C_6  and  O_22
REMARK    3  A    between atoms: C_8  and  O_24
REMARK    4  A    between atoms: C_10  and  O_26
REMARK    5  A    between atoms: C_15  and  O_18
REMARK    6  A    between atoms: C_17  and  O_20
REMARK                            x       y       z     vdW  Elec       q    Type
REMARK                         _______ _______ _______ _____ _____    ______ ____
ROOT
ATOM      1  O   UNL     1      40.515  -0.462  16.011  0.00  0.00    +0.000 OA
ATOM      2  O   UNL     1      39.701   0.445  12.133  0.00  0.00    +0.000 OA
ATOM      3  C   UNL     1      40.446  -1.131  13.682  0.00  0.00    +0.000 A 
ATOM      4  C   UNL     1      40.712  -1.386  15.022  0.00  0.00    +0.000 A 
ATOM      5  C   UNL     1      40.012   0.786  15.673  0.00  0.00    +0.000 A 
ATOM      6  C   UNL     1      39.721   1.177  14.413  0.00  0.00    +0.000 A 
ATOM      7  C   UNL     1      39.933   0.193  13.313  0.00  0.00    +0.000 A 
ATOM      8  C   UNL     1      40.672  -2.125  12.721  0.00  0.00    +0.000 A 
ATOM      9  C   UNL     1      41.203  -2.631  15.413  0.00  0.00    +0.000 A 
ATOM     10  C   UNL     1      41.423  -3.612  14.451  0.00  0.00    +0.000 A 
ATOM     11  C   UNL     1      41.162  -3.369  13.107  0.00  0.00    +0.000 A 
ENDROOT
BRANCH   5  12
ATOM     12  C   UNL     1      39.838   1.649  16.850  0.00  0.00    +0.000 A 
ATOM     13  C   UNL     1      39.782   3.040  16.721  0.00  0.00    +0.000 A 
ATOM     14  C   UNL     1      39.664   1.070  18.114  0.00  0.00    +0.000 A 
ATOM     15  C   UNL     1      39.580   3.829  17.845  0.00  0.00    +0.000 A 
ATOM     16  C   UNL     1      39.444   1.864  19.238  0.00  0.00    +0.000 A 
ATOM     17  C   UNL     1      39.387   3.243  19.091  0.00  0.00    +0.000 A 
BRANCH  15  18
ATOM     18  O   UNL     1      39.611   5.186  17.709  0.00  0.00    +0.000 OA
ATOM     19  H   UNL     1      38.714   5.514  17.909  0.00  0.00    +0.000 HD
ENDBRANCH  15  18
BRANCH  17  20
ATOM     20  O   UNL     1      39.115   4.015  20.183  0.00  0.00    +0.000 OA
ATOM     21  H   UNL     1      38.751   3.417  20.862  0.00  0.00    +0.000 HD
ENDBRANCH  17  20
ENDBRANCH   5  12
BRANCH   6  22
ATOM     22  O   UNL     1      39.257   2.427  14.051  0.00  0.00    +0.000 OA
ATOM     23  H   UNL     1      39.965   2.939  13.629  0.00  0.00    +0.000 HD
ENDBRANCH   6  22
BRANCH   8  24
ATOM     24  O   UNL     1      40.436  -1.942  11.386  0.00  0.00    +0.000 OA
ATOM     25  H   UNL     1      40.896  -1.119  11.100  0.00  0.00    +0.000 HD
ENDBRANCH   8  24
BRANCH  10  26
ATOM     26  O   UNL     1      41.904  -4.822  14.859  0.00  0.00    +0.000 OA
ATOM     27  H   UNL     1      41.146  -5.386  15.093  0.00  0.00    +0.000 HD
ENDBRANCH  10  26
TORSDOF 6
ENDMDL
MODEL 6
REMARK VINA RESULT:      -6.4     19.022     21.047
REMARK  Name = Quercetin.pdbqt.pdb
REMARK  6 active torsions:
REMARK  status: ('A' for Active; 'I' for Inactive)
REMARK    1  A    between atoms: C_5  and  C_12
REMARK    2  A    between atoms: C_6  and  O_22
REMARK    3  A    between atoms: C_8  and  O_24
REMARK    4  A    between atoms: C_10  and  O_26
REMARK    5  A    between atoms: C_15  and  O_18
REMARK    6  A    between atoms: C_17  and  O_20
REMARK                            x       y       z     vdW  Elec       q    Type
REMARK                         _______ _______ _______ _____ _____    ______ ____
ROOT
ATOM      1  O   UNL     1      43.561  -2.445  15.436  0.00  0.00    +0.000 OA
ATOM      2  O   UNL     1      42.901  -6.004  13.587  0.00  0.00    +0.000 OA
ATOM      3  C   UNL     1      42.630  -3.689  13.575  0.00  0.00    +0.000 A 
ATOM      4  C   UNL     1      42.879  -2.500  14.251  0.00  0.00    +0.000 A 
ATOM      5  C   UNL     1      44.043  -3.622  15.988  0.00  0.00    +0.000 A 
ATOM      6  C   UNL     1      43.865  -4.848  15.449  0.00  0.00    +0.000 A 
ATOM      7  C   UNL     1      43.119  -4.940  14.162  0.00  0.00    +0.000 A 
ATOM      8  C   UNL     1      41.923  -3.671  12.365  0.00  0.00    +0.000 A 
ATOM      9  C   UNL     1      42.428  -1.290  13.727  0.00  0.00    +0.000 A 
ATOM     10  C   UNL     1      41.729  -1.283  12.524  0.00  0.00    +0.000 A 
ATOM     11  C   UNL     1      41.472  -2.465  11.838  0.00  0.00    +0.000 A 
ENDROOT
BRANCH   5  12
ATOM     12  C   UNL     1      44.770  -3.386  17.243  0.00  0.00    +0.000 A 
ATOM     13  C   UNL     1      46.090  -3.817  17.403  0.00  0.00    +0.000 A 
ATOM     14  C   UNL     1      44.154  -2.665  18.275  0.00  0.00    +0.000 A 
ATOM     15  C   UNL     1      46.766  -3.547  18.586  0.00  0.00    +0.000 A 
ATOM     16  C   UNL     1      44.840  -2.381  19.455  0.00  0.00    +0.000 A 
ATOM     17  C   UNL     1      46.152  -2.812  19.595  0.00  0.00    +0.000 A 
BRANCH  15  18
ATOM     18  O   UNL     1      48.024  -4.047  18.753  0.00  0.00    +0.000 OA
ATOM     19  H   UNL     1      47.997  -4.984  18.482  0.00  0.00    +0.000 HD
ENDBRANCH  15  18
BRANCH  17  20
ATOM     20  O   UNL     1      46.840  -2.485  20.727  0.00  0.00    +0.000 OA
ATOM     21  H   UNL     1      47.250  -3.309  21.051  0.00  0.00    +0.000 HD
ENDBRANCH  17  20
ENDBRANCH   5  12
BRANCH   6  22
ATOM     22  O   UNL     1      44.303  -6.036  16.003  0.00  0.00    +0.000 OA
ATOM     23  H   UNL     1      43.576  -6.677  16.040  0.00  0.00    +0.000 HD
ENDBRANCH   6  22
BRANCH   8  24
ATOM     24  O   UNL     1      41.640  -4.802  11.648  0.00  0.00    +0.000 OA
ATOM     25  H   UNL     1      41.753  -4.597  10.690  0.00  0.00    +0.000 HD
ENDBRANCH   8  24
BRANCH  10  26
ATOM     26  O   UNL     1      41.298  -0.086  12.032  0.00  0.00    +0.000 OA
ATOM     27  H   UNL     1      41.202   0.532  12.779  0.00  0.00    +0.000 HD
ENDBRANCH  10  26
TORSDOF 6
ENDMDL
MODEL 7
REMARK VINA RESULT:      -6.2     24.202     25.897
REMARK  Name = Quercetin.pdbqt.pdb
REMARK  6 active torsions:
REMARK  status: ('A' for Active; 'I' for Inactive)
REMARK    1  A    between atoms: C_5  and  C_12
REMARK    2  A    between atoms: C_6  and  O_22
REMARK    3  A    between atoms: C_8  and  O_24
REMARK    4  A    between atoms: C_10  and  O_26
REMARK    5  A    between atoms: C_15  and  O_18
REMARK    6  A    between atoms: C_17  and  O_20
REMARK                            x       y       z     vdW  Elec       q    Type
REMARK                         _______ _______ _______ _____ _____    ______ ____
ROOT
ATOM      1  O   UNL     1      50.404  -1.839   7.632  0.00  0.00    +0.000 OA
ATOM      2  O   UNL     1      50.399   0.255   4.148  0.00  0.00    +0.000 OA
ATOM      3  C   UNL     1      50.341  -1.821   5.208  0.00  0.00    +0.000 A 
ATOM      4  C   UNL     1      50.349  -2.487   6.428  0.00  0.00    +0.000 A 
ATOM      5  C   UNL     1      50.436  -0.453   7.646  0.00  0.00    +0.000 A 
ATOM      6  C   UNL     1      50.446   0.323   6.541  0.00  0.00    +0.000 A 
ATOM      7  C   UNL     1      50.395  -0.356   5.214  0.00  0.00    +0.000 A 
ATOM      8  C   UNL     1      50.284  -2.549   4.013  0.00  0.00    +0.000 A 
ATOM      9  C   UNL     1      50.301  -3.880   6.465  0.00  0.00    +0.000 A 
ATOM     10  C   UNL     1      50.245  -4.594   5.272  0.00  0.00    +0.000 A 
ATOM     11  C   UNL     1      50.237  -3.940   4.045  0.00  0.00    +0.000 A 
ENDROOT
BRANCH   5  12
ATOM     12  C   UNL     1      50.469   0.084   9.014  0.00  0.00    +0.000 A 
ATOM     13  C   UNL     1      49.301   0.182   9.777  0.00  0.00    +0.000 A 
ATOM     14  C   UNL     1      51.695   0.446   9.587  0.00  0.00    +0.000 A 
ATOM     15  C   UNL     1      49.367   0.658  11.080  0.00  0.00    +0.000 A 
ATOM     16  C   UNL     1      51.760   0.908  10.901  0.00  0.00    +0.000 A 
ATOM     17  C   UNL     1      50.592   0.995  11.646  0.00  0.00    +0.000 A 
BRANCH  15  18
ATOM     18  O   UNL     1      48.206   0.823  11.778  0.00  0.00    +0.000 OA
ATOM     19  H   UNL     1      48.165   0.105  12.437  0.00  0.00    +0.000 HD
ENDBRANCH  15  18
BRANCH  17  20
ATOM     20  O   UNL     1      50.665   1.392  12.949  0.00  0.00    +0.000 OA
ATOM     21  H   UNL     1      51.357   2.078  12.992  0.00  0.00    +0.000 HD
ENDBRANCH  17  20
ENDBRANCH   5  12
BRANCH   6  22
ATOM     22  O   UNL     1      50.517   1.703   6.533  0.00  0.00    +0.000 OA
ATOM     23  H   UNL     1      51.443   1.991   6.494  0.00  0.00    +0.000 HD
ENDBRANCH   6  22
BRANCH   8  24
ATOM     24  O   UNL     1      50.275  -1.960   2.778  0.00  0.00    +0.000 OA
ATOM     25  H   UNL     1      50.924  -1.218   2.784  0.00  0.00    +0.000 HD
ENDBRANCH   8  24
BRANCH  10  26
ATOM     26  O   UNL     1      50.199  -5.956   5.334  0.00  0.00    +0.000 OA
ATOM     27  H   UNL     1      50.047  -6.212   6.261  0.00  0.00    +0.000 HD
ENDBRANCH  10  26
TORSDOF 6
ENDMDL
MODEL 8
REMARK VINA RESULT:      -6.2     13.407     16.154
REMARK  Name = Quercetin.pdbqt.pdb
REMARK  6 active torsions:
REMARK  status: ('A' for Active; 'I' for Inactive)
REMARK    1  A    between atoms: C_5  and  C_12
REMARK    2  A    between atoms: C_6  and  O_22
REMARK    3  A    between atoms: C_8  and  O_24
REMARK    4  A    between atoms: C_10  and  O_26
REMARK    5  A    between atoms: C_15  and  O_18
REMARK    6  A    between atoms: C_17  and  O_20
REMARK                            x       y       z     vdW  Elec       q    Type
REMARK                         _______ _______ _______ _____ _____    ______ ____
ROOT
ATOM      1  O   UNL     1      40.501  -0.307  17.005  0.00  0.00    +0.000 OA
ATOM      2  O   UNL     1      39.447   2.238  14.016  0.00  0.00    +0.000 OA
ATOM      3  C   UNL     1      40.052   0.079  14.654  0.00  0.00    +0.000 A 
ATOM      4  C   UNL     1      40.412  -0.747  15.713  0.00  0.00    +0.000 A 
ATOM      5  C   UNL     1      40.205   1.019  17.284  0.00  0.00    +0.000 A 
ATOM      6  C   UNL     1      39.855   1.936  16.356  0.00  0.00    +0.000 A 
ATOM      7  C   UNL     1      39.757   1.487  14.938  0.00  0.00    +0.000 A 
ATOM      8  C   UNL     1      39.982  -0.439  13.355  0.00  0.00    +0.000 A 
ATOM      9  C   UNL     1      40.703  -2.091  15.484  0.00  0.00    +0.000 A 
ATOM     10  C   UNL     1      40.630  -2.596  14.190  0.00  0.00    +0.000 A 
ATOM     11  C   UNL     1      40.272  -1.781  13.121  0.00  0.00    +0.000 A 
ENDROOT
BRANCH   5  12
ATOM     12  C   UNL     1      40.325   1.321  18.718  0.00  0.00    +0.000 A 
ATOM     13  C   UNL     1      39.248   1.852  19.434  0.00  0.00    +0.000 A 
ATOM     14  C   UNL     1      41.515   1.018  19.392  0.00  0.00    +0.000 A 
ATOM     15  C   UNL     1      39.378   2.093  20.796  0.00  0.00    +0.000 A 
ATOM     16  C   UNL     1      41.637   1.245  20.762  0.00  0.00    +0.000 A 
ATOM     17  C   UNL     1      40.556   1.768  21.459  0.00  0.00    +0.000 A 
BRANCH  15  18
ATOM     18  O   UNL     1      38.344   2.686  21.459  0.00  0.00    +0.000 OA
ATOM     19  H   UNL     1      38.608   2.758  22.395  0.00  0.00    +0.000 HD
ENDBRANCH  15  18
BRANCH  17  20
ATOM     20  O   UNL     1      40.658   1.937  22.809  0.00  0.00    +0.000 OA
ATOM     21  H   UNL     1      40.455   2.874  22.988  0.00  0.00    +0.000 HD
ENDBRANCH  17  20
ENDBRANCH   5  12
BRANCH   6  22
ATOM     22  O   UNL     1      39.594   3.269  16.608  0.00  0.00    +0.000 OA
ATOM     23  H   UNL     1      38.950   3.355  17.328  0.00  0.00    +0.000 HD
ENDBRANCH   6  22
BRANCH   8  24
ATOM     24  O   UNL     1      39.638   0.315  12.266  0.00  0.00    +0.000 OA
ATOM     25  H   UNL     1      39.935   1.242  12.426  0.00  0.00    +0.000 HD
ENDBRANCH   8  24
BRANCH  10  26
ATOM     26  O   UNL     1      40.919  -3.914  13.992  0.00  0.00    +0.000 OA
ATOM     27  H   UNL     1      40.787  -4.115  13.048  0.00  0.00    +0.000 HD
ENDBRANCH  10  26
TORSDOF 6
ENDMDL
MODEL 9
REMARK VINA RESULT:      -6.2     19.431     20.984
REMARK  Name = Quercetin.pdbqt.pdb
REMARK  6 active torsions:
REMARK  status: ('A' for Active; 'I' for Inactive)
REMARK    1  A    between atoms: C_5  and  C_12
REMARK    2  A    between atoms: C_6  and  O_22
REMARK    3  A    between atoms: C_8  and  O_24
REMARK    4  A    between atoms: C_10  and  O_26
REMARK    5  A    between atoms: C_15  and  O_18
REMARK    6  A    between atoms: C_17  and  O_20
REMARK                            x       y       z     vdW  Elec       q    Type
REMARK                         _______ _______ _______ _____ _____    ______ ____
ROOT
ATOM      1  O   UNL     1      51.519   7.422  10.039  0.00  0.00    +0.000 OA
ATOM      2  O   UNL     1      51.068   3.591   8.757  0.00  0.00    +0.000 OA
ATOM      3  C   UNL     1      51.391   5.835   8.211  0.00  0.00    +0.000 A 
ATOM      4  C   UNL     1      51.537   7.127   8.703  0.00  0.00    +0.000 A 
ATOM      5  C   UNL     1      51.366   6.389  10.952  0.00  0.00    +0.000 A 
ATOM      6  C   UNL     1      51.202   5.091  10.618  0.00  0.00    +0.000 A 
ATOM      7  C   UNL     1      51.208   4.740   9.169  0.00  0.00    +0.000 A 
ATOM      8  C   UNL     1      51.417   5.605   6.829  0.00  0.00    +0.000 A 
ATOM      9  C   UNL     1      51.709   8.194   7.825  0.00  0.00    +0.000 A 
ATOM     10  C   UNL     1      51.735   7.956   6.454  0.00  0.00    +0.000 A 
ATOM     11  C   UNL     1      51.590   6.669   5.948  0.00  0.00    +0.000 A 
ENDROOT
BRANCH   5  12
ATOM     12  C   UNL     1      51.393   6.872  12.340  0.00  0.00    +0.000 A 
ATOM     13  C   UNL     1      52.485   7.597  12.829  0.00  0.00    +0.000 A 
ATOM     14  C   UNL     1      50.285   6.659  13.170  0.00  0.00    +0.000 A 
ATOM     15  C   UNL     1      52.467   8.074  14.134  0.00  0.00    +0.000 A 
ATOM     16  C   UNL     1      50.263   7.153  14.473  0.00  0.00    +0.000 A 
ATOM     17  C   UNL     1      51.353   7.874  14.941  0.00  0.00    +0.000 A 
BRANCH  15  18
ATOM     18  O   UNL     1      53.575   8.707  14.616  0.00  0.00    +0.000 OA
ATOM     19  H   UNL     1      53.654   8.468  15.559  0.00  0.00    +0.000 HD
ENDBRANCH  15  18
BRANCH  17  20
ATOM     20  O   UNL     1      51.306   8.405  16.197  0.00  0.00    +0.000 OA
ATOM     21  H   UNL     1      50.405   8.245  16.533  0.00  0.00    +0.000 HD
ENDBRANCH  17  20
ENDBRANCH   5  12
BRANCH   6  22
ATOM     22  O   UNL     1      51.009   4.054  11.511  0.00  0.00    +0.000 OA
ATOM     23  H   UNL     1      50.064   3.843  11.581  0.00  0.00    +0.000 HD
ENDBRANCH   6  22
BRANCH   8  24
ATOM     24  O   UNL     1      51.278   4.361   6.275  0.00  0.00    +0.000 OA
ATOM     25  H   UNL     1      51.617   3.696   6.918  0.00  0.00    +0.000 HD
ENDBRANCH   8  24
BRANCH  10  26
ATOM     26  O   UNL     1      51.905   9.018   5.615  0.00  0.00    +0.000 OA
ATOM     27  H   UNL     1      52.413   9.700   6.088  0.00  0.00    +0.000 HD
ENDBRANCH  10  26
TORSDOF 6
ENDMDL
