MODEL 1
REMARK VINA RESULT:      -7.4      0.000      0.000
REMARK  Name = 
REMARK  11 active torsions:
REMARK  status: ('A' for Active; 'I' for Inactive)
REMARK    1  A    between atoms: O_2  and  C_16
REMARK    2  A    between atoms: O_2  and  C_18
REMARK    3  A    between atoms: O_3  and  C_12
REMARK    4  A    between atoms: O_4  and  C_13
REMARK    5  A    between atoms: O_5  and  C_14
REMARK    6  A    between atoms: O_8  and  C_24
REMARK    7  A    between atoms: O_9  and  C_29
REMARK    8  A    between atoms: O_10  and  C_30
REMARK    9  A    between atoms: O_11  and  C_32
REMARK   10  A    between atoms: C_15  and  C_17
REMARK   11  A    between atoms: C_19  and  C_23
REMARK                            x       y       z     vdW  Elec       q    Type
REMARK                         _______ _______ _______ _____ _____    ______ ____
ROOT
ATOM      1  O   UNL     1      42.227  -0.309  17.613  0.00  0.00    +0.000 OA
ATOM      2  O   UNL     1      44.872  -3.372  17.910  0.00  0.00    +0.000 OA
ATOM      3  C   UNL     1      42.956  -2.484  16.854  0.00  0.00    +0.000 A 
ATOM      4  C   UNL     1      42.185  -1.383  16.744  0.00  0.00    +0.000 A 
ATOM      5  C   UNL     1      44.006  -2.506  17.913  0.00  0.00    +0.000 A 
ATOM      6  C   UNL     1      43.957  -1.421  18.919  0.00  0.00    +0.000 A 
ATOM      7  C   UNL     1      43.065  -0.371  18.696  0.00  0.00    +0.000 A 
ATOM      8  C   UNL     1      44.765  -1.394  20.064  0.00  0.00    +0.000 A 
ATOM      9  C   UNL     1      42.986   0.698  19.592  0.00  0.00    +0.000 A 
ATOM     10  C   UNL     1      44.688  -0.328  20.967  0.00  0.00    +0.000 A 
ATOM     11  C   UNL     1      43.797   0.711  20.718  0.00  0.00    +0.000 A 
ENDROOT
BRANCH   4  12
ATOM     12  C   UNL     1      41.173  -1.217  15.680  0.00  0.00    +0.000 A 
ATOM     13  C   UNL     1      41.314  -0.178  14.743  0.00  0.00    +0.000 A 
ATOM     14  C   UNL     1      40.071  -2.086  15.579  0.00  0.00    +0.000 A 
ATOM     15  C   UNL     1      40.353  -0.009  13.753  0.00  0.00    +0.000 A 
ATOM     16  C   UNL     1      39.109  -1.905  14.583  0.00  0.00    +0.000 A 
ATOM     17  C   UNL     1      39.258  -0.864  13.682  0.00  0.00    +0.000 A 
BRANCH  15  18
ATOM     18  O   UNL     1      40.439   0.992  12.824  0.00  0.00    +0.000 OA
ATOM     19  H   UNL     1      40.525   1.840  13.293  0.00  0.00    +0.000 HD
ENDBRANCH  15  18
BRANCH  17  20
ATOM     20  O   UNL     1      38.315  -0.685  12.711  0.00  0.00    +0.000 OA
ATOM     21  H   UNL     1      38.345  -1.506  12.178  0.00  0.00    +0.000 HD
ENDBRANCH  17  20
ENDBRANCH   4  12
BRANCH   8  22
ATOM     22  O   UNL     1      45.629  -2.417  20.333  0.00  0.00    +0.000 OA
ATOM     23  H   UNL     1      45.463  -3.177  19.753  0.00  0.00    +0.000 HD
ENDBRANCH   8  22
BRANCH  11  24
ATOM     24  O   UNL     1      43.683   1.772  21.565  0.00  0.00    +0.000 OA
ATOM     25  H   UNL     1      42.922   1.638  22.153  0.00  0.00    +0.000 HD
ENDBRANCH  11  24
BRANCH   3  26
ATOM     26  O   UNL     1      42.902  -3.555  15.976  0.00  0.00    +0.000 OA
BRANCH  26  32
ATOM     27  O   UNL     1      43.502  -2.755  13.800  0.00  0.00    +0.000 OA
ATOM     28  C   UNL     1      43.378  -5.636  13.794  0.00  0.00    +0.000 C 
ATOM     29  C   UNL     1      42.952  -4.804  12.579  0.00  0.00    +0.000 C 
ATOM     30  C   UNL     1      44.417  -4.890  14.632  0.00  0.00    +0.000 C 
ATOM     31  C   UNL     1      42.476  -3.426  13.052  0.00  0.00    +0.000 C 
ATOM     32  C   UNL     1      43.920  -3.467  14.968  0.00  0.00    +0.000 C 
ATOM     33  C   UNL     1      42.108  -2.525  11.878  0.00  0.00    +0.000 C 
BRANCH  28  34
ATOM     34  O   UNL     1      43.926  -6.883  13.324  0.00  0.00    +0.000 OA
ATOM     35  H   UNL     1      44.236  -6.692  12.414  0.00  0.00    +0.000 HD
ENDBRANCH  28  34
BRANCH  29  36
ATOM     36  O   UNL     1      41.924  -5.504  11.872  0.00  0.00    +0.000 OA
ATOM     37  H   UNL     1      41.103  -5.339  12.377  0.00  0.00    +0.000 HD
ENDBRANCH  29  36
BRANCH  30  38
ATOM     38  O   UNL     1      45.648  -4.872  13.876  0.00  0.00    +0.000 OA
ATOM     39  H   UNL     1      46.077  -5.739  14.000  0.00  0.00    +0.000 HD
ENDBRANCH  30  38
ENDBRANCH  26  32
ENDBRANCH   3  26
TORSDOF 10
ENDMDL
MODEL 2
REMARK VINA RESULT:      -7.2      2.157      5.292
REMARK  Name = 
REMARK  11 active torsions:
REMARK  status: ('A' for Active; 'I' for Inactive)
REMARK    1  A    between atoms: O_2  and  C_16
REMARK    2  A    between atoms: O_2  and  C_18
REMARK    3  A    between atoms: O_3  and  C_12
REMARK    4  A    between atoms: O_4  and  C_13
REMARK    5  A    between atoms: O_5  and  C_14
REMARK    6  A    between atoms: O_8  and  C_24
REMARK    7  A    between atoms: O_9  and  C_29
REMARK    8  A    between atoms: O_10  and  C_30
REMARK    9  A    between atoms: O_11  and  C_32
REMARK   10  A    between atoms: C_15  and  C_17
REMARK   11  A    between atoms: C_19  and  C_23
REMARK                            x       y       z     vdW  Elec       q    Type
REMARK                         _______ _______ _______ _____ _____    ______ ____
ROOT
ATOM      1  O   UNL     1      43.649  -2.643  18.137  0.00  0.00    +0.000 OA
ATOM      2  O   UNL     1      42.855   1.033  19.661  0.00  0.00    +0.000 OA
ATOM      3  C   UNL     1      42.784  -0.414  17.795  0.00  0.00    +0.000 A 
ATOM      4  C   UNL     1      42.980  -1.686  17.397  0.00  0.00    +0.000 A 
ATOM      5  C   UNL     1      43.212  -0.032  19.173  0.00  0.00    +0.000 A 
ATOM      6  C   UNL     1      44.043  -1.015  19.905  0.00  0.00    +0.000 A 
ATOM      7  C   UNL     1      44.201  -2.280  19.337  0.00  0.00    +0.000 A 
ATOM      8  C   UNL     1      44.658  -0.740  21.134  0.00  0.00    +0.000 A 
ATOM      9  C   UNL     1      44.951  -3.263  19.987  0.00  0.00    +0.000 A 
ATOM     10  C   UNL     1      45.413  -1.719  21.789  0.00  0.00    +0.000 A 
ATOM     11  C   UNL     1      45.549  -2.975  21.206  0.00  0.00    +0.000 A 
ENDROOT
BRANCH   4  12
ATOM     12  C   UNL     1      42.520  -2.195  16.088  0.00  0.00    +0.000 A 
ATOM     13  C   UNL     1      43.028  -1.630  14.905  0.00  0.00    +0.000 A 
ATOM     14  C   UNL     1      41.585  -3.243  16.001  0.00  0.00    +0.000 A 
ATOM     15  C   UNL     1      42.581  -2.094  13.673  0.00  0.00    +0.000 A 
ATOM     16  C   UNL     1      41.139  -3.700  14.758  0.00  0.00    +0.000 A 
ATOM     17  C   UNL     1      41.639  -3.117  13.605  0.00  0.00    +0.000 A 
BRANCH  15  18
ATOM     18  O   UNL     1      43.037  -1.572  12.494  0.00  0.00    +0.000 OA
ATOM     19  H   UNL     1      42.413  -0.885  12.201  0.00  0.00    +0.000 HD
ENDBRANCH  15  18
BRANCH  17  20
ATOM     20  O   UNL     1      41.200  -3.561  12.392  0.00  0.00    +0.000 OA
ATOM     21  H   UNL     1      42.002  -3.592  11.832  0.00  0.00    +0.000 HD
ENDBRANCH  17  20
ENDBRANCH   4  12
BRANCH   8  22
ATOM     22  O   UNL     1      44.552   0.495  21.707  0.00  0.00    +0.000 OA
ATOM     23  H   UNL     1      44.467   0.428  22.671  0.00  0.00    +0.000 HD
ENDBRANCH   8  22
BRANCH  11  24
ATOM     24  O   UNL     1      46.273  -3.964  21.802  0.00  0.00    +0.000 OA
ATOM     25  H   UNL     1      45.841  -4.227  22.632  0.00  0.00    +0.000 HD
ENDBRANCH  11  24
BRANCH   3  26
ATOM     26  O   UNL     1      42.114   0.538  17.042  0.00  0.00    +0.000 OA
BRANCH  26  32
ATOM     27  O   UNL     1      40.052  -0.136  16.026  0.00  0.00    +0.000 OA
ATOM     28  C   UNL     1      40.105   2.729  16.347  0.00  0.00    +0.000 C 
ATOM     29  C   UNL     1      39.436   2.061  15.141  0.00  0.00    +0.000 C 
ATOM     30  C   UNL     1      40.105   1.796  17.559  0.00  0.00    +0.000 C 
ATOM     31  C   UNL     1      40.114   0.713  14.869  0.00  0.00    +0.000 C 
ATOM     32  C   UNL     1      40.690   0.417  17.180  0.00  0.00    +0.000 C 
ATOM     33  C   UNL     1      39.442  -0.033  13.722  0.00  0.00    +0.000 C 
BRANCH  28  34
ATOM     34  O   UNL     1      39.387   3.938  16.656  0.00  0.00    +0.000 OA
ATOM     35  H   UNL     1      39.992   4.663  16.393  0.00  0.00    +0.000 HD
ENDBRANCH  28  34
BRANCH  29  36
ATOM     36  O   UNL     1      39.531   2.936  14.012  0.00  0.00    +0.000 OA
ATOM     37  H   UNL     1      38.614   3.049  13.694  0.00  0.00    +0.000 HD
ENDBRANCH  29  36
BRANCH  30  38
ATOM     38  O   UNL     1      38.744   1.699  18.029  0.00  0.00    +0.000 OA
ATOM     39  H   UNL     1      38.409   0.821  17.769  0.00  0.00    +0.000 HD
ENDBRANCH  30  38
ENDBRANCH  26  32
ENDBRANCH   3  26
TORSDOF 10
ENDMDL
MODEL 3
REMARK VINA RESULT:      -6.9     17.499     20.956
REMARK  Name = 
REMARK  11 active torsions:
REMARK  status: ('A' for Active; 'I' for Inactive)
REMARK    1  A    between atoms: O_2  and  C_16
REMARK    2  A    between atoms: O_2  and  C_18
REMARK    3  A    between atoms: O_3  and  C_12
REMARK    4  A    between atoms: O_4  and  C_13
REMARK    5  A    between atoms: O_5  and  C_14
REMARK    6  A    between atoms: O_8  and  C_24
REMARK    7  A    between atoms: O_9  and  C_29
REMARK    8  A    between atoms: O_10  and  C_30
REMARK    9  A    between atoms: O_11  and  C_32
REMARK   10  A    between atoms: C_15  and  C_17
REMARK   11  A    between atoms: C_19  and  C_23
REMARK                            x       y       z     vdW  Elec       q    Type
REMARK                         _______ _______ _______ _____ _____    ______ ____
ROOT
ATOM      1  O   UNL     1      35.414  18.514  21.531  0.00  0.00    +0.000 OA
ATOM      2  O   UNL     1      37.765  15.653  19.873  0.00  0.00    +0.000 OA
ATOM      3  C   UNL     1      36.124  16.206  21.479  0.00  0.00    +0.000 A 
ATOM      4  C   UNL     1      35.303  17.188  21.903  0.00  0.00    +0.000 A 
ATOM      5  C   UNL     1      37.154  16.542  20.453  0.00  0.00    +0.000 A 
ATOM      6  C   UNL     1      37.356  17.980  20.162  0.00  0.00    +0.000 A 
ATOM      7  C   UNL     1      36.453  18.886  20.720  0.00  0.00    +0.000 A 
ATOM      8  C   UNL     1      38.392  18.463  19.351  0.00  0.00    +0.000 A 
ATOM      9  C   UNL     1      36.571  20.254  20.465  0.00  0.00    +0.000 A 
ATOM     10  C   UNL     1      38.517  19.833  19.095  0.00  0.00    +0.000 A 
ATOM     11  C   UNL     1      37.600  20.716  19.656  0.00  0.00    +0.000 A 
ENDROOT
BRANCH   4  12
ATOM     12  C   UNL     1      34.195  16.950  22.851  0.00  0.00    +0.000 A 
ATOM     13  C   UNL     1      34.479  16.512  24.156  0.00  0.00    +0.000 A 
ATOM     14  C   UNL     1      32.856  17.162  22.476  0.00  0.00    +0.000 A 
ATOM     15  C   UNL     1      33.437  16.270  25.044  0.00  0.00    +0.000 A 
ATOM     16  C   UNL     1      31.815  16.912  23.374  0.00  0.00    +0.000 A 
ATOM     17  C   UNL     1      32.117  16.464  24.649  0.00  0.00    +0.000 A 
BRANCH  15  18
ATOM     18  O   UNL     1      33.661  15.833  26.321  0.00  0.00    +0.000 OA
ATOM     19  H   UNL     1      33.962  16.588  26.856  0.00  0.00    +0.000 HD
ENDBRANCH  15  18
BRANCH  17  20
ATOM     20  O   UNL     1      31.099  16.215  25.524  0.00  0.00    +0.000 OA
ATOM     21  H   UNL     1      31.362  15.393  25.986  0.00  0.00    +0.000 HD
ENDBRANCH  17  20
ENDBRANCH   4  12
BRANCH   8  22
ATOM     22  O   UNL     1      39.313  17.611  18.812  0.00  0.00    +0.000 OA
ATOM     23  H   UNL     1      38.890  16.965  18.224  0.00  0.00    +0.000 HD
ENDBRANCH   8  22
BRANCH  11  24
ATOM     24  O   UNL     1      37.676  22.059  19.437  0.00  0.00    +0.000 OA
ATOM     25  H   UNL     1      38.556  22.281  19.090  0.00  0.00    +0.000 HD
ENDBRANCH  11  24
BRANCH   3  26
ATOM     26  O   UNL     1      36.004  14.879  21.861  0.00  0.00    +0.000 OA
BRANCH  26  32
ATOM     27  O   UNL     1      33.861  14.039  21.196  0.00  0.00    +0.000 OA
ATOM     28  C   UNL     1      35.574  11.860  21.991  0.00  0.00    +0.000 C 
ATOM     29  C   UNL     1      34.066  11.848  22.268  0.00  0.00    +0.000 C 
ATOM     30  C   UNL     1      35.900  12.716  20.767  0.00  0.00    +0.000 C 
ATOM     31  C   UNL     1      33.563  13.291  22.386  0.00  0.00    +0.000 C 
ATOM     32  C   UNL     1      35.259  14.116  20.901  0.00  0.00    +0.000 C 
ATOM     33  C   UNL     1      32.053  13.346  22.589  0.00  0.00    +0.000 C 
BRANCH  28  34
ATOM     34  O   UNL     1      36.008  10.504  21.773  0.00  0.00    +0.000 OA
ATOM     35  H   UNL     1      36.601  10.553  20.994  0.00  0.00    +0.000 HD
ENDBRANCH  28  34
BRANCH  29  36
ATOM     36  O   UNL     1      33.818  11.104  23.464  0.00  0.00    +0.000 OA
ATOM     37  H   UNL     1      32.877  10.840  23.416  0.00  0.00    +0.000 HD
ENDBRANCH  29  36
BRANCH  30  38
ATOM     38  O   UNL     1      35.420  12.007  19.604  0.00  0.00    +0.000 OA
ATOM     39  H   UNL     1      34.603  11.544  19.864  0.00  0.00    +0.000 HD
ENDBRANCH  30  38
ENDBRANCH  26  32
ENDBRANCH   3  26
TORSDOF 10
ENDMDL
MODEL 4
REMARK VINA RESULT:      -6.9      3.438      5.886
REMARK  Name = 
REMARK  11 active torsions:
REMARK  status: ('A' for Active; 'I' for Inactive)
REMARK    1  A    between atoms: O_2  and  C_16
REMARK    2  A    between atoms: O_2  and  C_18
REMARK    3  A    between atoms: O_3  and  C_12
REMARK    4  A    between atoms: O_4  and  C_13
REMARK    5  A    between atoms: O_5  and  C_14
REMARK    6  A    between atoms: O_8  and  C_24
REMARK    7  A    between atoms: O_9  and  C_29
REMARK    8  A    between atoms: O_10  and  C_30
REMARK    9  A    between atoms: O_11  and  C_32
REMARK   10  A    between atoms: C_15  and  C_17
REMARK   11  A    between atoms: C_19  and  C_23
REMARK                            x       y       z     vdW  Elec       q    Type
REMARK                         _______ _______ _______ _____ _____    ______ ____
ROOT
ATOM      1  O   UNL     1      37.904  -3.745  15.760  0.00  0.00    +0.000 OA
ATOM      2  O   UNL     1      41.004  -6.186  16.708  0.00  0.00    +0.000 OA
ATOM      3  C   UNL     1      40.291  -4.100  15.860  0.00  0.00    +0.000 A 
ATOM      4  C   UNL     1      39.213  -3.313  15.671  0.00  0.00    +0.000 A 
ATOM      5  C   UNL     1      40.067  -5.506  16.306  0.00  0.00    +0.000 A 
ATOM      6  C   UNL     1      38.672  -6.000  16.268  0.00  0.00    +0.000 A 
ATOM      7  C   UNL     1      37.664  -5.072  16.005  0.00  0.00    +0.000 A 
ATOM      8  C   UNL     1      38.322  -7.338  16.497  0.00  0.00    +0.000 A 
ATOM      9  C   UNL     1      36.324  -5.465  15.980  0.00  0.00    +0.000 A 
ATOM     10  C   UNL     1      36.981  -7.739  16.470  0.00  0.00    +0.000 A 
ATOM     11  C   UNL     1      35.994  -6.793  16.213  0.00  0.00    +0.000 A 
ENDROOT
BRANCH   4  12
ATOM     12  C   UNL     1      39.320  -1.883  15.313  0.00  0.00    +0.000 A 
ATOM     13  C   UNL     1      39.203  -1.494  13.967  0.00  0.00    +0.000 A 
ATOM     14  C   UNL     1      39.529  -0.898  16.295  0.00  0.00    +0.000 A 
ATOM     15  C   UNL     1      39.322  -0.151  13.625  0.00  0.00    +0.000 A 
ATOM     16  C   UNL     1      39.652   0.448  15.942  0.00  0.00    +0.000 A 
ATOM     17  C   UNL     1      39.551   0.807  14.608  0.00  0.00    +0.000 A 
BRANCH  15  18
ATOM     18  O   UNL     1      39.226   0.277  12.330  0.00  0.00    +0.000 OA
ATOM     19  H   UNL     1      38.478  -0.181  11.909  0.00  0.00    +0.000 HD
ENDBRANCH  15  18
BRANCH  17  20
ATOM     20  O   UNL     1      39.675   2.122  14.262  0.00  0.00    +0.000 OA
ATOM     21  H   UNL     1      39.718   2.602  15.115  0.00  0.00    +0.000 HD
ENDBRANCH  17  20
ENDBRANCH   4  12
BRANCH   8  22
ATOM     22  O   UNL     1      39.282  -8.281  16.728  0.00  0.00    +0.000 OA
ATOM     23  H   UNL     1      39.097  -8.777  17.541  0.00  0.00    +0.000 HD
ENDBRANCH   8  22
BRANCH  11  24
ATOM     24  O   UNL     1      34.674  -7.131  16.176  0.00  0.00    +0.000 OA
ATOM     25  H   UNL     1      34.292  -6.855  15.326  0.00  0.00    +0.000 HD
ENDBRANCH  11  24
BRANCH   3  26
ATOM     26  O   UNL     1      41.600  -3.654  15.765  0.00  0.00    +0.000 OA
BRANCH  26  32
ATOM     27  O   UNL     1      42.111  -4.656  13.650  0.00  0.00    +0.000 OA
ATOM     28  C   UNL     1      44.487  -3.484  14.789  0.00  0.00    +0.000 C 
ATOM     29  C   UNL     1      44.535  -4.778  13.969  0.00  0.00    +0.000 C 
ATOM     30  C   UNL     1      43.297  -2.617  14.375  0.00  0.00    +0.000 C 
ATOM     31  C   UNL     1      43.188  -5.501  14.086  0.00  0.00    +0.000 C 
ATOM     32  C   UNL     1      41.992  -3.444  14.400  0.00  0.00    +0.000 C 
ATOM     33  C   UNL     1      43.150  -6.762  13.230  0.00  0.00    +0.000 C 
BRANCH  28  34
ATOM     34  O   UNL     1      45.717  -2.765  14.578  0.00  0.00    +0.000 OA
ATOM     35  H   UNL     1      46.272  -3.369  14.041  0.00  0.00    +0.000 HD
ENDBRANCH  28  34
BRANCH  29  36
ATOM     36  O   UNL     1      45.613  -5.591  14.443  0.00  0.00    +0.000 OA
ATOM     37  H   UNL     1      45.678  -5.403  15.401  0.00  0.00    +0.000 HD
ENDBRANCH  29  36
BRANCH  30  38
ATOM     38  O   UNL     1      43.582  -2.091  13.062  0.00  0.00    +0.000 OA
ATOM     39  H   UNL     1      43.246  -2.734  12.412  0.00  0.00    +0.000 HD
ENDBRANCH  30  38
ENDBRANCH  26  32
ENDBRANCH   3  26
TORSDOF 10
ENDMDL
MODEL 5
REMARK VINA RESULT:      -6.7      2.695      6.413
REMARK  Name = 
REMARK  11 active torsions:
REMARK  status: ('A' for Active; 'I' for Inactive)
REMARK    1  A    between atoms: O_2  and  C_16
REMARK    2  A    between atoms: O_2  and  C_18
REMARK    3  A    between atoms: O_3  and  C_12
REMARK    4  A    between atoms: O_4  and  C_13
REMARK    5  A    between atoms: O_5  and  C_14
REMARK    6  A    between atoms: O_8  and  C_24
REMARK    7  A    between atoms: O_9  and  C_29
REMARK    8  A    between atoms: O_10  and  C_30
REMARK    9  A    between atoms: O_11  and  C_32
REMARK   10  A    between atoms: C_15  and  C_17
REMARK   11  A    between atoms: C_19  and  C_23
REMARK                            x       y       z     vdW  Elec       q    Type
REMARK                         _______ _______ _______ _____ _____    ______ ____
ROOT
ATOM      1  O   UNL     1      42.647  -1.952  15.558  0.00  0.00    +0.000 OA
ATOM      2  O   UNL     1      41.681  -4.260  12.363  0.00  0.00    +0.000 OA
ATOM      3  C   UNL     1      43.116  -3.897  14.203  0.00  0.00    +0.000 A 
ATOM      4  C   UNL     1      43.306  -3.140  15.302  0.00  0.00    +0.000 A 
ATOM      5  C   UNL     1      42.044  -3.494  13.246  0.00  0.00    +0.000 A 
ATOM      6  C   UNL     1      41.439  -2.158  13.453  0.00  0.00    +0.000 A 
ATOM      7  C   UNL     1      41.776  -1.468  14.618  0.00  0.00    +0.000 A 
ATOM      8  C   UNL     1      40.544  -1.570  12.548  0.00  0.00    +0.000 A 
ATOM      9  C   UNL     1      41.221  -0.214  14.887  0.00  0.00    +0.000 A 
ATOM     10  C   UNL     1      39.987  -0.313  12.811  0.00  0.00    +0.000 A 
ATOM     11  C   UNL     1      40.333   0.352  13.983  0.00  0.00    +0.000 A 
ENDROOT
BRANCH   4  12
ATOM     12  C   UNL     1      44.280  -3.492  16.357  0.00  0.00    +0.000 A 
ATOM     13  C   UNL     1      43.818  -3.904  17.619  0.00  0.00    +0.000 A 
ATOM     14  C   UNL     1      45.665  -3.430  16.121  0.00  0.00    +0.000 A 
ATOM     15  C   UNL     1      44.732  -4.217  18.619  0.00  0.00    +0.000 A 
ATOM     16  C   UNL     1      46.576  -3.741  17.133  0.00  0.00    +0.000 A 
ATOM     17  C   UNL     1      46.099  -4.128  18.375  0.00  0.00    +0.000 A 
BRANCH  15  18
ATOM     18  O   UNL     1      44.334  -4.613  19.866  0.00  0.00    +0.000 OA
ATOM     19  H   UNL     1      43.609  -5.254  19.768  0.00  0.00    +0.000 HD
ENDBRANCH  15  18
BRANCH  17  20
ATOM     20  O   UNL     1      46.990  -4.429  19.364  0.00  0.00    +0.000 OA
ATOM     21  H   UNL     1      46.943  -5.402  19.457  0.00  0.00    +0.000 HD
ENDBRANCH  17  20
ENDBRANCH   4  12
BRANCH   8  22
ATOM     22  O   UNL     1      40.213  -2.201  11.383  0.00  0.00    +0.000 OA
ATOM     23  H   UNL     1      40.629  -1.769  10.621  0.00  0.00    +0.000 HD
ENDBRANCH   8  22
BRANCH  11  24
ATOM     24  O   UNL     1      39.819   1.576  14.287  0.00  0.00    +0.000 OA
ATOM     25  H   UNL     1      38.863   1.580  14.114  0.00  0.00    +0.000 HD
ENDBRANCH  11  24
BRANCH   3  26
ATOM     26  O   UNL     1      43.786  -5.086  13.957  0.00  0.00    +0.000 OA
BRANCH  26  32
ATOM     27  O   UNL     1      43.307  -6.691  15.669  0.00  0.00    +0.000 OA
ATOM     28  C   UNL     1      44.551  -7.990  13.415  0.00  0.00    +0.000 C 
ATOM     29  C   UNL     1      44.819  -8.436  14.857  0.00  0.00    +0.000 C 
ATOM     30  C   UNL     1      43.174  -7.336  13.291  0.00  0.00    +0.000 C 
ATOM     31  C   UNL     1      44.627  -7.242  15.799  0.00  0.00    +0.000 C 
ATOM     32  C   UNL     1      43.006  -6.224  14.351  0.00  0.00    +0.000 C 
ATOM     33  C   UNL     1      44.810  -7.642  17.259  0.00  0.00    +0.000 C 
BRANCH  28  34
ATOM     34  O   UNL     1      44.626  -9.146  12.559  0.00  0.00    +0.000 OA
ATOM     35  H   UNL     1      45.399  -9.652  12.888  0.00  0.00    +0.000 HD
ENDBRANCH  28  34
BRANCH  29  36
ATOM     36  O   UNL     1      46.145  -8.967  14.941  0.00  0.00    +0.000 OA
ATOM     37  H   UNL     1      46.472  -8.710  15.826  0.00  0.00    +0.000 HD
ENDBRANCH  29  36
BRANCH  30  38
ATOM     38  O   UNL     1      42.186  -8.380  13.437  0.00  0.00    +0.000 OA
ATOM     39  H   UNL     1      41.309  -7.963  13.352  0.00  0.00    +0.000 HD
ENDBRANCH  30  38
ENDBRANCH  26  32
ENDBRANCH   3  26
TORSDOF 10
ENDMDL
MODEL 6
REMARK VINA RESULT:      -6.6     12.143     15.063
REMARK  Name = 
REMARK  11 active torsions:
REMARK  status: ('A' for Active; 'I' for Inactive)
REMARK    1  A    between atoms: O_2  and  C_16
REMARK    2  A    between atoms: O_2  and  C_18
REMARK    3  A    between atoms: O_3  and  C_12
REMARK    4  A    between atoms: O_4  and  C_13
REMARK    5  A    between atoms: O_5  and  C_14
REMARK    6  A    between atoms: O_8  and  C_24
REMARK    7  A    between atoms: O_9  and  C_29
REMARK    8  A    between atoms: O_10  and  C_30
REMARK    9  A    between atoms: O_11  and  C_32
REMARK   10  A    between atoms: C_15  and  C_17
REMARK   11  A    between atoms: C_19  and  C_23
REMARK                            x       y       z     vdW  Elec       q    Type
REMARK                         _______ _______ _______ _____ _____    ______ ____
ROOT
ATOM      1  O   UNL     1      51.627   2.419   4.361  0.00  0.00    +0.000 OA
ATOM      2  O   UNL     1      50.220  -0.389   6.930  0.00  0.00    +0.000 OA
ATOM      3  C   UNL     1      51.361   1.658   6.638  0.00  0.00    +0.000 A 
ATOM      4  C   UNL     1      51.702   2.594   5.730  0.00  0.00    +0.000 A 
ATOM      5  C   UNL     1      50.752   0.388   6.146  0.00  0.00    +0.000 A 
ATOM      6  C   UNL     1      50.800   0.152   4.686  0.00  0.00    +0.000 A 
ATOM      7  C   UNL     1      51.230   1.202   3.874  0.00  0.00    +0.000 A 
ATOM      8  C   UNL     1      50.423  -1.060   4.088  0.00  0.00    +0.000 A 
ATOM      9  C   UNL     1      51.274   1.055   2.485  0.00  0.00    +0.000 A 
ATOM     10  C   UNL     1      50.468  -1.213   2.698  0.00  0.00    +0.000 A 
ATOM     11  C   UNL     1      50.893  -0.149   1.910  0.00  0.00    +0.000 A 
ENDROOT
BRANCH   4  12
ATOM     12  C   UNL     1      52.233   3.920   6.109  0.00  0.00    +0.000 A 
ATOM     13  C   UNL     1      51.433   5.064   5.934  0.00  0.00    +0.000 A 
ATOM     14  C   UNL     1      53.523   4.063   6.650  0.00  0.00    +0.000 A 
ATOM     15  C   UNL     1      51.937   6.315   6.271  0.00  0.00    +0.000 A 
ATOM     16  C   UNL     1      54.022   5.324   6.982  0.00  0.00    +0.000 A 
ATOM     17  C   UNL     1      53.225   6.439   6.785  0.00  0.00    +0.000 A 
BRANCH  15  18
ATOM     18  O   UNL     1      51.204   7.458   6.111  0.00  0.00    +0.000 OA
ATOM     19  H   UNL     1      51.346   8.026   6.887  0.00  0.00    +0.000 HD
ENDBRANCH  15  18
BRANCH  17  20
ATOM     20  O   UNL     1      53.715   7.672   7.105  0.00  0.00    +0.000 OA
ATOM     21  H   UNL     1      53.575   8.214   6.302  0.00  0.00    +0.000 HD
ENDBRANCH  17  20
ENDBRANCH   4  12
BRANCH   8  22
ATOM     22  O   UNL     1      50.025  -2.120   4.851  0.00  0.00    +0.000 OA
ATOM     23  H   UNL     1      49.305  -2.609   4.422  0.00  0.00    +0.000 HD
ENDBRANCH   8  22
BRANCH  11  24
ATOM     24  O   UNL     1      50.955  -0.246   0.552  0.00  0.00    +0.000 OA
ATOM     25  H   UNL     1      51.881  -0.189   0.265  0.00  0.00    +0.000 HD
ENDBRANCH  11  24
BRANCH   3  26
ATOM     26  O   UNL     1      51.443   1.845   8.010  0.00  0.00    +0.000 OA
BRANCH  26  32
ATOM     27  O   UNL     1      51.096   3.867   9.245  0.00  0.00    +0.000 OA
ATOM     28  C   UNL     1      49.857   1.650  10.610  0.00  0.00    +0.000 C 
ATOM     29  C   UNL     1      50.511   2.807  11.373  0.00  0.00    +0.000 C 
ATOM     30  C   UNL     1      49.366   2.108   9.235  0.00  0.00    +0.000 C 
ATOM     31  C   UNL     1      51.617   3.421  10.507  0.00  0.00    +0.000 C 
ATOM     32  C   UNL     1      50.500   2.825   8.469  0.00  0.00    +0.000 C 
ATOM     33  C   UNL     1      52.258   4.627  11.185  0.00  0.00    +0.000 C 
BRANCH  28  34
ATOM     34  O   UNL     1      48.750   1.158  11.389  0.00  0.00    +0.000 OA
ATOM     35  H   UNL     1      49.001   1.334  12.320  0.00  0.00    +0.000 HD
ENDBRANCH  28  34
BRANCH  29  36
ATOM     36  O   UNL     1      51.025   2.315  12.614  0.00  0.00    +0.000 OA
ATOM     37  H   UNL     1      50.525   2.789  13.308  0.00  0.00    +0.000 HD
ENDBRANCH  29  36
BRANCH  30  38
ATOM     38  O   UNL     1      48.225   2.967   9.449  0.00  0.00    +0.000 OA
ATOM     39  H   UNL     1      48.401   3.487  10.254  0.00  0.00    +0.000 HD
ENDBRANCH  30  38
ENDBRANCH  26  32
ENDBRANCH   3  26
TORSDOF 10
ENDMDL
MODEL 7
REMARK VINA RESULT:      -6.6     11.877     14.831
REMARK  Name = 
REMARK  11 active torsions:
REMARK  status: ('A' for Active; 'I' for Inactive)
REMARK    1  A    between atoms: O_2  and  C_16
REMARK    2  A    between atoms: O_2  and  C_18
REMARK    3  A    between atoms: O_3  and  C_12
REMARK    4  A    between atoms: O_4  and  C_13
REMARK    5  A    between atoms: O_5  and  C_14
REMARK    6  A    between atoms: O_8  and  C_24
REMARK    7  A    between atoms: O_9  and  C_29
REMARK    8  A    between atoms: O_10  and  C_30
REMARK    9  A    between atoms: O_11  and  C_32
REMARK   10  A    between atoms: C_15  and  C_17
REMARK   11  A    between atoms: C_19  and  C_23
REMARK                            x       y       z     vdW  Elec       q    Type
REMARK                         _______ _______ _______ _____ _____    ______ ____
ROOT
ATOM      1  O   UNL     1      50.907   0.315   6.794  0.00  0.00    +0.000 OA
ATOM      2  O   UNL     1      52.767   3.554   5.208  0.00  0.00    +0.000 OA
ATOM      3  C   UNL     1      51.809   2.534   7.110  0.00  0.00    +0.000 A 
ATOM      4  C   UNL     1      51.293   1.382   7.583  0.00  0.00    +0.000 A 
ATOM      5  C   UNL     1      52.094   2.630   5.649  0.00  0.00    +0.000 A 
ATOM      6  C   UNL     1      51.558   1.546   4.795  0.00  0.00    +0.000 A 
ATOM      7  C   UNL     1      51.000   0.436   5.432  0.00  0.00    +0.000 A 
ATOM      8  C   UNL     1      51.598   1.577   3.394  0.00  0.00    +0.000 A 
ATOM      9  C   UNL     1      50.499  -0.634   4.688  0.00  0.00    +0.000 A 
ATOM     10  C   UNL     1      51.095   0.509   2.643  0.00  0.00    +0.000 A 
ATOM     11  C   UNL     1      50.551  -0.589   3.301  0.00  0.00    +0.000 A 
ENDROOT
BRANCH   4  12
ATOM     12  C   UNL     1      51.050   1.145   9.022  0.00  0.00    +0.000 A 
ATOM     13  C   UNL     1      49.738   1.195   9.523  0.00  0.00    +0.000 A 
ATOM     14  C   UNL     1      52.110   0.863   9.903  0.00  0.00    +0.000 A 
ATOM     15  C   UNL     1      49.509   0.991  10.879  0.00  0.00    +0.000 A 
ATOM     16  C   UNL     1      51.871   0.664  11.265  0.00  0.00    +0.000 A 
ATOM     17  C   UNL     1      50.572   0.735  11.740  0.00  0.00    +0.000 A 
BRANCH  15  18
ATOM     18  O   UNL     1      48.253   1.039  11.417  0.00  0.00    +0.000 OA
ATOM     19  H   UNL     1      47.929   1.955  11.363  0.00  0.00    +0.000 HD
ENDBRANCH  15  18
BRANCH  17  20
ATOM     20  O   UNL     1      50.340   0.545  13.072  0.00  0.00    +0.000 OA
ATOM     21  H   UNL     1      49.858  -0.306  13.123  0.00  0.00    +0.000 HD
ENDBRANCH  17  20
ENDBRANCH   4  12
BRANCH   8  22
ATOM     22  O   UNL     1      52.108   2.658   2.734  0.00  0.00    +0.000 OA
ATOM     23  H   UNL     1      53.061   2.748   2.893  0.00  0.00    +0.000 HD
ENDBRANCH   8  22
BRANCH  11  24
ATOM     24  O   UNL     1      50.048  -1.654   2.617  0.00  0.00    +0.000 OA
ATOM     25  H   UNL     1      50.205  -1.533   1.666  0.00  0.00    +0.000 HD
ENDBRANCH  11  24
BRANCH   3  26
ATOM     26  O   UNL     1      52.190   3.598   7.913  0.00  0.00    +0.000 OA
BRANCH  26  32
ATOM     27  O   UNL     1      51.614   5.865   7.398  0.00  0.00    +0.000 OA
ATOM     28  C   UNL     1      51.729   5.499  10.256  0.00  0.00    +0.000 C 
ATOM     29  C   UNL     1      52.169   6.807   9.588  0.00  0.00    +0.000 C 
ATOM     30  C   UNL     1      50.684   4.775   9.407  0.00  0.00    +0.000 C 
ATOM     31  C   UNL     1      52.645   6.510   8.162  0.00  0.00    +0.000 C 
ATOM     32  C   UNL     1      51.182   4.619   7.953  0.00  0.00    +0.000 C 
ATOM     33  C   UNL     1      53.028   7.786   7.420  0.00  0.00    +0.000 C 
BRANCH  28  34
ATOM     34  O   UNL     1      51.182   5.810  11.552  0.00  0.00    +0.000 OA
ATOM     35  H   UNL     1      51.798   6.473  11.931  0.00  0.00    +0.000 HD
ENDBRANCH  28  34
BRANCH  29  36
ATOM     36  O   UNL     1      53.202   7.407  10.375  0.00  0.00    +0.000 OA
ATOM     37  H   UNL     1      53.177   8.360  10.155  0.00  0.00    +0.000 HD
ENDBRANCH  29  36
BRANCH  30  38
ATOM     38  O   UNL     1      49.461   5.539   9.484  0.00  0.00    +0.000 OA
ATOM     39  H   UNL     1      48.807   5.098   8.911  0.00  0.00    +0.000 HD
ENDBRANCH  30  38
ENDBRANCH  26  32
ENDBRANCH   3  26
TORSDOF 10
ENDMDL
MODEL 8
REMARK VINA RESULT:      -6.5     11.479     14.248
REMARK  Name = 
REMARK  11 active torsions:
REMARK  status: ('A' for Active; 'I' for Inactive)
REMARK    1  A    between atoms: O_2  and  C_16
REMARK    2  A    between atoms: O_2  and  C_18
REMARK    3  A    between atoms: O_3  and  C_12
REMARK    4  A    between atoms: O_4  and  C_13
REMARK    5  A    between atoms: O_5  and  C_14
REMARK    6  A    between atoms: O_8  and  C_24
REMARK    7  A    between atoms: O_9  and  C_29
REMARK    8  A    between atoms: O_10  and  C_30
REMARK    9  A    between atoms: O_11  and  C_32
REMARK   10  A    between atoms: C_15  and  C_17
REMARK   11  A    between atoms: C_19  and  C_23
REMARK                            x       y       z     vdW  Elec       q    Type
REMARK                         _______ _______ _______ _____ _____    ______ ____
ROOT
ATOM      1  O   UNL     1      50.017  -1.720   7.750  0.00  0.00    +0.000 OA
ATOM      2  O   UNL     1      50.904   1.295   5.183  0.00  0.00    +0.000 OA
ATOM      3  C   UNL     1      51.079  -1.002   5.702  0.00  0.00    +0.000 A 
ATOM      4  C   UNL     1      50.654  -1.962   6.547  0.00  0.00    +0.000 A 
ATOM      5  C   UNL     1      50.744   0.417   6.021  0.00  0.00    +0.000 A 
ATOM      6  C   UNL     1      50.186   0.680   7.367  0.00  0.00    +0.000 A 
ATOM      7  C   UNL     1      49.843  -0.422   8.153  0.00  0.00    +0.000 A 
ATOM      8  C   UNL     1      49.976   1.969   7.876  0.00  0.00    +0.000 A 
ATOM      9  C   UNL     1      49.288  -0.245   9.422  0.00  0.00    +0.000 A 
ATOM     10  C   UNL     1      49.423   2.153   9.148  0.00  0.00    +0.000 A 
ATOM     11  C   UNL     1      49.082   1.039   9.908  0.00  0.00    +0.000 A 
ENDROOT
BRANCH   4  12
ATOM     12  C   UNL     1      50.855  -3.403   6.287  0.00  0.00    +0.000 A 
ATOM     13  C   UNL     1      52.127  -3.972   6.472  0.00  0.00    +0.000 A 
ATOM     14  C   UNL     1      49.793  -4.223   5.864  0.00  0.00    +0.000 A 
ATOM     15  C   UNL     1      52.323  -5.323   6.209  0.00  0.00    +0.000 A 
ATOM     16  C   UNL     1      50.000  -5.579   5.599  0.00  0.00    +0.000 A 
ATOM     17  C   UNL     1      51.266  -6.114   5.770  0.00  0.00    +0.000 A 
BRANCH  15  18
ATOM     18  O   UNL     1      53.543  -5.921   6.364  0.00  0.00    +0.000 OA
ATOM     19  H   UNL     1      53.441  -6.875   6.201  0.00  0.00    +0.000 HD
ENDBRANCH  15  18
BRANCH  17  20
ATOM     20  O   UNL     1      51.468  -7.438   5.507  0.00  0.00    +0.000 OA
ATOM     21  H   UNL     1      50.727  -7.693   4.921  0.00  0.00    +0.000 HD
ENDBRANCH  17  20
ENDBRANCH   4  12
BRANCH   8  22
ATOM     22  O   UNL     1      50.326   3.071   7.150  0.00  0.00    +0.000 OA
ATOM     23  H   UNL     1      51.024   2.862   6.510  0.00  0.00    +0.000 HD
ENDBRANCH   8  22
BRANCH  11  24
ATOM     24  O   UNL     1      48.540   1.162  11.152  0.00  0.00    +0.000 OA
ATOM     25  H   UNL     1      49.049   0.625  11.783  0.00  0.00    +0.000 HD
ENDBRANCH  11  24
BRANCH   3  26
ATOM     26  O   UNL     1      51.719  -1.258   4.499  0.00  0.00    +0.000 OA
BRANCH  26  32
ATOM     27  O   UNL     1      51.379  -2.808   2.705  0.00  0.00    +0.000 OA
ATOM     28  C   UNL     1      51.347  -0.107   1.697  0.00  0.00    +0.000 C 
ATOM     29  C   UNL     1      51.934  -1.267   0.886  0.00  0.00    +0.000 C 
ATOM     30  C   UNL     1      50.273  -0.603   2.665  0.00  0.00    +0.000 C 
ATOM     31  C   UNL     1      52.436  -2.352   1.846  0.00  0.00    +0.000 C 
ATOM     32  C   UNL     1      50.811  -1.776   3.515  0.00  0.00    +0.000 C 
ATOM     33  C   UNL     1      52.965  -3.568   1.094  0.00  0.00    +0.000 C 
BRANCH  28  34
ATOM     34  O   UNL     1      50.781   0.850   0.781  0.00  0.00    +0.000 OA
ATOM     35  H   UNL     1      51.546   1.190   0.271  0.00  0.00    +0.000 HD
ENDBRANCH  28  34
BRANCH  29  36
ATOM     36  O   UNL     1      52.987  -0.769   0.055  0.00  0.00    +0.000 OA
ATOM     37  H   UNL     1      52.805  -1.126  -0.837  0.00  0.00    +0.000 HD
ENDBRANCH  29  36
BRANCH  30  38
ATOM     38  O   UNL     1      49.125  -0.985   1.877  0.00  0.00    +0.000 OA
ATOM     39  H   UNL     1      49.231  -1.926   1.646  0.00  0.00    +0.000 HD
ENDBRANCH  30  38
ENDBRANCH  26  32
ENDBRANCH   3  26
TORSDOF 10
ENDMDL
MODEL 9
REMARK VINA RESULT:      -6.4     11.387     12.282
REMARK  Name = 
REMARK  11 active torsions:
REMARK  status: ('A' for Active; 'I' for Inactive)
REMARK    1  A    between atoms: O_2  and  C_16
REMARK    2  A    between atoms: O_2  and  C_18
REMARK    3  A    between atoms: O_3  and  C_12
REMARK    4  A    between atoms: O_4  and  C_13
REMARK    5  A    between atoms: O_5  and  C_14
REMARK    6  A    between atoms: O_8  and  C_24
REMARK    7  A    between atoms: O_9  and  C_29
REMARK    8  A    between atoms: O_10  and  C_30
REMARK    9  A    between atoms: O_11  and  C_32
REMARK   10  A    between atoms: C_15  and  C_17
REMARK   11  A    between atoms: C_19  and  C_23
REMARK                            x       y       z     vdW  Elec       q    Type
REMARK                         _______ _______ _______ _____ _____    ______ ____
ROOT
ATOM      1  O   UNL     1      53.035   5.481  12.066  0.00  0.00    +0.000 OA
ATOM      2  O   UNL     1      53.410   1.506  12.792  0.00  0.00    +0.000 OA
ATOM      3  C   UNL     1      52.683   3.209  11.326  0.00  0.00    +0.000 A 
ATOM      4  C   UNL     1      52.692   4.540  11.114  0.00  0.00    +0.000 A 
ATOM      5  C   UNL     1      53.184   2.700  12.635  0.00  0.00    +0.000 A 
ATOM      6  C   UNL     1      53.420   3.710  13.693  0.00  0.00    +0.000 A 
ATOM      7  C   UNL     1      53.340   5.055  13.332  0.00  0.00    +0.000 A 
ATOM      8  C   UNL     1      53.730   3.378  15.019  0.00  0.00    +0.000 A 
ATOM      9  C   UNL     1      53.576   6.059  14.274  0.00  0.00    +0.000 A 
ATOM     10  C   UNL     1      53.965   4.379  15.968  0.00  0.00    +0.000 A 
ATOM     11  C   UNL     1      53.887   5.714  15.582  0.00  0.00    +0.000 A 
ENDROOT
BRANCH   4  12
ATOM     12  C   UNL     1      52.299   5.148   9.825  0.00  0.00    +0.000 A 
ATOM     13  C   UNL     1      51.055   5.793   9.712  0.00  0.00    +0.000 A 
ATOM     14  C   UNL     1      53.150   5.101   8.707  0.00  0.00    +0.000 A 
ATOM     15  C   UNL     1      50.674   6.348   8.496  0.00  0.00    +0.000 A 
ATOM     16  C   UNL     1      52.758   5.658   7.487  0.00  0.00    +0.000 A 
ATOM     17  C   UNL     1      51.520   6.273   7.393  0.00  0.00    +0.000 A 
BRANCH  15  18
ATOM     18  O   UNL     1      49.471   6.977   8.332  0.00  0.00    +0.000 OA
ATOM     19  H   UNL     1      49.311   7.092   7.379  0.00  0.00    +0.000 HD
ENDBRANCH  15  18
BRANCH  17  20
ATOM     20  O   UNL     1      51.136   6.814   6.200  0.00  0.00    +0.000 OA
ATOM     21  H   UNL     1      50.684   7.649   6.438  0.00  0.00    +0.000 HD
ENDBRANCH  17  20
ENDBRANCH   4  12
BRANCH   8  22
ATOM     22  O   UNL     1      53.789   2.073  15.417  0.00  0.00    +0.000 OA
ATOM     23  H   UNL     1      54.707   1.771  15.493  0.00  0.00    +0.000 HD
ENDBRANCH   8  22
BRANCH  11  24
ATOM     24  O   UNL     1      54.107   6.726  16.466  0.00  0.00    +0.000 OA
ATOM     25  H   UNL     1      53.643   7.526  16.167  0.00  0.00    +0.000 HD
ENDBRANCH  11  24
BRANCH   3  26
ATOM     26  O   UNL     1      52.335   2.275  10.362  0.00  0.00    +0.000 OA
BRANCH  26  32
ATOM     27  O   UNL     1      51.022   0.311   9.962  0.00  0.00    +0.000 OA
ATOM     28  C   UNL     1      49.439   2.673   9.483  0.00  0.00    +0.000 C 
ATOM     29  C   UNL     1      49.270   1.401   8.645  0.00  0.00    +0.000 C 
ATOM     30  C   UNL     1      49.966   2.343  10.880  0.00  0.00    +0.000 C 
ATOM     31  C   UNL     1      50.593   0.628   8.628  0.00  0.00    +0.000 C 
ATOM     32  C   UNL     1      51.231   1.461  10.786  0.00  0.00    +0.000 C 
ATOM     33  C   UNL     1      50.467  -0.688   7.868  0.00  0.00    +0.000 C 
BRANCH  28  34
ATOM     34  O   UNL     1      48.160   3.328   9.581  0.00  0.00    +0.000 OA
ATOM     35  H   UNL     1      48.277   4.004  10.281  0.00  0.00    +0.000 HD
ENDBRANCH  28  34
BRANCH  29  36
ATOM     36  O   UNL     1      48.854   1.764   7.325  0.00  0.00    +0.000 OA
ATOM     37  H   UNL     1      49.018   0.973   6.774  0.00  0.00    +0.000 HD
ENDBRANCH  29  36
BRANCH  30  38
ATOM     38  O   UNL     1      48.899   1.689  11.601  0.00  0.00    +0.000 OA
ATOM     39  H   UNL     1      48.062   1.933  11.165  0.00  0.00    +0.000 HD
ENDBRANCH  30  38
ENDBRANCH  26  32
ENDBRANCH   3  26
TORSDOF 10
ENDMDL
