MODEL 1
REMARK VINA RESULT:      -6.9      0.000      0.000
REMARK  Name = 
REMARK  14 active torsions:
REMARK  status: ('A' for Active; 'I' for Inactive)
REMARK    1  A    between atoms: O_1  and  C_24
REMARK    2  A    between atoms: O_1  and  C_36
REMARK    3  A    between atoms: O_4  and  C_30
REMARK    4  A    between atoms: O_4  and  C_37
REMARK    5  A    between atoms: O_7  and  C_33
REMARK    6  A    between atoms: O_7  and  C_38
REMARK    7  A    between atoms: N_10  and  C_23
REMARK    8  A    between atoms: C_15  and  C_26
REMARK    9  A    between atoms: C_16  and  C_24
REMARK   10  A    between atoms: C_31  and  C_34
REMARK   11  A    between atoms: C_32  and  C_35
REMARK   12  A    between atoms: C_36  and  C_39
REMARK   13  A    between atoms: C_39  and  C_40
REMARK   14  A    between atoms: C_41  and  C_42
REMARK                            x       y       z     vdW  Elec       q    Type
REMARK                         _______ _______ _______ _____ _____    ______ ____
ROOT
ATOM      1  O   UNL     1      43.976  -2.755  16.923  0.00  0.00    +0.000 OA
ATOM      2  O   UNL     1      39.367  -4.989  15.498  0.00  0.00    +0.000 OA
ATOM      3  O   UNL     1      43.778   0.563  20.193  0.00  0.00    +0.000 OA
ATOM      4  O   UNL     1      38.971   2.748  19.569  0.00  0.00    +0.000 OA
ATOM      5  N   UNL     1      40.227  -0.058  16.618  0.00  0.00    +0.000 NA
ATOM      6  N   UNL     1      41.651  -0.736  14.141  0.00  0.00    +0.000 NA
ATOM      7  C   UNL     1      41.710  -0.026  16.516  0.00  0.00    +0.000 C 
ATOM      8  C   UNL     1      42.248  -1.086  15.462  0.00  0.00    +0.000 C 
ATOM      9  C   UNL     1      40.179  -0.918  14.219  0.00  0.00    +0.000 C 
ATOM     10  C   UNL     1      39.576   0.080  15.277  0.00  0.00    +0.000 C 
ATOM     11  C   UNL     1      39.622   0.809  17.667  0.00  0.00    +0.000 C 
ATOM     12  C   UNL     1      42.361  -0.232  17.900  0.00  0.00    +0.000 C 
ATOM     13  C   UNL     1      39.787  -2.384  14.555  0.00  0.00    +0.000 C 
ATOM     14  C   UNL     1      41.894  -2.508  15.872  0.00  0.00    +0.000 C 
ATOM     15  C   UNL     1      40.754  -3.090  15.470  0.00  0.00    +0.000 C 
ATOM     16  C   UNL     1      40.559   1.195  18.800  0.00  0.00    +0.000 C 
ATOM     17  C   UNL     1      41.799   0.706  18.925  0.00  0.00    +0.000 C 
ATOM     18  C   UNL     1      42.278  -1.423  13.015  0.00  0.00    +0.000 C 
ATOM     19  C   UNL     1      42.883  -3.257  16.681  0.00  0.00    +0.000 C 
ATOM     20  C   UNL     1      40.409  -4.468  15.879  0.00  0.00    +0.000 C 
ATOM     21  C   UNL     1      42.666   1.064  20.069  0.00  0.00    +0.000 C 
ATOM     22  C   UNL     1      40.054   2.206  19.766  0.00  0.00    +0.000 C 
ATOM     23  C   UNL     1      42.499  -4.619  17.177  0.00  0.00    +0.000 C 
ATOM     24  C   UNL     1      41.349  -5.186  16.778  0.00  0.00    +0.000 C 
ATOM     25  C   UNL     1      42.135   2.015  21.077  0.00  0.00    +0.000 C 
ATOM     26  C   UNL     1      40.905   2.540  20.954  0.00  0.00    +0.000 C 
ATOM     27  C   UNL     1      40.909  -6.564  17.179  0.00  0.00    +0.000 C 
ATOM     28  C   UNL     1      43.071   2.322  22.210  0.00  0.00    +0.000 C 
ENDROOT
BRANCH  23  29
ATOM     29  O   UNL     1      43.351  -5.342  18.005  0.00  0.00    +0.000 OA
ATOM     30  C   UNL     1      44.417  -6.020  17.346  0.00  0.00    +0.000 C 
ENDBRANCH  23  29
BRANCH  26  31
ATOM     31  O   UNL     1      40.461   3.445  21.912  0.00  0.00    +0.000 OA
ATOM     32  C   UNL     1      40.665   4.818  21.584  0.00  0.00    +0.000 C 
ENDBRANCH  26  31
BRANCH  10  34
ATOM     33  N   UNL     1      39.615   2.534  14.269  0.00  0.00    +0.000 NA
ATOM     34  C   UNL     1      39.619   1.459  14.707  0.00  0.00    +0.000 C 
ENDBRANCH  10  34
BRANCH  11  35
ATOM     35  C   UNL     1      38.382   0.057  18.237  0.00  0.00    +0.000 C 
BRANCH  35  36
ATOM     36  O   UNL     1      38.613  -1.365  18.157  0.00  0.00    +0.000 OA
BRANCH  36  38
ATOM     37  O   UNL     1      37.290  -2.648  19.518  0.00  0.00    +0.000 OA
ATOM     38  C   UNL     1      38.329  -2.052  19.289  0.00  0.00    +0.000 C 
BRANCH  38  39
ATOM     39  C   UNL     1      39.520  -2.102  20.185  0.00  0.00    +0.000 C 
ATOM     40  C   UNL     1      40.579  -3.059  19.712  0.00  0.00    +0.000 C 
ATOM     41  C   UNL     1      39.663  -1.389  21.319  0.00  0.00    +0.000 C 
ATOM     42  C   UNL     1      38.672  -0.480  21.975  0.00  0.00    +0.000 C 
ENDBRANCH  38  39
ENDBRANCH  36  38
ENDBRANCH  35  36
ENDBRANCH  11  35
TORSDOF 7
ENDMDL
MODEL 2
REMARK VINA RESULT:      -6.1      2.527      7.751
REMARK  Name = 
REMARK  14 active torsions:
REMARK  status: ('A' for Active; 'I' for Inactive)
REMARK    1  A    between atoms: O_1  and  C_24
REMARK    2  A    between atoms: O_1  and  C_36
REMARK    3  A    between atoms: O_4  and  C_30
REMARK    4  A    between atoms: O_4  and  C_37
REMARK    5  A    between atoms: O_7  and  C_33
REMARK    6  A    between atoms: O_7  and  C_38
REMARK    7  A    between atoms: N_10  and  C_23
REMARK    8  A    between atoms: C_15  and  C_26
REMARK    9  A    between atoms: C_16  and  C_24
REMARK   10  A    between atoms: C_31  and  C_34
REMARK   11  A    between atoms: C_32  and  C_35
REMARK   12  A    between atoms: C_36  and  C_39
REMARK   13  A    between atoms: C_39  and  C_40
REMARK   14  A    between atoms: C_41  and  C_42
REMARK                            x       y       z     vdW  Elec       q    Type
REMARK                         _______ _______ _______ _____ _____    ______ ____
ROOT
ATOM      1  O   UNL     1      39.651  -3.116  18.217  0.00  0.00    +0.000 OA
ATOM      2  O   UNL     1      43.378   0.664  18.507  0.00  0.00    +0.000 OA
ATOM      3  O   UNL     1      40.990  -7.262  16.556  0.00  0.00    +0.000 OA
ATOM      4  O   UNL     1      44.969  -6.124  13.218  0.00  0.00    +0.000 OA
ATOM      5  N   UNL     1      42.771  -2.840  14.811  0.00  0.00    +0.000 NA
ATOM      6  N   UNL     1      40.492  -0.989  14.755  0.00  0.00    +0.000 NA
ATOM      7  C   UNL     1      41.380  -3.278  15.098  0.00  0.00    +0.000 C 
ATOM      8  C   UNL     1      40.517  -2.109  15.739  0.00  0.00    +0.000 C 
ATOM      9  C   UNL     1      41.872  -0.464  14.593  0.00  0.00    +0.000 C 
ATOM     10  C   UNL     1      42.799  -1.586  13.992  0.00  0.00    +0.000 C 
ATOM     11  C   UNL     1      43.704  -3.893  14.321  0.00  0.00    +0.000 C 
ATOM     12  C   UNL     1      41.374  -4.535  15.993  0.00  0.00    +0.000 C 
ATOM     13  C   UNL     1      42.453   0.078  15.928  0.00  0.00    +0.000 C 
ATOM     14  C   UNL     1      41.091  -1.660  17.075  0.00  0.00    +0.000 C 
ATOM     15  C   UNL     1      41.995  -0.672  17.153  0.00  0.00    +0.000 C 
ATOM     16  C   UNL     1      43.299  -5.318  14.662  0.00  0.00    +0.000 C 
ATOM     17  C   UNL     1      42.253  -5.616  15.443  0.00  0.00    +0.000 C 
ATOM     18  C   UNL     1      39.496   0.035  15.059  0.00  0.00    +0.000 C 
ATOM     19  C   UNL     1      40.572  -2.311  18.300  0.00  0.00    +0.000 C 
ATOM     20  C   UNL     1      42.559  -0.247  18.451  0.00  0.00    +0.000 C 
ATOM     21  C   UNL     1      41.919  -7.013  15.796  0.00  0.00    +0.000 C 
ATOM     22  C   UNL     1      44.099  -6.403  14.036  0.00  0.00    +0.000 C 
ATOM     23  C   UNL     1      41.207  -1.951  19.611  0.00  0.00    +0.000 C 
ATOM     24  C   UNL     1      42.119  -0.967  19.674  0.00  0.00    +0.000 C 
ATOM     25  C   UNL     1      42.762  -8.097  15.234  0.00  0.00    +0.000 C 
ATOM     26  C   UNL     1      43.798  -7.820  14.425  0.00  0.00    +0.000 C 
ATOM     27  C   UNL     1      42.766  -0.503  20.947  0.00  0.00    +0.000 C 
ATOM     28  C   UNL     1      42.364  -9.485  15.644  0.00  0.00    +0.000 C 
ENDROOT
BRANCH  23  29
ATOM     29  O   UNL     1      40.818  -2.582  20.787  0.00  0.00    +0.000 OA
ATOM     30  C   UNL     1      41.430  -3.844  21.038  0.00  0.00    +0.000 C 
ENDBRANCH  23  29
BRANCH  26  31
ATOM     31  O   UNL     1      44.545  -8.872  13.904  0.00  0.00    +0.000 OA
ATOM     32  C   UNL     1      45.786  -9.115  14.563  0.00  0.00    +0.000 C 
ENDBRANCH  26  31
BRANCH  10  34
ATOM     33  N   UNL     1      42.163  -1.888  11.434  0.00  0.00    +0.000 NA
ATOM     34  C   UNL     1      42.443  -1.777  12.555  0.00  0.00    +0.000 C 
ENDBRANCH  10  34
BRANCH  11  35
ATOM     35  C   UNL     1      45.111  -3.583  14.916  0.00  0.00    +0.000 C 
BRANCH  35  36
ATOM     36  O   UNL     1      44.959  -3.118  16.274  0.00  0.00    +0.000 OA
BRANCH  36  38
ATOM     37  O   UNL     1      47.109  -3.461  16.984  0.00  0.00    +0.000 OA
ATOM     38  C   UNL     1      45.903  -3.562  17.136  0.00  0.00    +0.000 C 
BRANCH  38  39
ATOM     39  C   UNL     1      45.273  -4.081  18.384  0.00  0.00    +0.000 C 
ATOM     40  C   UNL     1      45.082  -3.026  19.437  0.00  0.00    +0.000 C 
ATOM     41  C   UNL     1      44.910  -5.363  18.589  0.00  0.00    +0.000 C 
ATOM     42  C   UNL     1      45.121  -6.543  17.694  0.00  0.00    +0.000 C 
ENDBRANCH  38  39
ENDBRANCH  36  38
ENDBRANCH  35  36
ENDBRANCH  11  35
TORSDOF 7
ENDMDL
MODEL 3
REMARK VINA RESULT:      -6.0     13.489     15.973
REMARK  Name = 
REMARK  14 active torsions:
REMARK  status: ('A' for Active; 'I' for Inactive)
REMARK    1  A    between atoms: O_1  and  C_24
REMARK    2  A    between atoms: O_1  and  C_36
REMARK    3  A    between atoms: O_4  and  C_30
REMARK    4  A    between atoms: O_4  and  C_37
REMARK    5  A    between atoms: O_7  and  C_33
REMARK    6  A    between atoms: O_7  and  C_38
REMARK    7  A    between atoms: N_10  and  C_23
REMARK    8  A    between atoms: C_15  and  C_26
REMARK    9  A    between atoms: C_16  and  C_24
REMARK   10  A    between atoms: C_31  and  C_34
REMARK   11  A    between atoms: C_32  and  C_35
REMARK   12  A    between atoms: C_36  and  C_39
REMARK   13  A    between atoms: C_39  and  C_40
REMARK   14  A    between atoms: C_41  and  C_42
REMARK                            x       y       z     vdW  Elec       q    Type
REMARK                         _______ _______ _______ _____ _____    ______ ____
ROOT
ATOM      1  O   UNL     1      55.886   4.707   7.366  0.00  0.00    +0.000 OA
ATOM      2  O   UNL     1      51.520   2.520   5.263  0.00  0.00    +0.000 OA
ATOM      3  O   UNL     1      55.684   5.881  11.874  0.00  0.00    +0.000 OA
ATOM      4  O   UNL     1      50.556   7.004  12.717  0.00  0.00    +0.000 OA
ATOM      5  N   UNL     1      51.760   6.334   8.685  0.00  0.00    +0.000 NA
ATOM      6  N   UNL     1      52.867   7.272   6.131  0.00  0.00    +0.000 NA
ATOM      7  C   UNL     1      53.184   6.729   8.530  0.00  0.00    +0.000 C 
ATOM      8  C   UNL     1      53.710   6.461   7.055  0.00  0.00    +0.000 C 
ATOM      9  C   UNL     1      51.472   6.764   6.188  0.00  0.00    +0.000 C 
ATOM     10  C   UNL     1      50.893   6.964   7.639  0.00  0.00    +0.000 C 
ATOM     11  C   UNL     1      51.197   6.427  10.061  0.00  0.00    +0.000 C 
ATOM     12  C   UNL     1      54.068   6.021   9.578  0.00  0.00    +0.000 C 
ATOM     13  C   UNL     1      51.372   5.275   5.754  0.00  0.00    +0.000 C 
ATOM     14  C   UNL     1      53.654   4.981   6.704  0.00  0.00    +0.000 C 
ATOM     15  C   UNL     1      52.571   4.439   6.127  0.00  0.00    +0.000 C 
ATOM     16  C   UNL     1      52.228   6.404  11.178  0.00  0.00    +0.000 C 
ATOM     17  C   UNL     1      53.533   6.195  10.967  0.00  0.00    +0.000 C 
ATOM     18  C   UNL     1      53.410   7.373   4.780  0.00  0.00    +0.000 C 
ATOM     19  C   UNL     1      54.862   4.165   6.963  0.00  0.00    +0.000 C 
ATOM     20  C   UNL     1      52.514   2.999   5.798  0.00  0.00    +0.000 C 
ATOM     21  C   UNL     1      54.502   6.127  12.083  0.00  0.00    +0.000 C 
ATOM     22  C   UNL     1      51.728   6.682  12.550  0.00  0.00    +0.000 C 
ATOM     23  C   UNL     1      54.779   2.687   6.719  0.00  0.00    +0.000 C 
ATOM     24  C   UNL     1      53.685   2.155   6.152  0.00  0.00    +0.000 C 
ATOM     25  C   UNL     1      53.993   6.328  13.463  0.00  0.00    +0.000 C 
ATOM     26  C   UNL     1      52.692   6.568  13.693  0.00  0.00    +0.000 C 
ATOM     27  C   UNL     1      53.535   0.699   5.821  0.00  0.00    +0.000 C 
ATOM     28  C   UNL     1      55.034   6.237  14.541  0.00  0.00    +0.000 C 
ENDROOT
BRANCH  23  29
ATOM     29  O   UNL     1      55.853   1.855   7.015  0.00  0.00    +0.000 OA
ATOM     30  C   UNL     1      55.939   1.422   8.370  0.00  0.00    +0.000 C 
ENDBRANCH  23  29
BRANCH  26  31
ATOM     31  O   UNL     1      52.266   6.773  15.002  0.00  0.00    +0.000 OA
ATOM     32  C   UNL     1      51.872   8.110  15.305  0.00  0.00    +0.000 C 
ENDBRANCH  26  31
BRANCH  10  34
ATOM     33  N   UNL     1      50.461   9.557   8.002  0.00  0.00    +0.000 NA
ATOM     34  C   UNL     1      50.629   8.418   7.848  0.00  0.00    +0.000 C 
ENDBRANCH  10  34
BRANCH  11  35
ATOM     35  C   UNL     1      50.196   5.247  10.237  0.00  0.00    +0.000 C 
BRANCH  35  36
ATOM     36  O   UNL     1      50.615   4.143   9.409  0.00  0.00    +0.000 OA
BRANCH  36  38
ATOM     37  O   UNL     1      49.294   2.720  10.625  0.00  0.00    +0.000 OA
ATOM     38  C   UNL     1      50.194   2.926   9.827  0.00  0.00    +0.000 C 
BRANCH  38  39
ATOM     39  C   UNL     1      50.890   1.843   9.076  0.00  0.00    +0.000 C 
ATOM     40  C   UNL     1      52.310   1.630   9.521  0.00  0.00    +0.000 C 
ATOM     41  C   UNL     1      50.340   1.116   8.083  0.00  0.00    +0.000 C 
ATOM     42  C   UNL     1      48.989   1.269   7.459  0.00  0.00    +0.000 C 
ENDBRANCH  38  39
ENDBRANCH  36  38
ENDBRANCH  35  36
ENDBRANCH  11  35
TORSDOF 7
ENDMDL
MODEL 4
REMARK VINA RESULT:      -5.9     13.601     16.538
REMARK  Name = 
REMARK  14 active torsions:
REMARK  status: ('A' for Active; 'I' for Inactive)
REMARK    1  A    between atoms: O_1  and  C_24
REMARK    2  A    between atoms: O_1  and  C_36
REMARK    3  A    between atoms: O_4  and  C_30
REMARK    4  A    between atoms: O_4  and  C_37
REMARK    5  A    between atoms: O_7  and  C_33
REMARK    6  A    between atoms: O_7  and  C_38
REMARK    7  A    between atoms: N_10  and  C_23
REMARK    8  A    between atoms: C_15  and  C_26
REMARK    9  A    between atoms: C_16  and  C_24
REMARK   10  A    between atoms: C_31  and  C_34
REMARK   11  A    between atoms: C_32  and  C_35
REMARK   12  A    between atoms: C_36  and  C_39
REMARK   13  A    between atoms: C_39  and  C_40
REMARK   14  A    between atoms: C_41  and  C_42
REMARK                            x       y       z     vdW  Elec       q    Type
REMARK                         _______ _______ _______ _____ _____    ______ ____
ROOT
ATOM      1  O   UNL     1      53.536   0.835   9.576  0.00  0.00    +0.000 OA
ATOM      2  O   UNL     1      48.367   1.290   8.418  0.00  0.00    +0.000 OA
ATOM      3  O   UNL     1      56.074   4.744   9.428  0.00  0.00    +0.000 OA
ATOM      4  O   UNL     1      53.641   7.760   5.786  0.00  0.00    +0.000 OA
ATOM      5  N   UNL     1      52.289   3.740   6.197  0.00  0.00    +0.000 NA
ATOM      6  N   UNL     1      52.471   0.877   5.566  0.00  0.00    +0.000 NA
ATOM      7  C   UNL     1      53.417   2.891   6.660  0.00  0.00    +0.000 C 
ATOM      8  C   UNL     1      52.967   1.383   6.878  0.00  0.00    +0.000 C 
ATOM      9  C   UNL     1      51.253   1.639   5.190  0.00  0.00    +0.000 C 
ATOM     10  C   UNL     1      51.616   3.158   4.991  0.00  0.00    +0.000 C 
ATOM     11  C   UNL     1      52.568   5.198   6.078  0.00  0.00    +0.000 C 
ATOM     12  C   UNL     1      54.056   3.476   7.938  0.00  0.00    +0.000 C 
ATOM     13  C   UNL     1      50.113   1.475   6.234  0.00  0.00    +0.000 C 
ATOM     14  C   UNL     1      51.898   1.271   7.956  0.00  0.00    +0.000 C 
ATOM     15  C   UNL     1      50.592   1.336   7.657  0.00  0.00    +0.000 C 
ATOM     16  C   UNL     1      53.742   5.696   6.907  0.00  0.00    +0.000 C 
ATOM     17  C   UNL     1      54.407   4.923   7.773  0.00  0.00    +0.000 C 
ATOM     18  C   UNL     1      52.304  -0.572   5.523  0.00  0.00    +0.000 C 
ATOM     19  C   UNL     1      52.346   1.025   9.346  0.00  0.00    +0.000 C 
ATOM     20  C   UNL     1      49.557   1.238   8.708  0.00  0.00    +0.000 C 
ATOM     21  C   UNL     1      55.511   5.455   8.602  0.00  0.00    +0.000 C 
ATOM     22  C   UNL     1      54.169   7.101   6.676  0.00  0.00    +0.000 C 
ATOM     23  C   UNL     1      51.308   1.018  10.429  0.00  0.00    +0.000 C 
ATOM     24  C   UNL     1      50.005   1.095  10.117  0.00  0.00    +0.000 C 
ATOM     25  C   UNL     1      55.892   6.878   8.429  0.00  0.00    +0.000 C 
ATOM     26  C   UNL     1      55.256   7.663   7.544  0.00  0.00    +0.000 C 
ATOM     27  C   UNL     1      48.896   1.041  11.128  0.00  0.00    +0.000 C 
ATOM     28  C   UNL     1      57.015   7.345   9.309  0.00  0.00    +0.000 C 
ENDROOT
BRANCH  23  29
ATOM     29  O   UNL     1      51.672   0.869  11.762  0.00  0.00    +0.000 OA
ATOM     30  C   UNL     1      52.038   2.070  12.437  0.00  0.00    +0.000 C 
ENDBRANCH  23  29
BRANCH  26  31
ATOM     31  O   UNL     1      55.664   8.985   7.400  0.00  0.00    +0.000 OA
ATOM     32  C   UNL     1      56.537   9.230   6.300  0.00  0.00    +0.000 C 
ENDBRANCH  26  31
BRANCH  10  34
ATOM     33  N   UNL     1      52.979   3.444   2.733  0.00  0.00    +0.000 NA
ATOM     34  C   UNL     1      52.390   3.299   3.723  0.00  0.00    +0.000 C 
ENDBRANCH  10  34
BRANCH  11  35
ATOM     35  C   UNL     1      51.270   5.957   6.486  0.00  0.00    +0.000 C 
BRANCH  35  36
ATOM     36  O   UNL     1      50.962   5.663   7.865  0.00  0.00    +0.000 OA
BRANCH  36  38
ATOM     37  O   UNL     1      50.128   7.738   8.359  0.00  0.00    +0.000 OA
ATOM     38  C   UNL     1      50.780   6.749   8.651  0.00  0.00    +0.000 C 
BRANCH  38  39
ATOM     39  C   UNL     1      51.377   6.527   9.999  0.00  0.00    +0.000 C 
ATOM     40  C   UNL     1      52.633   7.318  10.231  0.00  0.00    +0.000 C 
ATOM     41  C   UNL     1      50.878   5.697  10.937  0.00  0.00    +0.000 C 
ATOM     42  C   UNL     1      49.707   4.771  10.829  0.00  0.00    +0.000 C 
ENDBRANCH  38  39
ENDBRANCH  36  38
ENDBRANCH  35  36
ENDBRANCH  11  35
TORSDOF 7
ENDMDL
MODEL 5
REMARK VINA RESULT:      -5.8     14.153     17.082
REMARK  Name = 
REMARK  14 active torsions:
REMARK  status: ('A' for Active; 'I' for Inactive)
REMARK    1  A    between atoms: O_1  and  C_24
REMARK    2  A    between atoms: O_1  and  C_36
REMARK    3  A    between atoms: O_4  and  C_30
REMARK    4  A    between atoms: O_4  and  C_37
REMARK    5  A    between atoms: O_7  and  C_33
REMARK    6  A    between atoms: O_7  and  C_38
REMARK    7  A    between atoms: N_10  and  C_23
REMARK    8  A    between atoms: C_15  and  C_26
REMARK    9  A    between atoms: C_16  and  C_24
REMARK   10  A    between atoms: C_31  and  C_34
REMARK   11  A    between atoms: C_32  and  C_35
REMARK   12  A    between atoms: C_36  and  C_39
REMARK   13  A    between atoms: C_39  and  C_40
REMARK   14  A    between atoms: C_41  and  C_42
REMARK                            x       y       z     vdW  Elec       q    Type
REMARK                         _______ _______ _______ _____ _____    ______ ____
ROOT
ATOM      1  O   UNL     1      49.716   5.335   9.958  0.00  0.00    +0.000 OA
ATOM      2  O   UNL     1      52.234   2.224  13.457  0.00  0.00    +0.000 OA
ATOM      3  O   UNL     1      52.368   7.531   6.812  0.00  0.00    +0.000 OA
ATOM      4  O   UNL     1      57.028   8.232   9.274  0.00  0.00    +0.000 OA
ATOM      5  N   UNL     1      53.796   6.752  11.621  0.00  0.00    +0.000 NA
ATOM      6  N   UNL     1      51.405   7.166  13.277  0.00  0.00    +0.000 NA
ATOM      7  C   UNL     1      52.515   7.257  11.062  0.00  0.00    +0.000 C 
ATOM      8  C   UNL     1      51.263   6.703  11.867  0.00  0.00    +0.000 C 
ATOM      9  C   UNL     1      52.611   6.531  13.868  0.00  0.00    +0.000 C 
ATOM     10  C   UNL     1      53.897   7.008  13.094  0.00  0.00    +0.000 C 
ATOM     11  C   UNL     1      55.030   7.110  10.868  0.00  0.00    +0.000 C 
ATOM     12  C   UNL     1      52.405   6.928   9.558  0.00  0.00    +0.000 C 
ATOM     13  C   UNL     1      52.513   4.980  13.876  0.00  0.00    +0.000 C 
ATOM     14  C   UNL     1      51.176   5.185  11.787  0.00  0.00    +0.000 C 
ATOM     15  C   UNL     1      51.770   4.401  12.698  0.00  0.00    +0.000 C 
ATOM     16  C   UNL     1      54.808   7.474   9.409  0.00  0.00    +0.000 C 
ATOM     17  C   UNL     1      53.620   7.370   8.800  0.00  0.00    +0.000 C 
ATOM     18  C   UNL     1      50.193   6.999  14.073  0.00  0.00    +0.000 C 
ATOM     19  C   UNL     1      50.360   4.599  10.700  0.00  0.00    +0.000 C 
ATOM     20  C   UNL     1      51.694   2.927  12.612  0.00  0.00    +0.000 C 
ATOM     21  C   UNL     1      53.452   7.683   7.364  0.00  0.00    +0.000 C 
ATOM     22  C   UNL     1      55.981   8.015   8.673  0.00  0.00    +0.000 C 
ATOM     23  C   UNL     1      50.355   3.107  10.550  0.00  0.00    +0.000 C 
ATOM     24  C   UNL     1      50.962   2.332  11.463  0.00  0.00    +0.000 C 
ATOM     25  C   UNL     1      54.639   8.152   6.607  0.00  0.00    +0.000 C 
ATOM     26  C   UNL     1      55.832   8.290   7.207  0.00  0.00    +0.000 C 
ATOM     27  C   UNL     1      50.962   0.832  11.425  0.00  0.00    +0.000 C 
ATOM     28  C   UNL     1      54.389   8.442   5.155  0.00  0.00    +0.000 C 
ENDROOT
BRANCH  23  29
ATOM     29  O   UNL     1      49.670   2.498   9.504  0.00  0.00    +0.000 OA
ATOM     30  C   UNL     1      50.422   2.304   8.309  0.00  0.00    +0.000 C 
ENDBRANCH  23  29
BRANCH  26  31
ATOM     31  O   UNL     1      56.910   8.755   6.461  0.00  0.00    +0.000 OA
ATOM     32  C   UNL     1      57.806   7.745   6.001  0.00  0.00    +0.000 C 
ENDBRANCH  26  31
BRANCH  10  34
ATOM     33  N   UNL     1      54.355   9.533  13.767  0.00  0.00    +0.000 NA
ATOM     34  C   UNL     1      54.169   8.430  13.457  0.00  0.00    +0.000 C 
ENDBRANCH  10  34
BRANCH  11  35
ATOM     35  C   UNL     1      56.007   5.901  10.972  0.00  0.00    +0.000 C 
BRANCH  35  36
ATOM     36  O   UNL     1      55.243   4.684  11.110  0.00  0.00    +0.000 OA
BRANCH  36  38
ATOM     37  O   UNL     1      56.971   3.391  10.343  0.00  0.00    +0.000 OA
ATOM     38  C   UNL     1      55.780   3.603  10.498  0.00  0.00    +0.000 C 
BRANCH  38  39
ATOM     39  C   UNL     1      54.717   2.617  10.147  0.00  0.00    +0.000 C 
ATOM     40  C   UNL     1      54.677   1.433  11.072  0.00  0.00    +0.000 C 
ATOM     41  C   UNL     1      53.870   2.734   9.106  0.00  0.00    +0.000 C 
ATOM     42  C   UNL     1      53.844   3.787   8.044  0.00  0.00    +0.000 C 
ENDBRANCH  38  39
ENDBRANCH  36  38
ENDBRANCH  35  36
ENDBRANCH  11  35
TORSDOF 7
ENDMDL
MODEL 6
REMARK VINA RESULT:      -5.7     13.130     16.633
REMARK  Name = 
REMARK  14 active torsions:
REMARK  status: ('A' for Active; 'I' for Inactive)
REMARK    1  A    between atoms: O_1  and  C_24
REMARK    2  A    between atoms: O_1  and  C_36
REMARK    3  A    between atoms: O_4  and  C_30
REMARK    4  A    between atoms: O_4  and  C_37
REMARK    5  A    between atoms: O_7  and  C_33
REMARK    6  A    between atoms: O_7  and  C_38
REMARK    7  A    between atoms: N_10  and  C_23
REMARK    8  A    between atoms: C_15  and  C_26
REMARK    9  A    between atoms: C_16  and  C_24
REMARK   10  A    between atoms: C_31  and  C_34
REMARK   11  A    between atoms: C_32  and  C_35
REMARK   12  A    between atoms: C_36  and  C_39
REMARK   13  A    between atoms: C_39  and  C_40
REMARK   14  A    between atoms: C_41  and  C_42
REMARK                            x       y       z     vdW  Elec       q    Type
REMARK                         _______ _______ _______ _____ _____    ______ ____
ROOT
ATOM      1  O   UNL     1      51.120   2.678  12.886  0.00  0.00    +0.000 OA
ATOM      2  O   UNL     1      55.573   5.413  13.863  0.00  0.00    +0.000 OA
ATOM      3  O   UNL     1      50.293   1.529   8.443  0.00  0.00    +0.000 OA
ATOM      4  O   UNL     1      52.615   5.395   5.627  0.00  0.00    +0.000 OA
ATOM      5  N   UNL     1      52.418   5.920   9.850  0.00  0.00    +0.000 NA
ATOM      6  N   UNL     1      51.016   6.782  12.283  0.00  0.00    +0.000 NA
ATOM      7  C   UNL     1      51.221   5.212  10.374  0.00  0.00    +0.000 C 
ATOM      8  C   UNL     1      51.114   5.331  11.955  0.00  0.00    +0.000 C 
ATOM      9  C   UNL     1      52.283   7.447  11.887  0.00  0.00    +0.000 C 
ATOM     10  C   UNL     1      52.477   7.339  10.328  0.00  0.00    +0.000 C 
ATOM     11  C   UNL     1      52.686   5.771   8.393  0.00  0.00    +0.000 C 
ATOM     12  C   UNL     1      51.213   3.737   9.920  0.00  0.00    +0.000 C 
ATOM     13  C   UNL     1      53.511   6.863  12.640  0.00  0.00    +0.000 C 
ATOM     14  C   UNL     1      52.308   4.685  12.644  0.00  0.00    +0.000 C 
ATOM     15  C   UNL     1      53.412   5.388  12.936  0.00  0.00    +0.000 C 
ATOM     16  C   UNL     1      52.051   4.550   7.746  0.00  0.00    +0.000 C 
ATOM     17  C   UNL     1      51.400   3.608   8.439  0.00  0.00    +0.000 C 
ATOM     18  C   UNL     1      50.609   7.044  13.660  0.00  0.00    +0.000 C 
ATOM     19  C   UNL     1      52.187   3.264  13.041  0.00  0.00    +0.000 C 
ATOM     20  C   UNL     1      54.574   4.756  13.595  0.00  0.00    +0.000 C 
ATOM     21  C   UNL     1      50.839   2.407   7.783  0.00  0.00    +0.000 C 
ATOM     22  C   UNL     1      52.136   4.464   6.264  0.00  0.00    +0.000 C 
ATOM     23  C   UNL     1      53.394   2.591  13.625  0.00  0.00    +0.000 C 
ATOM     24  C   UNL     1      54.498   3.304  13.902  0.00  0.00    +0.000 C 
ATOM     25  C   UNL     1      50.989   2.279   6.313  0.00  0.00    +0.000 C 
ATOM     26  C   UNL     1      51.613   3.227   5.595  0.00  0.00    +0.000 C 
ATOM     27  C   UNL     1      55.732   2.728  14.535  0.00  0.00    +0.000 C 
ATOM     28  C   UNL     1      50.400   1.030   5.723  0.00  0.00    +0.000 C 
ENDROOT
BRANCH  23  29
ATOM     29  O   UNL     1      53.370   1.239  13.947  0.00  0.00    +0.000 OA
ATOM     30  C   UNL     1      52.745   0.915  15.186  0.00  0.00    +0.000 C 
ENDBRANCH  23  29
BRANCH  26  31
ATOM     31  O   UNL     1      51.707   3.075   4.216  0.00  0.00    +0.000 OA
ATOM     32  C   UNL     1      52.954   2.562   3.750  0.00  0.00    +0.000 C 
ENDBRANCH  26  31
BRANCH  10  34
ATOM     33  N   UNL     1      50.737   8.980   9.182  0.00  0.00    +0.000 NA
ATOM     34  C   UNL     1      51.505   8.255   9.664  0.00  0.00    +0.000 C 
ENDBRANCH  10  34
BRANCH  11  35
ATOM     35  C   UNL     1      54.232   5.729   8.203  0.00  0.00    +0.000 C 
BRANCH  35  36
ATOM     36  O   UNL     1      54.800   4.799   9.149  0.00  0.00    +0.000 OA
BRANCH  36  38
ATOM     37  O   UNL     1      56.985   4.220   8.782  0.00  0.00    +0.000 OA
ATOM     38  C   UNL     1      55.789   4.018   8.655  0.00  0.00    +0.000 C 
BRANCH  38  39
ATOM     39  C   UNL     1      55.224   2.783   8.039  0.00  0.00    +0.000 C 
ATOM     40  C   UNL     1      55.382   2.739   6.545  0.00  0.00    +0.000 C 
ATOM     41  C   UNL     1      54.613   1.792   8.718  0.00  0.00    +0.000 C 
ATOM     42  C   UNL     1      54.289   1.729  10.177  0.00  0.00    +0.000 C 
ENDBRANCH  38  39
ENDBRANCH  36  38
ENDBRANCH  35  36
ENDBRANCH  11  35
TORSDOF 7
ENDMDL
MODEL 7
REMARK VINA RESULT:      -5.2      2.032      7.306
REMARK  Name = 
REMARK  14 active torsions:
REMARK  status: ('A' for Active; 'I' for Inactive)
REMARK    1  A    between atoms: O_1  and  C_24
REMARK    2  A    between atoms: O_1  and  C_36
REMARK    3  A    between atoms: O_4  and  C_30
REMARK    4  A    between atoms: O_4  and  C_37
REMARK    5  A    between atoms: O_7  and  C_33
REMARK    6  A    between atoms: O_7  and  C_38
REMARK    7  A    between atoms: N_10  and  C_23
REMARK    8  A    between atoms: C_15  and  C_26
REMARK    9  A    between atoms: C_16  and  C_24
REMARK   10  A    between atoms: C_31  and  C_34
REMARK   11  A    between atoms: C_32  and  C_35
REMARK   12  A    between atoms: C_36  and  C_39
REMARK   13  A    between atoms: C_39  and  C_40
REMARK   14  A    between atoms: C_41  and  C_42
REMARK                            x       y       z     vdW  Elec       q    Type
REMARK                         _______ _______ _______ _____ _____    ______ ____
ROOT
ATOM      1  O   UNL     1      38.401  -1.764  17.983  0.00  0.00    +0.000 OA
ATOM      2  O   UNL     1      42.888   1.039  18.507  0.00  0.00    +0.000 OA
ATOM      3  O   UNL     1      38.860  -6.351  17.279  0.00  0.00    +0.000 OA
ATOM      4  O   UNL     1      43.509  -6.838  14.745  0.00  0.00    +0.000 OA
ATOM      5  N   UNL     1      42.018  -2.889  15.325  0.00  0.00    +0.000 NA
ATOM      6  N   UNL     1      40.354  -0.612  14.507  0.00  0.00    +0.000 NA
ATOM      7  C   UNL     1      40.533  -2.930  15.368  0.00  0.00    +0.000 C 
ATOM      8  C   UNL     1      39.913  -1.491  15.628  0.00  0.00    +0.000 C 
ATOM      9  C   UNL     1      41.830  -0.461  14.571  0.00  0.00    +0.000 C 
ATOM     10  C   UNL     1      42.517  -1.862  14.355  0.00  0.00    +0.000 C 
ATOM     11  C   UNL     1      42.710  -4.203  15.209  0.00  0.00    +0.000 C 
ATOM     12  C   UNL     1      40.042  -3.951  16.417  0.00  0.00    +0.000 C 
ATOM     13  C   UNL     1      42.297   0.185  15.905  0.00  0.00    +0.000 C 
ATOM     14  C   UNL     1      40.349  -0.933  16.976  0.00  0.00    +0.000 C 
ATOM     15  C   UNL     1      41.454  -0.183  17.100  0.00  0.00    +0.000 C 
ATOM     16  C   UNL     1      41.890  -5.402  15.661  0.00  0.00    +0.000 C 
ATOM     17  C   UNL     1      40.686  -5.291  16.234  0.00  0.00    +0.000 C 
ATOM     18  C   UNL     1      39.628   0.653  14.436  0.00  0.00    +0.000 C 
ATOM     19  C   UNL     1      39.474  -1.192  18.143  0.00  0.00    +0.000 C 
ATOM     20  C   UNL     1      41.880   0.348  18.411  0.00  0.00    +0.000 C 
ATOM     21  C   UNL     1      39.938  -6.476  16.709  0.00  0.00    +0.000 C 
ATOM     22  C   UNL     1      42.469  -6.743  15.389  0.00  0.00    +0.000 C 
ATOM     23  C   UNL     1      39.948  -0.737  19.491  0.00  0.00    +0.000 C 
ATOM     24  C   UNL     1      41.063   0.003  19.603  0.00  0.00    +0.000 C 
ATOM     25  C   UNL     1      40.548  -7.814  16.508  0.00  0.00    +0.000 C 
ATOM     26  C   UNL     1      41.743  -7.948  15.909  0.00  0.00    +0.000 C 
ATOM     27  C   UNL     1      41.581   0.548  20.903  0.00  0.00    +0.000 C 
ATOM     28  C   UNL     1      39.733  -8.965  17.023  0.00  0.00    +0.000 C 
ENDROOT
BRANCH  23  29
ATOM     29  O   UNL     1      39.211  -1.017  20.637  0.00  0.00    +0.000 OA
ATOM     30  C   UNL     1      38.114  -0.142  20.889  0.00  0.00    +0.000 C 
ENDBRANCH  23  29
BRANCH  26  31
ATOM     31  O   UNL     1      42.263  -9.224  15.722  0.00  0.00    +0.000 OA
ATOM     32  C   UNL     1      43.251  -9.618  16.672  0.00  0.00    +0.000 C 
ENDBRANCH  26  31
BRANCH  10  34
ATOM     33  N   UNL     1      42.253  -2.579  11.815  0.00  0.00    +0.000 NA
ATOM     34  C   UNL     1      42.374  -2.245  12.920  0.00  0.00    +0.000 C 
ENDBRANCH  10  34
BRANCH  11  35
ATOM     35  C   UNL     1      44.025  -4.114  16.040  0.00  0.00    +0.000 C 
BRANCH  35  36
ATOM     36  O   UNL     1      43.793  -3.297  17.207  0.00  0.00    +0.000 OA
BRANCH  36  38
ATOM     37  O   UNL     1      44.975  -4.703  18.575  0.00  0.00    +0.000 OA
ATOM     38  C   UNL     1      44.081  -3.895  18.386  0.00  0.00    +0.000 C 
BRANCH  38  39
ATOM     39  C   UNL     1      43.239  -3.331  19.480  0.00  0.00    +0.000 C 
ATOM     40  C   UNL     1      41.860  -3.926  19.535  0.00  0.00    +0.000 C 
ATOM     41  C   UNL     1      43.634  -2.373  20.342  0.00  0.00    +0.000 C 
ATOM     42  C   UNL     1      44.922  -1.613  20.359  0.00  0.00    +0.000 C 
ENDBRANCH  38  39
ENDBRANCH  36  38
ENDBRANCH  35  36
ENDBRANCH  11  35
TORSDOF 7
ENDMDL
MODEL 8
REMARK VINA RESULT:      -5.0     25.641     28.358
REMARK  Name = 
REMARK  14 active torsions:
REMARK  status: ('A' for Active; 'I' for Inactive)
REMARK    1  A    between atoms: O_1  and  C_24
REMARK    2  A    between atoms: O_1  and  C_36
REMARK    3  A    between atoms: O_4  and  C_30
REMARK    4  A    between atoms: O_4  and  C_37
REMARK    5  A    between atoms: O_7  and  C_33
REMARK    6  A    between atoms: O_7  and  C_38
REMARK    7  A    between atoms: N_10  and  C_23
REMARK    8  A    between atoms: C_15  and  C_26
REMARK    9  A    between atoms: C_16  and  C_24
REMARK   10  A    between atoms: C_31  and  C_34
REMARK   11  A    between atoms: C_32  and  C_35
REMARK   12  A    between atoms: C_36  and  C_39
REMARK   13  A    between atoms: C_39  and  C_40
REMARK   14  A    between atoms: C_41  and  C_42
REMARK                            x       y       z     vdW  Elec       q    Type
REMARK                         _______ _______ _______ _____ _____    ______ ____
ROOT
ATOM      1  O   UNL     1      40.801  -1.395  -8.539  0.00  0.00    +0.000 OA
ATOM      2  O   UNL     1      42.282  -0.589 -13.581  0.00  0.00    +0.000 OA
ATOM      3  O   UNL     1      37.575   1.494  -6.810  0.00  0.00    +0.000 OA
ATOM      4  O   UNL     1      38.313   6.039  -9.469  0.00  0.00    +0.000 OA
ATOM      5  N   UNL     1      41.206   2.963 -10.040  0.00  0.00    +0.000 NA
ATOM      6  N   UNL     1      43.649   1.538  -9.250  0.00  0.00    +0.000 NA
ATOM      7  C   UNL     1      41.282   2.132  -8.811  0.00  0.00    +0.000 C 
ATOM      8  C   UNL     1      42.313   0.935  -8.975  0.00  0.00    +0.000 C 
ATOM      9  C   UNL     1      43.595   2.240 -10.558  0.00  0.00    +0.000 C 
ATOM     10  C   UNL     1      42.561   3.425 -10.482  0.00  0.00    +0.000 C 
ATOM     11  C   UNL     1      40.179   4.042 -10.042  0.00  0.00    +0.000 C 
ATOM     12  C   UNL     1      39.884   1.616  -8.409  0.00  0.00    +0.000 C 
ATOM     13  C   UNL     1      43.249   1.277 -11.727  0.00  0.00    +0.000 C 
ATOM     14  C   UNL     1      41.893  -0.015 -10.088  0.00  0.00    +0.000 C 
ATOM     15  C   UNL     1      42.307   0.160 -11.352  0.00  0.00    +0.000 C 
ATOM     16  C   UNL     1      39.034   3.839  -9.063  0.00  0.00    +0.000 C 
ATOM     17  C   UNL     1      38.881   2.727  -8.334  0.00  0.00    +0.000 C 
ATOM     18  C   UNL     1      44.755   0.592  -9.126  0.00  0.00    +0.000 C 
ATOM     19  C   UNL     1      41.057  -1.180  -9.719  0.00  0.00    +0.000 C 
ATOM     20  C   UNL     1      41.888  -0.757 -12.432  0.00  0.00    +0.000 C 
ATOM     21  C   UNL     1      37.726   2.542  -7.429  0.00  0.00    +0.000 C 
ATOM     22  C   UNL     1      38.090   4.976  -8.899  0.00  0.00    +0.000 C 
ATOM     23  C   UNL     1      40.551  -2.060 -10.823  0.00  0.00    +0.000 C 
ATOM     24  C   UNL     1      40.964  -1.868 -12.086  0.00  0.00    +0.000 C 
ATOM     25  C   UNL     1      36.739   3.645  -7.320  0.00  0.00    +0.000 C 
ATOM     26  C   UNL     1      36.890   4.781  -8.021  0.00  0.00    +0.000 C 
ATOM     27  C   UNL     1      40.554  -2.731 -13.244  0.00  0.00    +0.000 C 
ATOM     28  C   UNL     1      35.593   3.380  -6.388  0.00  0.00    +0.000 C 
ENDROOT
BRANCH  23  29
ATOM     29  O   UNL     1      39.699  -3.125 -10.551  0.00  0.00    +0.000 OA
ATOM     30  C   UNL     1      38.311  -2.804 -10.500  0.00  0.00    +0.000 C 
ENDBRANCH  23  29
BRANCH  26  31
ATOM     31  O   UNL     1      35.952   5.796  -7.868  0.00  0.00    +0.000 OA
ATOM     32  C   UNL     1      36.399   6.922  -7.115  0.00  0.00    +0.000 C 
ENDBRANCH  26  31
BRANCH  10  34
ATOM     33  N   UNL     1      43.605   5.336  -8.968  0.00  0.00    +0.000 NA
ATOM     34  C   UNL     1      43.146   4.514  -9.647  0.00  0.00    +0.000 C 
ENDBRANCH  10  34
BRANCH  11  35
ATOM     35  C   UNL     1      39.623   4.155 -11.494  0.00  0.00    +0.000 C 
BRANCH  35  36
ATOM     36  O   UNL     1      39.459   2.831 -12.043  0.00  0.00    +0.000 OA
BRANCH  36  38
ATOM     37  O   UNL     1      37.948   2.783 -13.763  0.00  0.00    +0.000 OA
ATOM     38  C   UNL     1      38.248   2.590 -12.596  0.00  0.00    +0.000 C 
BRANCH  38  39
ATOM     39  C   UNL     1      37.346   1.921 -11.615  0.00  0.00    +0.000 C 
ATOM     40  C   UNL     1      37.783   0.527 -11.262  0.00  0.00    +0.000 C 
ATOM     41  C   UNL     1      36.234   2.471 -11.089  0.00  0.00    +0.000 C 
ATOM     42  C   UNL     1      35.612   3.793 -11.410  0.00  0.00    +0.000 C 
ENDBRANCH  38  39
ENDBRANCH  36  38
ENDBRANCH  35  36
ENDBRANCH  11  35
TORSDOF 7
ENDMDL
MODEL 9
REMARK VINA RESULT:      -5.0     25.589     29.911
REMARK  Name = 
REMARK  14 active torsions:
REMARK  status: ('A' for Active; 'I' for Inactive)
REMARK    1  A    between atoms: O_1  and  C_24
REMARK    2  A    between atoms: O_1  and  C_36
REMARK    3  A    between atoms: O_4  and  C_30
REMARK    4  A    between atoms: O_4  and  C_37
REMARK    5  A    between atoms: O_7  and  C_33
REMARK    6  A    between atoms: O_7  and  C_38
REMARK    7  A    between atoms: N_10  and  C_23
REMARK    8  A    between atoms: C_15  and  C_26
REMARK    9  A    between atoms: C_16  and  C_24
REMARK   10  A    between atoms: C_31  and  C_34
REMARK   11  A    between atoms: C_32  and  C_35
REMARK   12  A    between atoms: C_36  and  C_39
REMARK   13  A    between atoms: C_39  and  C_40
REMARK   14  A    between atoms: C_41  and  C_42
REMARK                            x       y       z     vdW  Elec       q    Type
REMARK                         _______ _______ _______ _____ _____    ______ ____
ROOT
ATOM      1  O   UNL     1      43.025   4.109  -8.153  0.00  0.00    +0.000 OA
ATOM      2  O   UNL     1      38.533   4.928 -10.878  0.00  0.00    +0.000 OA
ATOM      3  O   UNL     1      46.229   1.379 -10.159  0.00  0.00    +0.000 OA
ATOM      4  O   UNL     1      43.409  -1.965 -13.182  0.00  0.00    +0.000 OA
ATOM      5  N   UNL     1      41.231   0.578 -10.546  0.00  0.00    +0.000 NA
ATOM      6  N   UNL     1      40.083   1.192  -7.914  0.00  0.00    +0.000 NA
ATOM      7  C   UNL     1      42.072   0.888  -9.361  0.00  0.00    +0.000 C 
ATOM      8  C   UNL     1      41.334   1.872  -8.357  0.00  0.00    +0.000 C 
ATOM      9  C   UNL     1      39.188   1.026  -9.087  0.00  0.00    +0.000 C 
ATOM     10  C   UNL     1      39.873   0.085 -10.148  0.00  0.00    +0.000 C 
ATOM     11  C   UNL     1      41.872  -0.239 -11.614  0.00  0.00    +0.000 C 
ATOM     12  C   UNL     1      43.443   1.452  -9.793  0.00  0.00    +0.000 C 
ATOM     13  C   UNL     1      38.798   2.388  -9.726  0.00  0.00    +0.000 C 
ATOM     14  C   UNL     1      41.035   3.214  -9.011  0.00  0.00    +0.000 C 
ATOM     15  C   UNL     1      39.880   3.437  -9.656  0.00  0.00    +0.000 C 
ATOM     16  C   UNL     1      43.392  -0.212 -11.616  0.00  0.00    +0.000 C 
ATOM     17  C   UNL     1      44.112   0.574 -10.806  0.00  0.00    +0.000 C 
ATOM     18  C   UNL     1      39.446   1.830  -6.765  0.00  0.00    +0.000 C 
ATOM     19  C   UNL     1      42.038   4.292  -8.859  0.00  0.00    +0.000 C 
ATOM     20  C   UNL     1      39.597   4.737 -10.300  0.00  0.00    +0.000 C 
ATOM     21  C   UNL     1      45.590   0.613 -10.872  0.00  0.00    +0.000 C 
ATOM     22  C   UNL     1      44.072  -1.155 -12.542  0.00  0.00    +0.000 C 
ATOM     23  C   UNL     1      41.801   5.581  -9.588  0.00  0.00    +0.000 C 
ATOM     24  C   UNL     1      40.645   5.788 -10.240  0.00  0.00    +0.000 C 
ATOM     25  C   UNL     1      46.270  -0.273 -11.849  0.00  0.00    +0.000 C 
ATOM     26  C   UNL     1      45.567  -1.090 -12.650  0.00  0.00    +0.000 C 
ATOM     27  C   UNL     1      40.299   7.065 -10.949  0.00  0.00    +0.000 C 
ATOM     28  C   UNL     1      47.768  -0.170 -11.860  0.00  0.00    +0.000 C 
ENDROOT
BRANCH  23  29
ATOM     29  O   UNL     1      42.741   6.605  -9.549  0.00  0.00    +0.000 OA
ATOM     30  C   UNL     1      42.708   7.424  -8.383  0.00  0.00    +0.000 C 
ENDBRANCH  23  29
BRANCH  26  31
ATOM     31  O   UNL     1      46.250  -1.919 -13.533  0.00  0.00    +0.000 OA
ATOM     32  C   UNL     1      46.327  -1.439 -14.874  0.00  0.00    +0.000 C 
ENDBRANCH  26  31
BRANCH  10  34
ATOM     33  N   UNL     1      39.806  -2.409  -9.245  0.00  0.00    +0.000 NA
ATOM     34  C   UNL     1      39.852  -1.313  -9.627  0.00  0.00    +0.000 C 
ENDBRANCH  10  34
BRANCH  11  35
ATOM     35  C   UNL     1      41.329   0.271 -12.982  0.00  0.00    +0.000 C 
BRANCH  35  36
ATOM     36  O   UNL     1      41.110   1.695 -12.903  0.00  0.00    +0.000 OA
BRANCH  36  38
ATOM     37  O   UNL     1      41.075   2.723 -14.950  0.00  0.00    +0.000 OA
ATOM     38  C   UNL     1      41.647   2.411 -13.919  0.00  0.00    +0.000 C 
BRANCH  38  39
ATOM     39  C   UNL     1      43.010   2.895 -13.556  0.00  0.00    +0.000 C 
ATOM     40  C   UNL     1      42.999   3.968 -12.504  0.00  0.00    +0.000 C 
ATOM     41  C   UNL     1      44.158   2.450 -14.105  0.00  0.00    +0.000 C 
ATOM     42  C   UNL     1      44.334   1.471 -15.222  0.00  0.00    +0.000 C 
ENDBRANCH  38  39
ENDBRANCH  36  38
ENDBRANCH  35  36
ENDBRANCH  11  35
TORSDOF 7
ENDMDL
