MODEL 1
REMARK VINA RESULT:      -7.1      0.000      0.000
REMARK  Name = Resveratrol.pdbqt.pdb
REMARK  5 active torsions:
REMARK  status: ('A' for Active; 'I' for Inactive)
REMARK    1  A    between atoms: C_1  and  C_11
REMARK    2  A    between atoms: C_4  and  O_7
REMARK    3  A    between atoms: C_5  and  O_9
REMARK    4  A    between atoms: C_12  and  C_13
REMARK    5  A    between atoms: C_18  and  O_19
REMARK                            x       y       z     vdW  Elec       q    Type
REMARK                         _______ _______ _______ _____ _____    ______ ____
ROOT
ATOM      1  C   UNL     1      36.807  16.308  20.160  0.00  0.00    +0.000 A 
ATOM      2  C   UNL     1      38.174  16.557  20.044  0.00  0.00    +0.000 A 
ATOM      3  C   UNL     1      35.882  17.253  19.717  0.00  0.00    +0.000 A 
ATOM      4  C   UNL     1      36.335  18.446  19.159  0.00  0.00    +0.000 A 
ATOM      5  C   UNL     1      38.606  17.755  19.484  0.00  0.00    +0.000 A 
ATOM      6  C   UNL     1      37.696  18.707  19.037  0.00  0.00    +0.000 A 
ENDROOT
BRANCH   4   7
ATOM      7  O   UNL     1      35.453  19.388  18.717  0.00  0.00    +0.000 OA
ATOM      8  H   UNL     1      34.584  19.201  19.114  0.00  0.00    +0.000 HD
ENDBRANCH   4   7
BRANCH   5   9
ATOM      9  O   UNL     1      39.950  17.976  19.381  0.00  0.00    +0.000 OA
ATOM     10  H   UNL     1      40.409  17.149  19.612  0.00  0.00    +0.000 HD
ENDBRANCH   5   9
BRANCH   1  11
ATOM     11  C   UNL     1      36.352  15.085  20.734  0.00  0.00    +0.000 C 
ATOM     12  C   UNL     1      35.968  14.054  21.216  0.00  0.00    +0.000 C 
BRANCH  12  13
ATOM     13  C   UNL     1      35.513  12.830  21.789  0.00  0.00    +0.000 A 
ATOM     14  C   UNL     1      34.620  12.022  21.085  0.00  0.00    +0.000 A 
ATOM     15  C   UNL     1      35.962  12.443  23.052  0.00  0.00    +0.000 A 
ATOM     16  C   UNL     1      34.175  10.827  21.642  0.00  0.00    +0.000 A 
ATOM     17  C   UNL     1      35.518  11.249  23.613  0.00  0.00    +0.000 A 
ATOM     18  C   UNL     1      34.628  10.450  22.903  0.00  0.00    +0.000 A 
BRANCH  18  19
ATOM     19  O   UNL     1      34.207   9.284  23.473  0.00  0.00    +0.000 OA
ATOM     20  H   UNL     1      33.348   9.046  23.084  0.00  0.00    +0.000 HD
ENDBRANCH  18  19
ENDBRANCH  12  13
ENDBRANCH   1  11
TORSDOF 5
ENDMDL
MODEL 2
REMARK VINA RESULT:      -7.1      0.208      2.018
REMARK  Name = Resveratrol.pdbqt.pdb
REMARK  5 active torsions:
REMARK  status: ('A' for Active; 'I' for Inactive)
REMARK    1  A    between atoms: C_1  and  C_11
REMARK    2  A    between atoms: C_4  and  O_7
REMARK    3  A    between atoms: C_5  and  O_9
REMARK    4  A    between atoms: C_12  and  C_13
REMARK    5  A    between atoms: C_18  and  O_19
REMARK                            x       y       z     vdW  Elec       q    Type
REMARK                         _______ _______ _______ _____ _____    ______ ____
ROOT
ATOM      1  C   UNL     1      36.787  16.242  20.123  0.00  0.00    +0.000 A 
ATOM      2  C   UNL     1      35.883  17.210  19.687  0.00  0.00    +0.000 A 
ATOM      3  C   UNL     1      38.159  16.475  20.040  0.00  0.00    +0.000 A 
ATOM      4  C   UNL     1      38.618  17.682  19.518  0.00  0.00    +0.000 A 
ATOM      5  C   UNL     1      36.362  18.409  19.169  0.00  0.00    +0.000 A 
ATOM      6  C   UNL     1      37.728  18.657  19.080  0.00  0.00    +0.000 A 
ENDROOT
BRANCH   4   7
ATOM      7  O   UNL     1      39.956  17.937  19.425  0.00  0.00    +0.000 OA
ATOM      8  H   UNL     1      40.083  18.902  19.450  0.00  0.00    +0.000 HD
ENDBRANCH   4   7
BRANCH   5   9
ATOM      9  O   UNL     1      35.459  19.343  18.749  0.00  0.00    +0.000 OA
ATOM     10  H   UNL     1      34.634  19.209  19.249  0.00  0.00    +0.000 HD
ENDBRANCH   5   9
BRANCH   1  11
ATOM     11  C   UNL     1      36.308  15.009  20.655  0.00  0.00    +0.000 C 
ATOM     12  C   UNL     1      35.904  13.970  21.104  0.00  0.00    +0.000 C 
BRANCH  12  13
ATOM     13  C   UNL     1      35.425  12.737  21.636  0.00  0.00    +0.000 A 
ATOM     14  C   UNL     1      34.384  12.063  20.998  0.00  0.00    +0.000 A 
ATOM     15  C   UNL     1      35.997  12.209  22.793  0.00  0.00    +0.000 A 
ATOM     16  C   UNL     1      33.914  10.859  21.515  0.00  0.00    +0.000 A 
ATOM     17  C   UNL     1      35.530  11.005  23.314  0.00  0.00    +0.000 A 
ATOM     18  C   UNL     1      34.491  10.340  22.670  0.00  0.00    +0.000 A 
BRANCH  18  19
ATOM     19  O   UNL     1      34.051   9.162  23.199  0.00  0.00    +0.000 OA
ATOM     20  H   UNL     1      34.612   8.940  23.962  0.00  0.00    +0.000 HD
ENDBRANCH  18  19
ENDBRANCH  12  13
ENDBRANCH   1  11
TORSDOF 5
ENDMDL
MODEL 3
REMARK VINA RESULT:      -6.6      1.468      7.456
REMARK  Name = Resveratrol.pdbqt.pdb
REMARK  5 active torsions:
REMARK  status: ('A' for Active; 'I' for Inactive)
REMARK    1  A    between atoms: C_1  and  C_11
REMARK    2  A    between atoms: C_4  and  O_7
REMARK    3  A    between atoms: C_5  and  O_9
REMARK    4  A    between atoms: C_12  and  C_13
REMARK    5  A    between atoms: C_18  and  O_19
REMARK                            x       y       z     vdW  Elec       q    Type
REMARK                         _______ _______ _______ _____ _____    ______ ____
ROOT
ATOM      1  C   UNL     1      35.075  13.132  21.205  0.00  0.00    +0.000 A 
ATOM      2  C   UNL     1      35.776  11.967  21.514  0.00  0.00    +0.000 A 
ATOM      3  C   UNL     1      33.683  13.155  21.287  0.00  0.00    +0.000 A 
ATOM      4  C   UNL     1      33.001  12.006  21.679  0.00  0.00    +0.000 A 
ATOM      5  C   UNL     1      35.076  10.830  21.904  0.00  0.00    +0.000 A 
ATOM      6  C   UNL     1      33.687  10.838  21.991  0.00  0.00    +0.000 A 
ENDROOT
BRANCH   4   7
ATOM      7  O   UNL     1      31.639  12.000  21.768  0.00  0.00    +0.000 OA
ATOM      8  H   UNL     1      31.368  11.185  22.228  0.00  0.00    +0.000 HD
ENDBRANCH   4   7
BRANCH   5   9
ATOM      9  O   UNL     1      35.784   9.701  22.202  0.00  0.00    +0.000 OA
ATOM     10  H   UNL     1      35.164   9.045  22.566  0.00  0.00    +0.000 HD
ENDBRANCH   5   9
BRANCH   1  11
ATOM     11  C   UNL     1      35.781  14.304  20.804  0.00  0.00    +0.000 C 
ATOM     12  C   UNL     1      36.376  15.291  20.464  0.00  0.00    +0.000 C 
BRANCH  12  13
ATOM     13  C   UNL     1      37.081  16.463  20.062  0.00  0.00    +0.000 A 
ATOM     14  C   UNL     1      36.464  17.711  20.152  0.00  0.00    +0.000 A 
ATOM     15  C   UNL     1      38.386  16.359  19.579  0.00  0.00    +0.000 A 
ATOM     16  C   UNL     1      37.151  18.856  19.760  0.00  0.00    +0.000 A 
ATOM     17  C   UNL     1      39.075  17.503  19.186  0.00  0.00    +0.000 A 
ATOM     18  C   UNL     1      38.452  18.743  19.279  0.00  0.00    +0.000 A 
BRANCH  18  19
ATOM     19  O   UNL     1      39.148  19.849  18.888  0.00  0.00    +0.000 OA
ATOM     20  H   UNL     1      39.073  20.521  19.588  0.00  0.00    +0.000 HD
ENDBRANCH  18  19
ENDBRANCH  12  13
ENDBRANCH   1  11
TORSDOF 5
ENDMDL
MODEL 4
REMARK VINA RESULT:      -6.6      1.465      7.716
REMARK  Name = Resveratrol.pdbqt.pdb
REMARK  5 active torsions:
REMARK  status: ('A' for Active; 'I' for Inactive)
REMARK    1  A    between atoms: C_1  and  C_11
REMARK    2  A    between atoms: C_4  and  O_7
REMARK    3  A    between atoms: C_5  and  O_9
REMARK    4  A    between atoms: C_12  and  C_13
REMARK    5  A    between atoms: C_18  and  O_19
REMARK                            x       y       z     vdW  Elec       q    Type
REMARK                         _______ _______ _______ _____ _____    ______ ____
ROOT
ATOM      1  C   UNL     1      35.079  13.119  21.210  0.00  0.00    +0.000 A 
ATOM      2  C   UNL     1      33.688  13.136  21.295  0.00  0.00    +0.000 A 
ATOM      3  C   UNL     1      35.787  11.958  21.518  0.00  0.00    +0.000 A 
ATOM      4  C   UNL     1      35.093  10.816  21.910  0.00  0.00    +0.000 A 
ATOM      5  C   UNL     1      33.013  11.984  21.689  0.00  0.00    +0.000 A 
ATOM      6  C   UNL     1      33.705  10.818  21.999  0.00  0.00    +0.000 A 
ENDROOT
BRANCH   4   7
ATOM      7  O   UNL     1      35.760   9.666  22.217  0.00  0.00    +0.000 OA
ATOM      8  H   UNL     1      35.114   9.024  22.565  0.00  0.00    +0.000 HD
ENDBRANCH   4   7
BRANCH   5   9
ATOM      9  O   UNL     1      31.650  12.024  21.764  0.00  0.00    +0.000 OA
ATOM     10  H   UNL     1      31.336  11.133  21.998  0.00  0.00    +0.000 HD
ENDBRANCH   5   9
BRANCH   1  11
ATOM     11  C   UNL     1      35.783  14.292  20.808  0.00  0.00    +0.000 C 
ATOM     12  C   UNL     1      36.375  15.282  20.470  0.00  0.00    +0.000 C 
BRANCH  12  13
ATOM     13  C   UNL     1      37.078  16.456  20.069  0.00  0.00    +0.000 A 
ATOM     14  C   UNL     1      36.464  17.703  20.172  0.00  0.00    +0.000 A 
ATOM     15  C   UNL     1      38.379  16.353  19.576  0.00  0.00    +0.000 A 
ATOM     16  C   UNL     1      37.148  18.850  19.782  0.00  0.00    +0.000 A 
ATOM     17  C   UNL     1      39.067  17.498  19.184  0.00  0.00    +0.000 A 
ATOM     18  C   UNL     1      38.446  18.738  19.290  0.00  0.00    +0.000 A 
BRANCH  18  19
ATOM     19  O   UNL     1      39.140  19.846  18.900  0.00  0.00    +0.000 OA
ATOM     20  H   UNL     1      39.105  20.498  19.621  0.00  0.00    +0.000 HD
ENDBRANCH  18  19
ENDBRANCH  12  13
ENDBRANCH   1  11
TORSDOF 5
ENDMDL
MODEL 5
REMARK VINA RESULT:      -6.6     14.167     16.940
REMARK  Name = Resveratrol.pdbqt.pdb
REMARK  5 active torsions:
REMARK  status: ('A' for Active; 'I' for Inactive)
REMARK    1  A    between atoms: C_1  and  C_11
REMARK    2  A    between atoms: C_4  and  O_7
REMARK    3  A    between atoms: C_5  and  O_9
REMARK    4  A    between atoms: C_12  and  C_13
REMARK    5  A    between atoms: C_18  and  O_19
REMARK                            x       y       z     vdW  Elec       q    Type
REMARK                         _______ _______ _______ _____ _____    ______ ____
ROOT
ATOM      1  C   UNL     1      40.934  -0.617  13.933  0.00  0.00    +0.000 A 
ATOM      2  C   UNL     1      41.135  -0.144  12.637  0.00  0.00    +0.000 A 
ATOM      3  C   UNL     1      41.069  -1.976  14.212  0.00  0.00    +0.000 A 
ATOM      4  C   UNL     1      41.406  -2.856  13.187  0.00  0.00    +0.000 A 
ATOM      5  C   UNL     1      41.471  -1.039  11.626  0.00  0.00    +0.000 A 
ATOM      6  C   UNL     1      41.610  -2.398  11.890  0.00  0.00    +0.000 A 
ENDROOT
BRANCH   4   7
ATOM      7  O   UNL     1      41.545  -4.191  13.432  0.00  0.00    +0.000 OA
ATOM      8  H   UNL     1      42.356  -4.321  13.955  0.00  0.00    +0.000 HD
ENDBRANCH   4   7
BRANCH   5   9
ATOM      9  O   UNL     1      41.663  -0.553  10.365  0.00  0.00    +0.000 OA
ATOM     10  H   UNL     1      41.982  -1.285   9.807  0.00  0.00    +0.000 HD
ENDBRANCH   5   9
BRANCH   1  11
ATOM     11  C   UNL     1      40.588   0.291  14.977  0.00  0.00    +0.000 C 
ATOM     12  C   UNL     1      40.297   1.055  15.857  0.00  0.00    +0.000 C 
BRANCH  12  13
ATOM     13  C   UNL     1      39.953   1.963  16.901  0.00  0.00    +0.000 A 
ATOM     14  C   UNL     1      39.581   3.271  16.590  0.00  0.00    +0.000 A 
ATOM     15  C   UNL     1      39.988   1.542  18.230  0.00  0.00    +0.000 A 
ATOM     16  C   UNL     1      39.244   4.159  17.607  0.00  0.00    +0.000 A 
ATOM     17  C   UNL     1      39.651   2.427  19.250  0.00  0.00    +0.000 A 
ATOM     18  C   UNL     1      39.282   3.730  18.931  0.00  0.00    +0.000 A 
BRANCH  18  19
ATOM     19  O   UNL     1      38.957   4.579  19.948  0.00  0.00    +0.000 OA
ATOM     20  H   UNL     1      39.387   5.435  19.780  0.00  0.00    +0.000 HD
ENDBRANCH  18  19
ENDBRANCH  12  13
ENDBRANCH   1  11
TORSDOF 5
ENDMDL
MODEL 6
REMARK VINA RESULT:      -6.5     14.164     16.901
REMARK  Name = Resveratrol.pdbqt.pdb
REMARK  5 active torsions:
REMARK  status: ('A' for Active; 'I' for Inactive)
REMARK    1  A    between atoms: C_1  and  C_11
REMARK    2  A    between atoms: C_4  and  O_7
REMARK    3  A    between atoms: C_5  and  O_9
REMARK    4  A    between atoms: C_12  and  C_13
REMARK    5  A    between atoms: C_18  and  O_19
REMARK                            x       y       z     vdW  Elec       q    Type
REMARK                         _______ _______ _______ _____ _____    ______ ____
ROOT
ATOM      1  C   UNL     1      40.926  -0.609  13.924  0.00  0.00    +0.000 A 
ATOM      2  C   UNL     1      41.060  -1.969  14.198  0.00  0.00    +0.000 A 
ATOM      3  C   UNL     1      41.127  -0.131  12.629  0.00  0.00    +0.000 A 
ATOM      4  C   UNL     1      41.462  -1.023  11.614  0.00  0.00    +0.000 A 
ATOM      5  C   UNL     1      41.396  -2.844  13.169  0.00  0.00    +0.000 A 
ATOM      6  C   UNL     1      41.599  -2.383  11.873  0.00  0.00    +0.000 A 
ENDROOT
BRANCH   4   7
ATOM      7  O   UNL     1      41.664  -0.583  10.338  0.00  0.00    +0.000 OA
ATOM      8  H   UNL     1      41.281  -1.237   9.727  0.00  0.00    +0.000 HD
ENDBRANCH   4   7
BRANCH   5   9
ATOM      9  O   UNL     1      41.521  -4.172  13.461  0.00  0.00    +0.000 OA
ATOM     10  H   UNL     1      40.806  -4.649  13.003  0.00  0.00    +0.000 HD
ENDBRANCH   5   9
BRANCH   1  11
ATOM     11  C   UNL     1      40.583   0.298  14.969  0.00  0.00    +0.000 C 
ATOM     12  C   UNL     1      40.295   1.062  15.851  0.00  0.00    +0.000 C 
BRANCH  12  13
ATOM     13  C   UNL     1      39.953   1.970  16.896  0.00  0.00    +0.000 A 
ATOM     14  C   UNL     1      39.580   3.278  16.586  0.00  0.00    +0.000 A 
ATOM     15  C   UNL     1      39.993   1.549  18.225  0.00  0.00    +0.000 A 
ATOM     16  C   UNL     1      39.245   4.165  17.604  0.00  0.00    +0.000 A 
ATOM     17  C   UNL     1      39.659   2.434  19.246  0.00  0.00    +0.000 A 
ATOM     18  C   UNL     1      39.288   3.736  18.927  0.00  0.00    +0.000 A 
BRANCH  18  19
ATOM     19  O   UNL     1      38.965   4.585  19.946  0.00  0.00    +0.000 OA
ATOM     20  H   UNL     1      38.306   5.221  19.616  0.00  0.00    +0.000 HD
ENDBRANCH  18  19
ENDBRANCH  12  13
ENDBRANCH   1  11
TORSDOF 5
ENDMDL
MODEL 7
REMARK VINA RESULT:      -6.4      1.358      7.644
REMARK  Name = Resveratrol.pdbqt.pdb
REMARK  5 active torsions:
REMARK  status: ('A' for Active; 'I' for Inactive)
REMARK    1  A    between atoms: C_1  and  C_11
REMARK    2  A    between atoms: C_4  and  O_7
REMARK    3  A    between atoms: C_5  and  O_9
REMARK    4  A    between atoms: C_12  and  C_13
REMARK    5  A    between atoms: C_18  and  O_19
REMARK                            x       y       z     vdW  Elec       q    Type
REMARK                         _______ _______ _______ _____ _____    ______ ____
ROOT
ATOM      1  C   UNL     1      35.909  12.462  22.576  0.00  0.00    +0.000 A 
ATOM      2  C   UNL     1      35.826  11.261  21.872  0.00  0.00    +0.000 A 
ATOM      3  C   UNL     1      35.788  12.471  23.965  0.00  0.00    +0.000 A 
ATOM      4  C   UNL     1      35.586  11.271  24.642  0.00  0.00    +0.000 A 
ATOM      5  C   UNL     1      35.623  10.073  22.568  0.00  0.00    +0.000 A 
ATOM      6  C   UNL     1      35.502  10.066  23.954  0.00  0.00    +0.000 A 
ENDROOT
BRANCH   4   7
ATOM      7  O   UNL     1      35.466  11.250  26.002  0.00  0.00    +0.000 OA
ATOM      8  H   UNL     1      35.977  11.995  26.364  0.00  0.00    +0.000 HD
ENDBRANCH   4   7
BRANCH   5   9
ATOM      9  O   UNL     1      35.546   8.910  21.858  0.00  0.00    +0.000 OA
ATOM     10  H   UNL     1      35.763   9.109  20.930  0.00  0.00    +0.000 HD
ENDBRANCH   5   9
BRANCH   1  11
ATOM     11  C   UNL     1      36.115  13.686  21.874  0.00  0.00    +0.000 C 
ATOM     12  C   UNL     1      36.290  14.717  21.283  0.00  0.00    +0.000 C 
BRANCH  12  13
ATOM     13  C   UNL     1      36.498  15.941  20.581  0.00  0.00    +0.000 A 
ATOM     14  C   UNL     1      35.429  16.814  20.376  0.00  0.00    +0.000 A 
ATOM     15  C   UNL     1      37.767  16.262  20.102  0.00  0.00    +0.000 A 
ATOM     16  C   UNL     1      35.629  18.009  19.691  0.00  0.00    +0.000 A 
ATOM     17  C   UNL     1      37.971  17.456  19.416  0.00  0.00    +0.000 A 
ATOM     18  C   UNL     1      36.900  18.321  19.216  0.00  0.00    +0.000 A 
BRANCH  18  19
ATOM     19  O   UNL     1      37.125  19.485  18.541  0.00  0.00    +0.000 OA
ATOM     20  H   UNL     1      36.373  20.081  18.702  0.00  0.00    +0.000 HD
ENDBRANCH  18  19
ENDBRANCH  12  13
ENDBRANCH   1  11
TORSDOF 5
ENDMDL
MODEL 8
REMARK VINA RESULT:      -6.3      1.388      7.861
REMARK  Name = Resveratrol.pdbqt.pdb
REMARK  5 active torsions:
REMARK  status: ('A' for Active; 'I' for Inactive)
REMARK    1  A    between atoms: C_1  and  C_11
REMARK    2  A    between atoms: C_4  and  O_7
REMARK    3  A    between atoms: C_5  and  O_9
REMARK    4  A    between atoms: C_12  and  C_13
REMARK    5  A    between atoms: C_18  and  O_19
REMARK                            x       y       z     vdW  Elec       q    Type
REMARK                         _______ _______ _______ _____ _____    ______ ____
ROOT
ATOM      1  C   UNL     1      35.163  11.799  21.587  0.00  0.00    +0.000 A 
ATOM      2  C   UNL     1      33.822  11.525  21.324  0.00  0.00    +0.000 A 
ATOM      3  C   UNL     1      35.957  10.857  22.242  0.00  0.00    +0.000 A 
ATOM      4  C   UNL     1      35.398   9.642  22.629  0.00  0.00    +0.000 A 
ATOM      5  C   UNL     1      33.283  10.305  21.720  0.00  0.00    +0.000 A 
ATOM      6  C   UNL     1      34.062   9.355  22.373  0.00  0.00    +0.000 A 
ENDROOT
BRANCH   4   7
ATOM      7  O   UNL     1      36.151   8.702  23.271  0.00  0.00    +0.000 OA
ATOM      8  H   UNL     1      36.345   7.986  22.640  0.00  0.00    +0.000 HD
ENDBRANCH   4   7
BRANCH   5   9
ATOM      9  O   UNL     1      31.967  10.058  21.451  0.00  0.00    +0.000 OA
ATOM     10  H   UNL     1      31.727  10.553  20.648  0.00  0.00    +0.000 HD
ENDBRANCH   5   9
BRANCH   1  11
ATOM     11  C   UNL     1      35.727  13.046  21.187  0.00  0.00    +0.000 C 
ATOM     12  C   UNL     1      36.202  14.097  20.850  0.00  0.00    +0.000 C 
BRANCH  12  13
ATOM     13  C   UNL     1      36.766  15.344  20.449  0.00  0.00    +0.000 A 
ATOM     14  C   UNL     1      37.939  15.367  19.696  0.00  0.00    +0.000 A 
ATOM     15  C   UNL     1      36.142  16.538  20.812  0.00  0.00    +0.000 A 
ATOM     16  C   UNL     1      38.491  16.583  19.304  0.00  0.00    +0.000 A 
ATOM     17  C   UNL     1      36.691  17.756  20.422  0.00  0.00    +0.000 A 
ATOM     18  C   UNL     1      37.862  17.769  19.671  0.00  0.00    +0.000 A 
BRANCH  18  19
ATOM     19  O   UNL     1      38.380  18.976  19.300  0.00  0.00    +0.000 OA
ATOM     20  H   UNL     1      37.861  19.313  18.549  0.00  0.00    +0.000 HD
ENDBRANCH  18  19
ENDBRANCH  12  13
ENDBRANCH   1  11
TORSDOF 5
ENDMDL
MODEL 9
REMARK VINA RESULT:      -5.8     19.696     21.879
REMARK  Name = Resveratrol.pdbqt.pdb
REMARK  5 active torsions:
REMARK  status: ('A' for Active; 'I' for Inactive)
REMARK    1  A    between atoms: C_1  and  C_11
REMARK    2  A    between atoms: C_4  and  O_7
REMARK    3  A    between atoms: C_5  and  O_9
REMARK    4  A    between atoms: C_12  and  C_13
REMARK    5  A    between atoms: C_18  and  O_19
REMARK                            x       y       z     vdW  Elec       q    Type
REMARK                         _______ _______ _______ _____ _____    ______ ____
ROOT
ATOM      1  C   UNL     1      42.121  -2.803  13.693  0.00  0.00    +0.000 A 
ATOM      2  C   UNL     1      42.677  -1.752  14.421  0.00  0.00    +0.000 A 
ATOM      3  C   UNL     1      40.892  -2.641  13.053  0.00  0.00    +0.000 A 
ATOM      4  C   UNL     1      40.227  -1.421  13.148  0.00  0.00    +0.000 A 
ATOM      5  C   UNL     1      41.996  -0.542  14.504  0.00  0.00    +0.000 A 
ATOM      6  C   UNL     1      40.770  -0.364  13.871  0.00  0.00    +0.000 A 
ENDROOT
BRANCH   4   7
ATOM      7  O   UNL     1      39.024  -1.234  12.532  0.00  0.00    +0.000 OA
ATOM      8  H   UNL     1      38.466  -2.012  12.712  0.00  0.00    +0.000 HD
ENDBRANCH   4   7
BRANCH   5   9
ATOM      9  O   UNL     1      42.560   0.473  15.222  0.00  0.00    +0.000 OA
ATOM     10  H   UNL     1      42.382   0.308  16.165  0.00  0.00    +0.000 HD
ENDBRANCH   5   9
BRANCH   1  11
ATOM     11  C   UNL     1      42.809  -4.049  13.601  0.00  0.00    +0.000 C 
ATOM     12  C   UNL     1      43.388  -5.099  13.523  0.00  0.00    +0.000 C 
BRANCH  12  13
ATOM     13  C   UNL     1      44.076  -6.344  13.431  0.00  0.00    +0.000 A 
ATOM     14  C   UNL     1      43.353  -7.536  13.388  0.00  0.00    +0.000 A 
ATOM     15  C   UNL     1      45.470  -6.367  13.384  0.00  0.00    +0.000 A 
ATOM     16  C   UNL     1      44.023  -8.753  13.297  0.00  0.00    +0.000 A 
ATOM     17  C   UNL     1      46.143  -7.582  13.293  0.00  0.00    +0.000 A 
ATOM     18  C   UNL     1      45.414  -8.766  13.251  0.00  0.00    +0.000 A 
BRANCH  18  19
ATOM     19  O   UNL     1      46.096  -9.945  13.163  0.00  0.00    +0.000 OA
ATOM     20  H   UNL     1      45.532 -10.651  13.524  0.00  0.00    +0.000 HD
ENDBRANCH  18  19
ENDBRANCH  12  13
ENDBRANCH   1  11
TORSDOF 5
ENDMDL
