MODEL 1
REMARK VINA RESULT:      -5.8      0.000      0.000
REMARK  Name = RetinoicAcid.pdbqt.pdb
REMARK  6 active torsions:
REMARK  status: ('A' for Active; 'I' for Inactive)
REMARK    1  A    between atoms: C_1  and  C_3
REMARK    2  A    between atoms: C_1  and  C_5
REMARK    3  A    between atoms: C_3  and  C_15
REMARK    4  A    between atoms: C_4  and  C_9
REMARK    5  A    between atoms: C_16  and  C_17
REMARK    6  A    between atoms: C_21  and  O_22
REMARK                            x       y       z     vdW  Elec       q    Type
REMARK                         _______ _______ _______ _____ _____    ______ ____
ROOT
ATOM      1  C   UNL     1      40.577  -1.315  18.537  0.00  0.00    +0.000 C 
ATOM      2  C   UNL     1      40.412  -2.601  19.288  0.00  0.00    +0.000 C 
ENDROOT
BRANCH   1   4
ATOM      3  C   UNL     1      41.007  -1.349  15.954  0.00  0.00    +0.000 C 
ATOM      4  C   UNL     1      40.804  -1.334  17.139  0.00  0.00    +0.000 C 
BRANCH   3   8
ATOM      5  C   UNL     1      40.185  -0.793  13.549  0.00  0.00    +0.000 C 
ATOM      6  C   UNL     1      40.701  -0.934  12.167  0.00  0.00    +0.000 C 
ATOM      7  C   UNL     1      41.901  -1.441  11.391  0.00  0.00    +0.000 C 
ATOM      8  C   UNL     1      41.258  -1.369  14.532  0.00  0.00    +0.000 C 
ATOM      9  C   UNL     1      42.630  -1.875  12.644  0.00  0.00    +0.000 C 
ATOM     10  C   UNL     1      42.420  -1.878  14.052  0.00  0.00    +0.000 C 
ATOM     11  C   UNL     1      38.869  -1.602  13.706  0.00  0.00    +0.000 C 
ATOM     12  C   UNL     1      39.963   0.710  13.879  0.00  0.00    +0.000 C 
ATOM     13  C   UNL     1      43.519  -2.443  14.909  0.00  0.00    +0.000 C 
ENDBRANCH   3   8
ENDBRANCH   1   4
BRANCH   1  14
ATOM     14  C   UNL     1      40.561  -0.187  19.176  0.00  0.00    +0.000 C 
BRANCH  14  15
ATOM     15  C   UNL     1      40.540   1.148  19.931  0.00  0.00    +0.000 C 
ATOM     16  C   UNL     1      40.524   2.193  20.521  0.00  0.00    +0.000 C 
BRANCH  16  17
ATOM     17  C   UNL     1      40.506   3.429  21.211  0.00  0.00    +0.000 C 
ATOM     18  C   UNL     1      41.026   3.505  22.614  0.00  0.00    +0.000 C 
ATOM     19  C   UNL     1      40.013   4.479  20.646  0.00  0.00    +0.000 C 
ATOM     20  O   UNL     1      40.113   6.317  19.229  0.00  0.00    +0.000 OA
ATOM     21  C   UNL     1      39.479   5.630  20.009  0.00  0.00    +0.000 C 
BRANCH  21  22
ATOM     22  O   UNL     1      38.199   5.886  20.324  0.00  0.00    +0.000 OA
ATOM     23  H   UNL     1      38.256   6.578  21.015  0.00  0.00    +0.000 HD
ENDBRANCH  21  22
ENDBRANCH  16  17
ENDBRANCH  14  15
ENDBRANCH   1  14
TORSDOF 6
ENDMDL
MODEL 2
REMARK VINA RESULT:      -5.7     12.251     13.307
REMARK  Name = RetinoicAcid.pdbqt.pdb
REMARK  6 active torsions:
REMARK  status: ('A' for Active; 'I' for Inactive)
REMARK    1  A    between atoms: C_1  and  C_3
REMARK    2  A    between atoms: C_1  and  C_5
REMARK    3  A    between atoms: C_3  and  C_15
REMARK    4  A    between atoms: C_4  and  C_9
REMARK    5  A    between atoms: C_16  and  C_17
REMARK    6  A    between atoms: C_21  and  O_22
REMARK                            x       y       z     vdW  Elec       q    Type
REMARK                         _______ _______ _______ _____ _____    ______ ____
ROOT
ATOM      1  C   UNL     1      52.152   1.484  10.972  0.00  0.00    +0.000 C 
ATOM      2  C   UNL     1      52.721   0.562  12.007  0.00  0.00    +0.000 C 
ENDROOT
BRANCH   1   4
ATOM      3  C   UNL     1      51.565   0.576   8.587  0.00  0.00    +0.000 C 
ATOM      4  C   UNL     1      51.840   0.994   9.681  0.00  0.00    +0.000 C 
BRANCH   3   8
ATOM      5  C   UNL     1      50.427   0.981   6.282  0.00  0.00    +0.000 C 
ATOM      6  C   UNL     1      50.227   0.225   5.024  0.00  0.00    +0.000 C 
ATOM      7  C   UNL     1      50.530  -1.113   4.380  0.00  0.00    +0.000 C 
ATOM      8  C   UNL     1      51.227   0.074   7.276  0.00  0.00    +0.000 C 
ATOM      9  C   UNL     1      51.258  -1.629   5.602  0.00  0.00    +0.000 C 
ATOM     10  C   UNL     1      51.606  -1.174   6.905  0.00  0.00    +0.000 C 
ATOM     11  C   UNL     1      49.052   1.331   6.912  0.00  0.00    +0.000 C 
ATOM     12  C   UNL     1      51.258   2.265   6.001  0.00  0.00    +0.000 C 
ATOM     13  C   UNL     1      52.387  -2.119   7.776  0.00  0.00    +0.000 C 
ENDBRANCH   3   8
ENDBRANCH   1   4
BRANCH   1  14
ATOM     14  C   UNL     1      51.992   2.741  11.245  0.00  0.00    +0.000 C 
BRANCH  14  15
ATOM     15  C   UNL     1      51.803   4.228  11.569  0.00  0.00    +0.000 C 
ATOM     16  C   UNL     1      51.658   5.393  11.822  0.00  0.00    +0.000 C 
BRANCH  16  17
ATOM     17  C   UNL     1      51.488   6.767  12.115  0.00  0.00    +0.000 C 
ATOM     18  C   UNL     1      51.459   7.768  11.001  0.00  0.00    +0.000 C 
ATOM     19  C   UNL     1      51.391   7.160  13.340  0.00  0.00    +0.000 C 
ATOM     20  O   UNL     1      50.229   7.533  15.317  0.00  0.00    +0.000 OA
ATOM     21  C   UNL     1      51.272   7.578  14.692  0.00  0.00    +0.000 C 
BRANCH  21  22
ATOM     22  O   UNL     1      52.423   8.011  15.234  0.00  0.00    +0.000 OA
ATOM     23  H   UNL     1      52.158   8.783  15.775  0.00  0.00    +0.000 HD
ENDBRANCH  21  22
ENDBRANCH  16  17
ENDBRANCH  14  15
ENDBRANCH   1  14
TORSDOF 6
ENDMDL
MODEL 3
REMARK VINA RESULT:      -5.2     20.515     23.762
REMARK  Name = RetinoicAcid.pdbqt.pdb
REMARK  6 active torsions:
REMARK  status: ('A' for Active; 'I' for Inactive)
REMARK    1  A    between atoms: C_1  and  C_3
REMARK    2  A    between atoms: C_1  and  C_5
REMARK    3  A    between atoms: C_3  and  C_15
REMARK    4  A    between atoms: C_4  and  C_9
REMARK    5  A    between atoms: C_16  and  C_17
REMARK    6  A    between atoms: C_21  and  O_22
REMARK                            x       y       z     vdW  Elec       q    Type
REMARK                         _______ _______ _______ _____ _____    ______ ____
ROOT
ATOM      1  C   UNL     1      40.326 -12.328   0.745  0.00  0.00    +0.000 C 
ATOM      2  C   UNL     1      40.331 -12.146   2.231  0.00  0.00    +0.000 C 
ENDROOT
BRANCH   1   4
ATOM      3  C   UNL     1      38.856 -14.199  -0.350  0.00  0.00    +0.000 C 
ATOM      4  C   UNL     1      39.533 -13.343   0.156  0.00  0.00    +0.000 C 
BRANCH   3   8
ATOM      5  C   UNL     1      38.158 -15.483  -2.503  0.00  0.00    +0.000 C 
ATOM      6  C   UNL     1      37.225 -16.577  -2.858  0.00  0.00    +0.000 C 
ATOM      7  C   UNL     1      36.207 -17.518  -2.244  0.00  0.00    +0.000 C 
ATOM      8  C   UNL     1      38.042 -15.221  -0.964  0.00  0.00    +0.000 C 
ATOM      9  C   UNL     1      36.405 -16.956  -0.854  0.00  0.00    +0.000 C 
ATOM     10  C   UNL     1      37.186 -15.955  -0.211  0.00  0.00    +0.000 C 
ATOM     11  C   UNL     1      37.768 -14.188  -3.267  0.00  0.00    +0.000 C 
ATOM     12  C   UNL     1      39.618 -15.907  -2.827  0.00  0.00    +0.000 C 
ATOM     13  C   UNL     1      37.007 -15.793   1.274  0.00  0.00    +0.000 C 
ENDBRANCH   3   8
ENDBRANCH   1   4
BRANCH   1  14
ATOM     14  C   UNL     1      41.084 -11.586   0.000  0.00  0.00    +0.000 C 
BRANCH  14  15
ATOM     15  C   UNL     1      41.982 -10.709  -0.883  0.00  0.00    +0.000 C 
ATOM     16  C   UNL     1      42.684 -10.025  -1.575  0.00  0.00    +0.000 C 
BRANCH  16  17
ATOM     17  C   UNL     1      43.509  -9.218  -2.396  0.00  0.00    +0.000 C 
ATOM     18  C   UNL     1      44.736  -8.581  -1.820  0.00  0.00    +0.000 C 
ATOM     19  C   UNL     1      43.187  -9.006  -3.627  0.00  0.00    +0.000 C 
ATOM     20  O   UNL     1      43.077  -9.582  -5.875  0.00  0.00    +0.000 OA
ATOM     21  C   UNL     1      42.829  -8.791  -4.985  0.00  0.00    +0.000 C 
BRANCH  21  22
ATOM     22  O   UNL     1      42.167  -7.642  -5.200  0.00  0.00    +0.000 OA
ATOM     23  H   UNL     1      41.292  -7.788  -4.784  0.00  0.00    +0.000 HD
ENDBRANCH  21  22
ENDBRANCH  16  17
ENDBRANCH  14  15
ENDBRANCH   1  14
TORSDOF 6
ENDMDL
MODEL 4
REMARK VINA RESULT:      -5.1     14.319     17.301
REMARK  Name = RetinoicAcid.pdbqt.pdb
REMARK  6 active torsions:
REMARK  status: ('A' for Active; 'I' for Inactive)
REMARK    1  A    between atoms: C_1  and  C_3
REMARK    2  A    between atoms: C_1  and  C_5
REMARK    3  A    between atoms: C_3  and  C_15
REMARK    4  A    between atoms: C_4  and  C_9
REMARK    5  A    between atoms: C_16  and  C_17
REMARK    6  A    between atoms: C_21  and  O_22
REMARK                            x       y       z     vdW  Elec       q    Type
REMARK                         _______ _______ _______ _____ _____    ______ ____
ROOT
ATOM      1  C   UNL     1      51.749   3.162   5.145  0.00  0.00    +0.000 C 
ATOM      2  C   UNL     1      52.173   3.561   3.765  0.00  0.00    +0.000 C 
ENDROOT
BRANCH   1   4
ATOM      3  C   UNL     1      51.693   4.944   7.064  0.00  0.00    +0.000 C 
ATOM      4  C   UNL     1      51.724   4.123   6.185  0.00  0.00    +0.000 C 
BRANCH   3   8
ATOM      5  C   UNL     1      51.486   7.443   7.756  0.00  0.00    +0.000 C 
ATOM      6  C   UNL     1      51.464   8.222   9.017  0.00  0.00    +0.000 C 
ATOM      7  C   UNL     1      51.547   8.051  10.521  0.00  0.00    +0.000 C 
ATOM      8  C   UNL     1      51.649   5.929   8.119  0.00  0.00    +0.000 C 
ATOM      9  C   UNL     1      51.688   6.548  10.425  0.00  0.00    +0.000 C 
ATOM     10  C   UNL     1      51.741   5.545   9.416  0.00  0.00    +0.000 C 
ATOM     11  C   UNL     1      52.691   7.886   6.883  0.00  0.00    +0.000 C 
ATOM     12  C   UNL     1      50.143   7.632   6.996  0.00  0.00    +0.000 C 
ATOM     13  C   UNL     1      51.886   4.119   9.872  0.00  0.00    +0.000 C 
ENDBRANCH   3   8
ENDBRANCH   1   4
BRANCH   1  14
ATOM     14  C   UNL     1      51.452   1.926   5.399  0.00  0.00    +0.000 C 
BRANCH  14  15
ATOM     15  C   UNL     1      51.098   0.464   5.700  0.00  0.00    +0.000 C 
ATOM     16  C   UNL     1      50.819  -0.679   5.935  0.00  0.00    +0.000 C 
BRANCH  16  17
ATOM     17  C   UNL     1      50.487  -2.028   6.209  0.00  0.00    +0.000 C 
ATOM     18  C   UNL     1      49.995  -2.412   7.570  0.00  0.00    +0.000 C 
ATOM     19  C   UNL     1      50.640  -2.929   5.297  0.00  0.00    +0.000 C 
ATOM     20  O   UNL     1      49.977  -4.105   3.407  0.00  0.00    +0.000 OA
ATOM     21  C   UNL     1      50.799  -3.910   4.283  0.00  0.00    +0.000 C 
BRANCH  21  22
ATOM     22  O   UNL     1      51.954  -4.592   4.358  0.00  0.00    +0.000 OA
ATOM     23  H   UNL     1      52.429  -4.176   5.107  0.00  0.00    +0.000 HD
ENDBRANCH  21  22
ENDBRANCH  16  17
ENDBRANCH  14  15
ENDBRANCH   1  14
TORSDOF 6
ENDMDL
MODEL 5
REMARK VINA RESULT:      -5.0     19.874     23.198
REMARK  Name = RetinoicAcid.pdbqt.pdb
REMARK  6 active torsions:
REMARK  status: ('A' for Active; 'I' for Inactive)
REMARK    1  A    between atoms: C_1  and  C_3
REMARK    2  A    between atoms: C_1  and  C_5
REMARK    3  A    between atoms: C_3  and  C_15
REMARK    4  A    between atoms: C_4  and  C_9
REMARK    5  A    between atoms: C_16  and  C_17
REMARK    6  A    between atoms: C_21  and  O_22
REMARK                            x       y       z     vdW  Elec       q    Type
REMARK                         _______ _______ _______ _____ _____    ______ ____
ROOT
ATOM      1  C   UNL     1      40.181 -11.639   0.445  0.00  0.00    +0.000 C 
ATOM      2  C   UNL     1      39.899 -11.098   1.813  0.00  0.00    +0.000 C 
ENDROOT
BRANCH   1   4
ATOM      3  C   UNL     1      38.929 -13.780  -0.398  0.00  0.00    +0.000 C 
ATOM      4  C   UNL     1      39.502 -12.794  -0.015  0.00  0.00    +0.000 C 
BRANCH   3   8
ATOM      5  C   UNL     1      37.990 -16.143   0.150  0.00  0.00    +0.000 C 
ATOM      6  C   UNL     1      37.267 -17.217  -0.571  0.00  0.00    +0.000 C 
ATOM      7  C   UNL     1      36.696 -17.559  -1.933  0.00  0.00    +0.000 C 
ATOM      8  C   UNL     1      38.241 -14.966  -0.850  0.00  0.00    +0.000 C 
ATOM      9  C   UNL     1      37.132 -16.242  -2.537  0.00  0.00    +0.000 C 
ATOM     10  C   UNL     1      37.810 -15.057  -2.132  0.00  0.00    +0.000 C 
ATOM     11  C   UNL     1      39.357 -16.676   0.658  0.00  0.00    +0.000 C 
ATOM     12  C   UNL     1      37.119 -15.619   1.328  0.00  0.00    +0.000 C 
ATOM     13  C   UNL     1      37.988 -13.981  -3.168  0.00  0.00    +0.000 C 
ENDBRANCH   3   8
ENDBRANCH   1   4
BRANCH   1  14
ATOM     14  C   UNL     1      41.084 -11.080  -0.298  0.00  0.00    +0.000 C 
BRANCH  14  15
ATOM     15  C   UNL     1      42.153 -10.417  -1.176  0.00  0.00    +0.000 C 
ATOM     16  C   UNL     1      42.988  -9.897  -1.864  0.00  0.00    +0.000 C 
BRANCH  16  17
ATOM     17  C   UNL     1      43.970  -9.280  -2.676  0.00  0.00    +0.000 C 
ATOM     18  C   UNL     1      43.841  -9.331  -4.168  0.00  0.00    +0.000 C 
ATOM     19  C   UNL     1      44.989  -8.704  -2.134  0.00  0.00    +0.000 C 
ATOM     20  O   UNL     1      46.057  -6.930  -1.082  0.00  0.00    +0.000 OA
ATOM     21  C   UNL     1      46.100  -8.063  -1.525  0.00  0.00    +0.000 C 
BRANCH  21  22
ATOM     22  O   UNL     1      47.203  -8.826  -1.457  0.00  0.00    +0.000 OA
ATOM     23  H   UNL     1      46.919  -9.612  -0.944  0.00  0.00    +0.000 HD
ENDBRANCH  21  22
ENDBRANCH  16  17
ENDBRANCH  14  15
ENDBRANCH   1  14
TORSDOF 6
ENDMDL
MODEL 6
REMARK VINA RESULT:      -5.0      8.895     11.873
REMARK  Name = RetinoicAcid.pdbqt.pdb
REMARK  6 active torsions:
REMARK  status: ('A' for Active; 'I' for Inactive)
REMARK    1  A    between atoms: C_1  and  C_3
REMARK    2  A    between atoms: C_1  and  C_5
REMARK    3  A    between atoms: C_3  and  C_15
REMARK    4  A    between atoms: C_4  and  C_9
REMARK    5  A    between atoms: C_16  and  C_17
REMARK    6  A    between atoms: C_21  and  O_22
REMARK                            x       y       z     vdW  Elec       q    Type
REMARK                         _______ _______ _______ _____ _____    ______ ____
ROOT
ATOM      1  C   UNL     1      46.440  -9.124  13.620  0.00  0.00    +0.000 C 
ATOM      2  C   UNL     1      46.761  -9.945  14.831  0.00  0.00    +0.000 C 
ENDROOT
BRANCH   1   4
ATOM      3  C   UNL     1      46.991 -10.029  11.225  0.00  0.00    +0.000 C 
ATOM      4  C   UNL     1      46.741  -9.618  12.327  0.00  0.00    +0.000 C 
BRANCH   3   8
ATOM      5  C   UNL     1      48.737 -10.360   9.324  0.00  0.00    +0.000 C 
ATOM      6  C   UNL     1      48.762 -10.947   7.964  0.00  0.00    +0.000 C 
ATOM      7  C   UNL     1      47.870 -11.639   6.951  0.00  0.00    +0.000 C 
ATOM      8  C   UNL     1      47.289 -10.517   9.899  0.00  0.00    +0.000 C 
ATOM      9  C   UNL     1      46.660 -11.584   7.857  0.00  0.00    +0.000 C 
ATOM     10  C   UNL     1      46.323 -11.113   9.158  0.00  0.00    +0.000 C 
ATOM     11  C   UNL     1      49.093  -8.850   9.254  0.00  0.00    +0.000 C 
ATOM     12  C   UNL     1      49.725 -11.128  10.248  0.00  0.00    +0.000 C 
ATOM     13  C   UNL     1      44.907 -11.325   9.619  0.00  0.00    +0.000 C 
ENDBRANCH   3   8
ENDBRANCH   1   4
BRANCH   1  14
ATOM     14  C   UNL     1      45.931  -7.940  13.758  0.00  0.00    +0.000 C 
BRANCH  14  15
ATOM     15  C   UNL     1      45.328  -6.538  13.918  0.00  0.00    +0.000 C 
ATOM     16  C   UNL     1      44.859  -5.441  14.045  0.00  0.00    +0.000 C 
BRANCH  16  17
ATOM     17  C   UNL     1      44.309  -4.145  14.191  0.00  0.00    +0.000 C 
ATOM     18  C   UNL     1      45.045  -3.108  14.983  0.00  0.00    +0.000 C 
ATOM     19  C   UNL     1      43.161  -3.867  13.670  0.00  0.00    +0.000 C 
ATOM     20  O   UNL     1      41.768  -3.264  11.912  0.00  0.00    +0.000 OA
ATOM     21  C   UNL     1      41.903  -3.569  13.082  0.00  0.00    +0.000 C 
BRANCH  21  22
ATOM     22  O   UNL     1      40.865  -3.674  13.928  0.00  0.00    +0.000 OA
ATOM     23  H   UNL     1      41.135  -4.381  14.551  0.00  0.00    +0.000 HD
ENDBRANCH  21  22
ENDBRANCH  16  17
ENDBRANCH  14  15
ENDBRANCH   1  14
TORSDOF 6
ENDMDL
MODEL 7
REMARK VINA RESULT:      -5.0     19.899     22.075
REMARK  Name = RetinoicAcid.pdbqt.pdb
REMARK  6 active torsions:
REMARK  status: ('A' for Active; 'I' for Inactive)
REMARK    1  A    between atoms: C_1  and  C_3
REMARK    2  A    between atoms: C_1  and  C_5
REMARK    3  A    between atoms: C_3  and  C_15
REMARK    4  A    between atoms: C_4  and  C_9
REMARK    5  A    between atoms: C_16  and  C_17
REMARK    6  A    between atoms: C_21  and  O_22
REMARK                            x       y       z     vdW  Elec       q    Type
REMARK                         _______ _______ _______ _____ _____    ______ ____
ROOT
ATOM      1  C   UNL     1      52.168  17.249  15.662  0.00  0.00    +0.000 C 
ATOM      2  C   UNL     1      53.455  16.511  15.865  0.00  0.00    +0.000 C 
ENDROOT
BRANCH   1   4
ATOM      3  C   UNL     1      50.876  18.228  17.720  0.00  0.00    +0.000 C 
ATOM      4  C   UNL     1      51.473  17.783  16.775  0.00  0.00    +0.000 C 
BRANCH   3   8
ATOM      5  C   UNL     1      49.108  19.898  18.644  0.00  0.00    +0.000 C 
ATOM      6  C   UNL     1      48.522  20.238  19.961  0.00  0.00    +0.000 C 
ATOM      7  C   UNL     1      48.594  19.861  21.428  0.00  0.00    +0.000 C 
ATOM      8  C   UNL     1      50.157  18.755  18.855  0.00  0.00    +0.000 C 
ATOM      9  C   UNL     1      49.650  18.804  21.189  0.00  0.00    +0.000 C 
ATOM     10  C   UNL     1      50.384  18.260  20.097  0.00  0.00    +0.000 C 
ATOM     11  C   UNL     1      49.826  21.139  18.048  0.00  0.00    +0.000 C 
ATOM     12  C   UNL     1      47.995  19.381  17.689  0.00  0.00    +0.000 C 
ATOM     13  C   UNL     1      51.358  17.157  20.407  0.00  0.00    +0.000 C 
ENDBRANCH   3   8
ENDBRANCH   1   4
BRANCH   1  14
ATOM     14  C   UNL     1      51.664  17.356  14.472  0.00  0.00    +0.000 C 
BRANCH  14  15
ATOM     15  C   UNL     1      51.070  17.486  13.064  0.00  0.00    +0.000 C 
ATOM     16  C   UNL     1      50.607  17.587  11.961  0.00  0.00    +0.000 C 
BRANCH  16  17
ATOM     17  C   UNL     1      50.063  17.702  10.660  0.00  0.00    +0.000 C 
ATOM     18  C   UNL     1      48.762  17.035  10.335  0.00  0.00    +0.000 C 
ATOM     19  C   UNL     1      50.702  18.352   9.746  0.00  0.00    +0.000 C 
ATOM     20  O   UNL     1      51.360  20.293   8.652  0.00  0.00    +0.000 OA
ATOM     21  C   UNL     1      51.409  19.081   8.753  0.00  0.00    +0.000 C 
BRANCH  21  22
ATOM     22  O   UNL     1      52.160  18.316   7.944  0.00  0.00    +0.000 OA
ATOM     23  H   UNL     1      51.536  18.019   7.249  0.00  0.00    +0.000 HD
ENDBRANCH  21  22
ENDBRANCH  16  17
ENDBRANCH  14  15
ENDBRANCH   1  14
TORSDOF 6
ENDMDL
MODEL 8
REMARK VINA RESULT:      -4.9     13.876     16.847
REMARK  Name = RetinoicAcid.pdbqt.pdb
REMARK  6 active torsions:
REMARK  status: ('A' for Active; 'I' for Inactive)
REMARK    1  A    between atoms: C_1  and  C_3
REMARK    2  A    between atoms: C_1  and  C_5
REMARK    3  A    between atoms: C_3  and  C_15
REMARK    4  A    between atoms: C_4  and  C_9
REMARK    5  A    between atoms: C_16  and  C_17
REMARK    6  A    between atoms: C_21  and  O_22
REMARK                            x       y       z     vdW  Elec       q    Type
REMARK                         _______ _______ _______ _____ _____    ______ ____
ROOT
ATOM      1  C   UNL     1      51.458   7.341   9.384  0.00  0.00    +0.000 C 
ATOM      2  C   UNL     1      51.164   8.517  10.263  0.00  0.00    +0.000 C 
ENDROOT
BRANCH   1   4
ATOM      3  C   UNL     1      51.314   4.908  10.344  0.00  0.00    +0.000 C 
ATOM      4  C   UNL     1      51.383   6.027   9.908  0.00  0.00    +0.000 C 
BRANCH   3   8
ATOM      5  C   UNL     1      50.577   2.438   9.989  0.00  0.00    +0.000 C 
ATOM      6  C   UNL     1      50.630   1.170  10.753  0.00  0.00    +0.000 C 
ATOM      7  C   UNL     1      51.096   0.598  12.078  0.00  0.00    +0.000 C 
ATOM      8  C   UNL     1      51.230   3.563  10.861  0.00  0.00    +0.000 C 
ATOM      9  C   UNL     1      51.623   1.932  12.561  0.00  0.00    +0.000 C 
ATOM     10  C   UNL     1      51.721   3.272  12.091  0.00  0.00    +0.000 C 
ATOM     11  C   UNL     1      49.100   2.818   9.698  0.00  0.00    +0.000 C 
ATOM     12  C   UNL     1      51.390   2.295   8.671  0.00  0.00    +0.000 C 
ATOM     13  C   UNL     1      52.378   4.273  13.002  0.00  0.00    +0.000 C 
ENDBRANCH   3   8
ENDBRANCH   1   4
BRANCH   1  14
ATOM     14  C   UNL     1      51.829   7.527   8.156  0.00  0.00    +0.000 C 
BRANCH  14  15
ATOM     15  C   UNL     1      52.269   7.746   6.703  0.00  0.00    +0.000 C 
ATOM     16  C   UNL     1      52.612   7.919   5.566  0.00  0.00    +0.000 C 
BRANCH  16  17
ATOM     17  C   UNL     1      53.019   8.128   4.226  0.00  0.00    +0.000 C 
ATOM     18  C   UNL     1      52.574   9.358   3.496  0.00  0.00    +0.000 C 
ATOM     19  C   UNL     1      53.745   7.246   3.626  0.00  0.00    +0.000 C 
ATOM     20  O   UNL     1      55.763   6.213   3.116  0.00  0.00    +0.000 OA
ATOM     21  C   UNL     1      54.554   6.274   2.980  0.00  0.00    +0.000 C 
BRANCH  21  22
ATOM     22  O   UNL     1      53.866   5.407   2.220  0.00  0.00    +0.000 OA
ATOM     23  H   UNL     1      54.229   4.531   2.467  0.00  0.00    +0.000 HD
ENDBRANCH  21  22
ENDBRANCH  16  17
ENDBRANCH  14  15
ENDBRANCH   1  14
TORSDOF 6
ENDMDL
MODEL 9
REMARK VINA RESULT:      -4.9     20.064     23.376
REMARK  Name = RetinoicAcid.pdbqt.pdb
REMARK  6 active torsions:
REMARK  status: ('A' for Active; 'I' for Inactive)
REMARK    1  A    between atoms: C_1  and  C_3
REMARK    2  A    between atoms: C_1  and  C_5
REMARK    3  A    between atoms: C_3  and  C_15
REMARK    4  A    between atoms: C_4  and  C_9
REMARK    5  A    between atoms: C_16  and  C_17
REMARK    6  A    between atoms: C_21  and  O_22
REMARK                            x       y       z     vdW  Elec       q    Type
REMARK                         _______ _______ _______ _____ _____    ______ ____
ROOT
ATOM      1  C   UNL     1      40.189 -12.018   0.501  0.00  0.00    +0.000 C 
ATOM      2  C   UNL     1      40.040 -11.663   1.948  0.00  0.00    +0.000 C 
ENDROOT
BRANCH   1   4
ATOM      3  C   UNL     1      38.839 -14.028  -0.496  0.00  0.00    +0.000 C 
ATOM      4  C   UNL     1      39.459 -13.102  -0.044  0.00  0.00    +0.000 C 
BRANCH   3   8
ATOM      5  C   UNL     1      38.207 -15.488  -2.555  0.00  0.00    +0.000 C 
ATOM      6  C   UNL     1      37.351 -16.667  -2.827  0.00  0.00    +0.000 C 
ATOM      7  C   UNL     1      36.412 -17.639  -2.140  0.00  0.00    +0.000 C 
ATOM      8  C   UNL     1      38.093 -15.142  -1.032  0.00  0.00    +0.000 C 
ATOM      9  C   UNL     1      36.587 -16.980  -0.789  0.00  0.00    +0.000 C 
ATOM     10  C   UNL     1      37.303 -15.888  -0.221  0.00  0.00    +0.000 C 
ATOM     11  C   UNL     1      37.714 -14.274  -3.388  0.00  0.00    +0.000 C 
ATOM     12  C   UNL     1      39.690 -15.826  -2.879  0.00  0.00    +0.000 C 
ATOM     13  C   UNL     1      37.133 -15.649   1.254  0.00  0.00    +0.000 C 
ENDBRANCH   3   8
ENDBRANCH   1   4
BRANCH   1  14
ATOM     14  C   UNL     1      41.025 -11.362  -0.242  0.00  0.00    +0.000 C 
BRANCH  14  15
ATOM     15  C   UNL     1      42.011 -10.583  -1.122  0.00  0.00    +0.000 C 
ATOM     16  C   UNL     1      42.782  -9.975  -1.812  0.00  0.00    +0.000 C 
BRANCH  16  17
ATOM     17  C   UNL     1      43.687  -9.253  -2.627  0.00  0.00    +0.000 C 
ATOM     18  C   UNL     1      43.427  -9.127  -4.097  0.00  0.00    +0.000 C 
ATOM     19  C   UNL     1      44.750  -8.734  -2.111  0.00  0.00    +0.000 C 
ATOM     20  O   UNL     1      45.905  -7.086  -0.951  0.00  0.00    +0.000 OA
ATOM     21  C   UNL     1      45.910  -8.157  -1.529  0.00  0.00    +0.000 C 
BRANCH  21  22
ATOM     22  O   UNL     1      47.016  -8.910  -1.651  0.00  0.00    +0.000 OA
ATOM     23  H   UNL     1      47.227  -8.872  -2.607  0.00  0.00    +0.000 HD
ENDBRANCH  21  22
ENDBRANCH  16  17
ENDBRANCH  14  15
ENDBRANCH   1  14
TORSDOF 6
ENDMDL
