MODEL 1
REMARK VINA RESULT:      -7.6      0.000      0.000
REMARK  Name = SB_202190.pdbqt.pdb
REMARK  4 active torsions:
REMARK  status: ('A' for Active; 'I' for Inactive)
REMARK    1  A    between atoms: C_4  and  C_7
REMARK    2  A    between atoms: C_5  and  C_19
REMARK    3  A    between atoms: C_6  and  C_8
REMARK    4  A    between atoms: C_15  and  O_26
REMARK                            x       y       z     vdW  Elec       q    Type
REMARK                         _______ _______ _______ _____ _____    ______ ____
ROOT
ATOM      1  N   UNL     1      34.654  15.312  20.594  0.00  0.00    +0.000 N 
ATOM      2  N   UNL     1      36.438  14.373  21.470  0.00  0.00    +0.000 NA
ATOM      3  C   UNL     1      34.179  14.194  21.250  0.00  0.00    +0.000 A 
ATOM      4  C   UNL     1      35.328  13.610  21.764  0.00  0.00    +0.000 A 
ATOM      5  C   UNL     1      36.015  15.397  20.760  0.00  0.00    +0.000 A 
ATOM      6  H   UNL     1      34.089  15.988  20.100  0.00  0.00    +0.000 HD
ENDROOT
BRANCH   4   7
ATOM      7  C   UNL     1      35.446  12.370  22.502  0.00  0.00    +0.000 A 
ATOM      8  C   UNL     1      35.527  11.139  21.848  0.00  0.00    +0.000 A 
ATOM      9  C   UNL     1      35.687   9.960  22.572  0.00  0.00    +0.000 A 
ATOM     10  C   UNL     1      35.782  10.022  23.957  0.00  0.00    +0.000 A 
ATOM     11  F   UNL     1      35.930   8.890  24.658  0.00  0.00    +0.000 F 
ATOM     12  C   UNL     1      35.722  11.238  24.627  0.00  0.00    +0.000 A 
ATOM     13  C   UNL     1      35.561  12.412  23.894  0.00  0.00    +0.000 A 
ENDBRANCH   4   7
BRANCH   3  15
ATOM     14  N   UNL     1      30.019  13.262  21.402  0.00  0.00    +0.000 NA
ATOM     15  C   UNL     1      32.755  13.880  21.321  0.00  0.00    +0.000 A 
ATOM     16  C   UNL     1      31.796  14.883  21.195  0.00  0.00    +0.000 A 
ATOM     17  C   UNL     1      32.329  12.561  21.476  0.00  0.00    +0.000 A 
ATOM     18  C   UNL     1      30.458  14.529  21.245  0.00  0.00    +0.000 A 
ATOM     19  C   UNL     1      30.967  12.309  21.516  0.00  0.00    +0.000 A 
ENDBRANCH   3  15
BRANCH   5  20
ATOM     20  C   UNL     1      36.840  16.472  20.219  0.00  0.00    +0.000 A 
ATOM     21  C   UNL     1      36.343  17.778  20.188  0.00  0.00    +0.000 A 
ATOM     22  C   UNL     1      38.125  16.226  19.728  0.00  0.00    +0.000 A 
ATOM     23  C   UNL     1      37.112  18.821  19.677  0.00  0.00    +0.000 A 
ATOM     24  C   UNL     1      38.902  17.261  19.215  0.00  0.00    +0.000 A 
ATOM     25  C   UNL     1      38.389  18.552  19.194  0.00  0.00    +0.000 A 
BRANCH  25  26
ATOM     26  O   UNL     1      39.167  19.551  18.687  0.00  0.00    +0.000 OA
ATOM     27  H   UNL     1      39.204  20.270  19.342  0.00  0.00    +0.000 HD
ENDBRANCH  25  26
ENDBRANCH   5  20
TORSDOF 4
ENDMDL
MODEL 2
REMARK VINA RESULT:      -7.6      4.015      6.914
REMARK  Name = SB_202190.pdbqt.pdb
REMARK  4 active torsions:
REMARK  status: ('A' for Active; 'I' for Inactive)
REMARK    1  A    between atoms: C_4  and  C_7
REMARK    2  A    between atoms: C_5  and  C_19
REMARK    3  A    between atoms: C_6  and  C_8
REMARK    4  A    between atoms: C_15  and  O_26
REMARK                            x       y       z     vdW  Elec       q    Type
REMARK                         _______ _______ _______ _____ _____    ______ ____
ROOT
ATOM      1  N   UNL     1      34.304  14.394  21.495  0.00  0.00    +0.000 N 
ATOM      2  N   UNL     1      36.493  14.495  21.317  0.00  0.00    +0.000 NA
ATOM      3  C   UNL     1      34.550  15.565  20.806  0.00  0.00    +0.000 A 
ATOM      4  C   UNL     1      35.935  15.614  20.738  0.00  0.00    +0.000 A 
ATOM      5  C   UNL     1      35.495  13.767  21.773  0.00  0.00    +0.000 A 
ATOM      6  H   UNL     1      33.391  14.029  21.727  0.00  0.00    +0.000 HD
ENDROOT
BRANCH   4   7
ATOM      7  C   UNL     1      36.765  16.657  20.173  0.00  0.00    +0.000 A 
ATOM      8  C   UNL     1      36.325  17.981  20.109  0.00  0.00    +0.000 A 
ATOM      9  C   UNL     1      37.155  18.980  19.605  0.00  0.00    +0.000 A 
ATOM     10  C   UNL     1      38.435  18.648  19.179  0.00  0.00    +0.000 A 
ATOM     11  F   UNL     1      39.235  19.605  18.689  0.00  0.00    +0.000 F 
ATOM     12  C   UNL     1      38.899  17.339  19.251  0.00  0.00    +0.000 A 
ATOM     13  C   UNL     1      38.062  16.348  19.756  0.00  0.00    +0.000 A 
ENDBRANCH   4   7
BRANCH   3  15
ATOM     14  N   UNL     1      31.363  18.005  19.358  0.00  0.00    +0.000 NA
ATOM     15  C   UNL     1      33.472  16.412  20.303  0.00  0.00    +0.000 A 
ATOM     16  C   UNL     1      32.996  16.262  19.002  0.00  0.00    +0.000 A 
ATOM     17  C   UNL     1      32.873  17.361  21.131  0.00  0.00    +0.000 A 
ATOM     18  C   UNL     1      31.956  17.074  18.581  0.00  0.00    +0.000 A 
ATOM     19  C   UNL     1      31.840  18.127  20.615  0.00  0.00    +0.000 A 
ENDBRANCH   3  15
BRANCH   5  20
ATOM     20  C   UNL     1      35.604  12.490  22.469  0.00  0.00    +0.000 A 
ATOM     21  C   UNL     1      35.792  12.469  23.853  0.00  0.00    +0.000 A 
ATOM     22  C   UNL     1      35.525  11.277  21.778  0.00  0.00    +0.000 A 
ATOM     23  C   UNL     1      35.899  11.261  24.540  0.00  0.00    +0.000 A 
ATOM     24  C   UNL     1      35.631  10.064  22.455  0.00  0.00    +0.000 A 
ATOM     25  C   UNL     1      35.817  10.067  23.832  0.00  0.00    +0.000 A 
BRANCH  25  26
ATOM     26  O   UNL     1      35.918   8.868  24.475  0.00  0.00    +0.000 OA
ATOM     27  H   UNL     1      35.026   8.485  24.548  0.00  0.00    +0.000 HD
ENDBRANCH  25  26
ENDBRANCH   5  20
TORSDOF 4
ENDMDL
MODEL 3
REMARK VINA RESULT:      -6.7     20.067     22.223
REMARK  Name = SB_202190.pdbqt.pdb
REMARK  4 active torsions:
REMARK  status: ('A' for Active; 'I' for Inactive)
REMARK    1  A    between atoms: C_4  and  C_7
REMARK    2  A    between atoms: C_5  and  C_19
REMARK    3  A    between atoms: C_6  and  C_8
REMARK    4  A    between atoms: C_15  and  O_26
REMARK                            x       y       z     vdW  Elec       q    Type
REMARK                         _______ _______ _______ _____ _____    ______ ____
ROOT
ATOM      1  N   UNL     1      52.061   5.696   8.543  0.00  0.00    +0.000 N 
ATOM      2  N   UNL     1      52.453   7.625   9.523  0.00  0.00    +0.000 NA
ATOM      3  C   UNL     1      51.745   5.490   9.871  0.00  0.00    +0.000 A 
ATOM      4  C   UNL     1      52.031   6.712  10.464  0.00  0.00    +0.000 A 
ATOM      5  C   UNL     1      52.469   6.996   8.366  0.00  0.00    +0.000 A 
ATOM      6  H   UNL     1      51.972   5.014   7.804  0.00  0.00    +0.000 HD
ENDROOT
BRANCH   4   7
ATOM      7  C   UNL     1      51.944   7.066  11.865  0.00  0.00    +0.000 A 
ATOM      8  C   UNL     1      52.996   7.712  12.518  0.00  0.00    +0.000 A 
ATOM      9  C   UNL     1      52.878   8.087  13.854  0.00  0.00    +0.000 A 
ATOM     10  C   UNL     1      51.692   7.826  14.529  0.00  0.00    +0.000 A 
ATOM     11  F   UNL     1      51.576   8.181  15.816  0.00  0.00    +0.000 F 
ATOM     12  C   UNL     1      50.626   7.201  13.894  0.00  0.00    +0.000 A 
ATOM     13  C   UNL     1      50.754   6.829  12.557  0.00  0.00    +0.000 A 
ENDBRANCH   4   7
BRANCH   3  15
ATOM     14  N   UNL     1      50.135   1.816  11.323  0.00  0.00    +0.000 NA
ATOM     15  C   UNL     1      51.203   4.223  10.354  0.00  0.00    +0.000 A 
ATOM     16  C   UNL     1      51.959   3.391  11.177  0.00  0.00    +0.000 A 
ATOM     17  C   UNL     1      49.900   3.842  10.031  0.00  0.00    +0.000 A 
ATOM     18  C   UNL     1      51.389   2.212  11.627  0.00  0.00    +0.000 A 
ATOM     19  C   UNL     1      49.422   2.641  10.530  0.00  0.00    +0.000 A 
ENDBRANCH   3  15
BRANCH   5  20
ATOM     20  C   UNL     1      52.855   7.565   7.079  0.00  0.00    +0.000 A 
ATOM     21  C   UNL     1      51.872   7.882   6.138  0.00  0.00    +0.000 A 
ATOM     22  C   UNL     1      54.196   7.803   6.763  0.00  0.00    +0.000 A 
ATOM     23  C   UNL     1      52.216   8.426   4.903  0.00  0.00    +0.000 A 
ATOM     24  C   UNL     1      54.551   8.346   5.530  0.00  0.00    +0.000 A 
ATOM     25  C   UNL     1      53.557   8.654   4.610  0.00  0.00    +0.000 A 
BRANCH  25  26
ATOM     26  O   UNL     1      53.926   9.186   3.409  0.00  0.00    +0.000 OA
ATOM     27  H   UNL     1      54.897   9.256   3.393  0.00  0.00    +0.000 HD
ENDBRANCH  25  26
ENDBRANCH   5  20
TORSDOF 4
ENDMDL
MODEL 4
REMARK VINA RESULT:      -6.6      4.073      6.983
REMARK  Name = SB_202190.pdbqt.pdb
REMARK  4 active torsions:
REMARK  status: ('A' for Active; 'I' for Inactive)
REMARK    1  A    between atoms: C_4  and  C_7
REMARK    2  A    between atoms: C_5  and  C_19
REMARK    3  A    between atoms: C_6  and  C_8
REMARK    4  A    between atoms: C_15  and  O_26
REMARK                            x       y       z     vdW  Elec       q    Type
REMARK                         _______ _______ _______ _____ _____    ______ ____
ROOT
ATOM      1  N   UNL     1      34.342  14.815  21.877  0.00  0.00    +0.000 N 
ATOM      2  N   UNL     1      36.469  14.647  21.349  0.00  0.00    +0.000 NA
ATOM      3  C   UNL     1      34.633  15.984  21.203  0.00  0.00    +0.000 A 
ATOM      4  C   UNL     1      35.985  15.860  20.912  0.00  0.00    +0.000 A 
ATOM      5  C   UNL     1      35.466  14.026  21.933  0.00  0.00    +0.000 A 
ATOM      6  H   UNL     1      33.436  14.555  22.240  0.00  0.00    +0.000 HD
ENDROOT
BRANCH   4   7
ATOM      7  C   UNL     1      36.850  16.821  20.260  0.00  0.00    +0.000 A 
ATOM      8  C   UNL     1      38.218  16.584  20.112  0.00  0.00    +0.000 A 
ATOM      9  C   UNL     1      39.027  17.499  19.442  0.00  0.00    +0.000 A 
ATOM     10  C   UNL     1      38.454  18.646  18.905  0.00  0.00    +0.000 A 
ATOM     11  F   UNL     1      39.230  19.530  18.264  0.00  0.00    +0.000 F 
ATOM     12  C   UNL     1      37.092  18.892  19.026  0.00  0.00    +0.000 A 
ATOM     13  C   UNL     1      36.291  17.972  19.698  0.00  0.00    +0.000 A 
ENDBRANCH   4   7
BRANCH   3  15
ATOM     14  N   UNL     1      31.698  18.958  20.343  0.00  0.00    +0.000 NA
ATOM     15  C   UNL     1      33.615  16.990  20.914  0.00  0.00    +0.000 A 
ATOM     16  C   UNL     1      33.093  17.788  21.929  0.00  0.00    +0.000 A 
ATOM     17  C   UNL     1      33.175  17.195  19.606  0.00  0.00    +0.000 A 
ATOM     18  C   UNL     1      32.147  18.744  21.598  0.00  0.00    +0.000 A 
ATOM     19  C   UNL     1      32.223  18.175  19.378  0.00  0.00    +0.000 A 
ENDBRANCH   3  15
BRANCH   5  20
ATOM     20  C   UNL     1      35.509  12.706  22.552  0.00  0.00    +0.000 A 
ATOM     21  C   UNL     1      35.330  12.582  23.933  0.00  0.00    +0.000 A 
ATOM     22  C   UNL     1      35.726  11.553  21.792  0.00  0.00    +0.000 A 
ATOM     23  C   UNL     1      35.367  11.332  24.546  0.00  0.00    +0.000 A 
ATOM     24  C   UNL     1      35.765  10.299  22.396  0.00  0.00    +0.000 A 
ATOM     25  C   UNL     1      35.584  10.198  23.769  0.00  0.00    +0.000 A 
BRANCH  25  26
ATOM     26  O   UNL     1      35.626   8.960  24.340  0.00  0.00    +0.000 OA
ATOM     27  H   UNL     1      34.815   8.482  24.090  0.00  0.00    +0.000 HD
ENDBRANCH  25  26
ENDBRANCH   5  20
TORSDOF 4
ENDMDL
MODEL 5
REMARK VINA RESULT:      -6.6     22.699     24.745
REMARK  Name = SB_202190.pdbqt.pdb
REMARK  4 active torsions:
REMARK  status: ('A' for Active; 'I' for Inactive)
REMARK    1  A    between atoms: C_4  and  C_7
REMARK    2  A    between atoms: C_5  and  C_19
REMARK    3  A    between atoms: C_6  and  C_8
REMARK    4  A    between atoms: C_15  and  O_26
REMARK                            x       y       z     vdW  Elec       q    Type
REMARK                         _______ _______ _______ _____ _____    ______ ____
ROOT
ATOM      1  N   UNL     1      51.089   0.035   8.706  0.00  0.00    +0.000 N 
ATOM      2  N   UNL     1      50.692   1.886   7.589  0.00  0.00    +0.000 NA
ATOM      3  C   UNL     1      51.146   1.039   9.652  0.00  0.00    +0.000 A 
ATOM      4  C   UNL     1      50.923   2.191   8.912  0.00  0.00    +0.000 A 
ATOM      5  C   UNL     1      50.798   0.578   7.478  0.00  0.00    +0.000 A 
ATOM      6  H   UNL     1      51.202  -0.953   8.888  0.00  0.00    +0.000 HD
ENDROOT
BRANCH   4   7
ATOM      7  C   UNL     1      50.929   3.563   9.374  0.00  0.00    +0.000 A 
ATOM      8  C   UNL     1      49.965   4.033  10.269  0.00  0.00    +0.000 A 
ATOM      9  C   UNL     1      50.013   5.343  10.739  0.00  0.00    +0.000 A 
ATOM     10  C   UNL     1      51.042   6.178  10.319  0.00  0.00    +0.000 A 
ATOM     11  F   UNL     1      51.088   7.440  10.765  0.00  0.00    +0.000 F 
ATOM     12  C   UNL     1      52.021   5.725   9.443  0.00  0.00    +0.000 A 
ATOM     13  C   UNL     1      51.965   4.413   8.978  0.00  0.00    +0.000 A 
ENDBRANCH   4   7
BRANCH   3  15
ATOM     14  N   UNL     1      51.781   0.171  13.781  0.00  0.00    +0.000 NA
ATOM     15  C   UNL     1      51.360   0.760  11.069  0.00  0.00    +0.000 A 
ATOM     16  C   UNL     1      50.286   0.467  11.908  0.00  0.00    +0.000 A 
ATOM     17  C   UNL     1      52.649   0.743  11.601  0.00  0.00    +0.000 A 
ATOM     18  C   UNL     1      50.545   0.187  13.239  0.00  0.00    +0.000 A 
ATOM     19  C   UNL     1      52.803   0.453  12.947  0.00  0.00    +0.000 A 
ENDBRANCH   3  15
BRANCH   5  20
ATOM     20  C   UNL     1      50.637  -0.201   6.255  0.00  0.00    +0.000 A 
ATOM     21  C   UNL     1      50.457   0.454   5.034  0.00  0.00    +0.000 A 
ATOM     22  C   UNL     1      50.660  -1.598   6.276  0.00  0.00    +0.000 A 
ATOM     23  C   UNL     1      50.301  -0.269   3.854  0.00  0.00    +0.000 A 
ATOM     24  C   UNL     1      50.505  -2.331   5.102  0.00  0.00    +0.000 A 
ATOM     25  C   UNL     1      50.327  -1.659   3.899  0.00  0.00    +0.000 A 
BRANCH  25  26
ATOM     26  O   UNL     1      50.178  -2.395   2.760  0.00  0.00    +0.000 OA
ATOM     27  H   UNL     1      49.245  -2.349   2.487  0.00  0.00    +0.000 HD
ENDBRANCH  25  26
ENDBRANCH   5  20
TORSDOF 4
ENDMDL
MODEL 6
REMARK VINA RESULT:      -6.5      4.390      7.012
REMARK  Name = SB_202190.pdbqt.pdb
REMARK  4 active torsions:
REMARK  status: ('A' for Active; 'I' for Inactive)
REMARK    1  A    between atoms: C_4  and  C_7
REMARK    2  A    between atoms: C_5  and  C_19
REMARK    3  A    between atoms: C_6  and  C_8
REMARK    4  A    between atoms: C_15  and  O_26
REMARK                            x       y       z     vdW  Elec       q    Type
REMARK                         _______ _______ _______ _____ _____    ______ ____
ROOT
ATOM      1  N   UNL     1      32.217  15.905  20.421  0.00  0.00    +0.000 N 
ATOM      2  N   UNL     1      33.415  16.661  18.740  0.00  0.00    +0.000 NA
ATOM      3  C   UNL     1      33.474  16.117  20.950  0.00  0.00    +0.000 A 
ATOM      4  C   UNL     1      34.210  16.564  19.861  0.00  0.00    +0.000 A 
ATOM      5  C   UNL     1      32.213  16.257  19.093  0.00  0.00    +0.000 A 
ATOM      6  H   UNL     1      31.410  15.578  20.934  0.00  0.00    +0.000 HD
ENDROOT
BRANCH   4   7
ATOM      7  C   UNL     1      35.620  16.890  19.810  0.00  0.00    +0.000 A 
ATOM      8  C   UNL     1      36.587  16.013  20.306  0.00  0.00    +0.000 A 
ATOM      9  C   UNL     1      37.942  16.323  20.207  0.00  0.00    +0.000 A 
ATOM     10  C   UNL     1      38.324  17.509  19.592  0.00  0.00    +0.000 A 
ATOM     11  F   UNL     1      39.625  17.813  19.498  0.00  0.00    +0.000 F 
ATOM     12  C   UNL     1      37.378  18.387  19.075  0.00  0.00    +0.000 A 
ATOM     13  C   UNL     1      36.026  18.069  19.180  0.00  0.00    +0.000 A 
ENDBRANCH   4   7
BRANCH   3  15
ATOM     14  N   UNL     1      34.389  15.509  25.072  0.00  0.00    +0.000 NA
ATOM     15  C   UNL     1      33.768  15.909  22.365  0.00  0.00    +0.000 A 
ATOM     16  C   UNL     1      33.751  14.629  22.915  0.00  0.00    +0.000 A 
ATOM     17  C   UNL     1      34.112  16.986  23.182  0.00  0.00    +0.000 A 
ATOM     18  C   UNL     1      34.061  14.484  24.258  0.00  0.00    +0.000 A 
ATOM     19  C   UNL     1      34.403  16.736  24.513  0.00  0.00    +0.000 A 
ENDBRANCH   3  15
BRANCH   5  20
ATOM     20  C   UNL     1      31.039  16.183  18.230  0.00  0.00    +0.000 A 
ATOM     21  C   UNL     1      29.939  15.414  18.620  0.00  0.00    +0.000 A 
ATOM     22  C   UNL     1      30.986  16.871  17.014  0.00  0.00    +0.000 A 
ATOM     23  C   UNL     1      28.807  15.329  17.813  0.00  0.00    +0.000 A 
ATOM     24  C   UNL     1      29.859  16.792  16.200  0.00  0.00    +0.000 A 
ATOM     25  C   UNL     1      28.778  16.021  16.607  0.00  0.00    +0.000 A 
BRANCH  25  26
ATOM     26  O   UNL     1      27.683  15.958  15.794  0.00  0.00    +0.000 OA
ATOM     27  H   UNL     1      27.815  15.230  15.162  0.00  0.00    +0.000 HD
ENDBRANCH  25  26
ENDBRANCH   5  20
TORSDOF 4
ENDMDL
MODEL 7
REMARK VINA RESULT:      -6.1     35.003     35.755
REMARK  Name = SB_202190.pdbqt.pdb
REMARK  4 active torsions:
REMARK  status: ('A' for Active; 'I' for Inactive)
REMARK    1  A    between atoms: C_4  and  C_7
REMARK    2  A    between atoms: C_5  and  C_19
REMARK    3  A    between atoms: C_6  and  C_8
REMARK    4  A    between atoms: C_15  and  O_26
REMARK                            x       y       z     vdW  Elec       q    Type
REMARK                         _______ _______ _______ _____ _____    ______ ____
ROOT
ATOM      1  N   UNL     1      39.083  -1.003 -10.507  0.00  0.00    +0.000 N 
ATOM      2  N   UNL     1      40.205  -2.249  -9.085  0.00  0.00    +0.000 NA
ATOM      3  C   UNL     1      38.500  -2.251 -10.592  0.00  0.00    +0.000 A 
ATOM      4  C   UNL     1      39.247  -3.017  -9.709  0.00  0.00    +0.000 A 
ATOM      5  C   UNL     1      40.096  -1.034  -9.579  0.00  0.00    +0.000 A 
ATOM      6  H   UNL     1      38.791  -0.181 -11.015  0.00  0.00    +0.000 HD
ENDROOT
BRANCH   4   7
ATOM      7  C   UNL     1      39.122  -4.433  -9.428  0.00  0.00    +0.000 A 
ATOM      8  C   UNL     1      38.334  -4.898  -8.374  0.00  0.00    +0.000 A 
ATOM      9  C   UNL     1      38.189  -6.264  -8.147  0.00  0.00    +0.000 A 
ATOM     10  C   UNL     1      38.825  -7.164  -8.994  0.00  0.00    +0.000 A 
ATOM     11  F   UNL     1      38.691  -8.480  -8.776  0.00  0.00    +0.000 F 
ATOM     12  C   UNL     1      39.599  -6.723 -10.060  0.00  0.00    +0.000 A 
ATOM     13  C   UNL     1      39.739  -5.354 -10.278  0.00  0.00    +0.000 A 
ENDBRANCH   4   7
BRANCH   3  15
ATOM     14  N   UNL     1      35.108  -3.063 -13.050  0.00  0.00    +0.000 NA
ATOM     15  C   UNL     1      37.339  -2.511 -11.439  0.00  0.00    +0.000 A 
ATOM     16  C   UNL     1      37.496  -2.809 -12.791  0.00  0.00    +0.000 A 
ATOM     17  C   UNL     1      36.053  -2.504 -10.899  0.00  0.00    +0.000 A 
ATOM     18  C   UNL     1      36.364  -3.071 -13.546  0.00  0.00    +0.000 A 
ATOM     19  C   UNL     1      34.985  -2.776 -11.738  0.00  0.00    +0.000 A 
ENDBRANCH   3  15
BRANCH   5  20
ATOM     20  C   UNL     1      40.910   0.122  -9.217  0.00  0.00    +0.000 A 
ATOM     21  C   UNL     1      40.340   1.397  -9.212  0.00  0.00    +0.000 A 
ATOM     22  C   UNL     1      42.257  -0.018  -8.872  0.00  0.00    +0.000 A 
ATOM     23  C   UNL     1      41.097   2.515  -8.870  0.00  0.00    +0.000 A 
ATOM     24  C   UNL     1      43.023   1.094  -8.529  0.00  0.00    +0.000 A 
ATOM     25  C   UNL     1      42.436   2.352  -8.530  0.00  0.00    +0.000 A 
BRANCH  25  26
ATOM     26  O   UNL     1      43.204   3.428  -8.190  0.00  0.00    +0.000 OA
ATOM     27  H   UNL     1      43.585   3.263  -7.310  0.00  0.00    +0.000 HD
ENDBRANCH  25  26
ENDBRANCH   5  20
TORSDOF 4
ENDMDL
MODEL 8
REMARK VINA RESULT:      -5.8     34.341     35.740
REMARK  Name = SB_202190.pdbqt.pdb
REMARK  4 active torsions:
REMARK  status: ('A' for Active; 'I' for Inactive)
REMARK    1  A    between atoms: C_4  and  C_7
REMARK    2  A    between atoms: C_5  and  C_19
REMARK    3  A    between atoms: C_6  and  C_8
REMARK    4  A    between atoms: C_15  and  O_26
REMARK                            x       y       z     vdW  Elec       q    Type
REMARK                         _______ _______ _______ _____ _____    ______ ____
ROOT
ATOM      1  N   UNL     1      41.382  -1.956 -10.024  0.00  0.00    +0.000 N 
ATOM      2  N   UNL     1      39.428  -1.118  -9.467  0.00  0.00    +0.000 NA
ATOM      3  C   UNL     1      41.631  -0.625  -9.756  0.00  0.00    +0.000 A 
ATOM      4  C   UNL     1      40.377  -0.121  -9.439  0.00  0.00    +0.000 A 
ATOM      5  C   UNL     1      40.048  -2.222  -9.824  0.00  0.00    +0.000 A 
ATOM      6  H   UNL     1      42.074  -2.643 -10.287  0.00  0.00    +0.000 HD
ENDROOT
BRANCH   4   7
ATOM      7  C   UNL     1      40.018   1.247  -9.125  0.00  0.00    +0.000 A 
ATOM      8  C   UNL     1      39.958   1.698  -7.805  0.00  0.00    +0.000 A 
ATOM      9  C   UNL     1      39.656   3.028  -7.524  0.00  0.00    +0.000 A 
ATOM     10  C   UNL     1      39.431   3.910  -8.575  0.00  0.00    +0.000 A 
ATOM     11  F   UNL     1      39.136   5.189  -8.308  0.00  0.00    +0.000 F 
ATOM     12  C   UNL     1      39.504   3.486  -9.896  0.00  0.00    +0.000 A 
ATOM     13  C   UNL     1      39.806   2.153 -10.167  0.00  0.00    +0.000 A 
ENDBRANCH   4   7
BRANCH   3  15
ATOM     14  N   UNL     1      45.572   0.997  -9.944  0.00  0.00    +0.000 NA
ATOM     15  C   UNL     1      42.977  -0.061  -9.803  0.00  0.00    +0.000 A 
ATOM     16  C   UNL     1      44.030  -0.672  -9.126  0.00  0.00    +0.000 A 
ATOM     17  C   UNL     1      43.239   1.080 -10.562  0.00  0.00    +0.000 A 
ATOM     18  C   UNL     1      45.292  -0.109  -9.223  0.00  0.00    +0.000 A 
ATOM     19  C   UNL     1      44.536   1.566 -10.594  0.00  0.00    +0.000 A 
ENDBRANCH   3  15
BRANCH   5  20
ATOM     20  C   UNL     1      39.443  -3.539  -9.992  0.00  0.00    +0.000 A 
ATOM     21  C   UNL     1      39.474  -4.163 -11.242  0.00  0.00    +0.000 A 
ATOM     22  C   UNL     1      38.828  -4.197  -8.923  0.00  0.00    +0.000 A 
ATOM     23  C   UNL     1      38.902  -5.420 -11.426  0.00  0.00    +0.000 A 
ATOM     24  C   UNL     1      38.253  -5.454  -9.096  0.00  0.00    +0.000 A 
ATOM     25  C   UNL     1      38.296  -6.055 -10.347  0.00  0.00    +0.000 A 
BRANCH  25  26
ATOM     26  O   UNL     1      37.727  -7.287 -10.495  0.00  0.00    +0.000 OA
ATOM     27  H   UNL     1      37.434  -7.378 -11.418  0.00  0.00    +0.000 HD
ENDBRANCH  25  26
ENDBRANCH   5  20
TORSDOF 4
ENDMDL
MODEL 9
REMARK VINA RESULT:      -5.7     19.397     21.858
REMARK  Name = SB_202190.pdbqt.pdb
REMARK  4 active torsions:
REMARK  status: ('A' for Active; 'I' for Inactive)
REMARK    1  A    between atoms: C_4  and  C_7
REMARK    2  A    between atoms: C_5  and  C_19
REMARK    3  A    between atoms: C_6  and  C_8
REMARK    4  A    between atoms: C_15  and  O_26
REMARK                            x       y       z     vdW  Elec       q    Type
REMARK                         _______ _______ _______ _____ _____    ______ ____
ROOT
ATOM      1  N   UNL     1      34.181  16.567   0.510  0.00  0.00    +0.000 N 
ATOM      2  N   UNL     1      34.403  17.718   2.370  0.00  0.00    +0.000 NA
ATOM      3  C   UNL     1      35.162  17.498   0.235  0.00  0.00    +0.000 A 
ATOM      4  C   UNL     1      35.256  18.225   1.414  0.00  0.00    +0.000 A 
ATOM      5  C   UNL     1      33.757  16.717   1.809  0.00  0.00    +0.000 A 
ATOM      6  H   UNL     1      33.850  15.856  -0.126  0.00  0.00    +0.000 HD
ENDROOT
BRANCH   4   7
ATOM      7  C   UNL     1      36.090  19.376   1.690  0.00  0.00    +0.000 A 
ATOM      8  C   UNL     1      36.444  19.721   2.995  0.00  0.00    +0.000 A 
ATOM      9  C   UNL     1      37.285  20.805   3.239  0.00  0.00    +0.000 A 
ATOM     10  C   UNL     1      37.783  21.532   2.164  0.00  0.00    +0.000 A 
ATOM     11  F   UNL     1      38.588  22.578   2.395  0.00  0.00    +0.000 F 
ATOM     12  C   UNL     1      37.457  21.195   0.856  0.00  0.00    +0.000 A 
ATOM     13  C   UNL     1      36.615  20.110   0.623  0.00  0.00    +0.000 A 
ENDBRANCH   4   7
BRANCH   3  15
ATOM     14  N   UNL     1      37.180  17.561  -3.523  0.00  0.00    +0.000 NA
ATOM     15  C   UNL     1      35.864  17.534  -1.044  0.00  0.00    +0.000 A 
ATOM     16  C   UNL     1      37.057  16.835  -1.223  0.00  0.00    +0.000 A 
ATOM     17  C   UNL     1      35.331  18.237  -2.124  0.00  0.00    +0.000 A 
ATOM     18  C   UNL     1      37.670  16.882  -2.464  0.00  0.00    +0.000 A 
ATOM     19  C   UNL     1      36.022  18.224  -3.325  0.00  0.00    +0.000 A 
ENDBRANCH   3  15
BRANCH   5  20
ATOM     20  C   UNL     1      32.744  15.880   2.441  0.00  0.00    +0.000 A 
ATOM     21  C   UNL     1      32.335  14.697   1.819  0.00  0.00    +0.000 A 
ATOM     22  C   UNL     1      32.168  16.234   3.664  0.00  0.00    +0.000 A 
ATOM     23  C   UNL     1      31.370  13.881   2.404  0.00  0.00    +0.000 A 
ATOM     24  C   UNL     1      31.202  15.426   4.257  0.00  0.00    +0.000 A 
ATOM     25  C   UNL     1      30.811  14.254   3.622  0.00  0.00    +0.000 A 
BRANCH  25  26
ATOM     26  O   UNL     1      29.863  13.476   4.220  0.00  0.00    +0.000 OA
ATOM     27  H   UNL     1      30.283  12.995   4.955  0.00  0.00    +0.000 HD
ENDBRANCH  25  26
ENDBRANCH   5  20
TORSDOF 4
ENDMDL
