MODEL 1
REMARK VINA RESULT:      -6.6      0.000      0.000
REMARK  Name = Simvastatin.pdbqt.pdb
REMARK  7 active torsions:
REMARK  status: ('A' for Active; 'I' for Inactive)
REMARK    1  A    between atoms: C_2  and  C_13
REMARK    2  A    between atoms: C_3  and  O_24
REMARK    3  A    between atoms: C_14  and  C_15
REMARK    4  A    between atoms: C_20  and  O_22
REMARK    5  A    between atoms: O_24  and  C_25
REMARK    6  A    between atoms: C_25  and  C_27
REMARK    7  A    between atoms: C_27  and  C_30
REMARK                            x       y       z     vdW  Elec       q    Type
REMARK                         _______ _______ _______ _____ _____    ______ ____
ROOT
ATOM      1  C   UNL     1      40.731   0.802  16.676  0.00  0.00    +0.000 A 
ATOM      2  C   UNL     1      40.934   0.950  18.169  0.00  0.00    +0.000 A 
ATOM      3  C   UNL     1      41.282  -0.313  15.827  0.00  0.00    +0.000 A 
ATOM      4  C   UNL     1      40.105   1.918  18.935  0.00  0.00    +0.000 A 
ATOM      5  C   UNL     1      39.816   1.841  15.993  0.00  0.00    +0.000 A 
ATOM      6  C   UNL     1      40.821  -0.225  14.468  0.00  0.00    +0.000 A 
ATOM      7  C   UNL     1      39.935   0.660  13.776  0.00  0.00    +0.000 A 
ATOM      8  C   UNL     1      39.533   1.633  14.741  0.00  0.00    +0.000 A 
ATOM      9  C   UNL     1      39.248   2.682  18.092  0.00  0.00    +0.000 A 
ATOM     10  C   UNL     1      39.116   2.666  16.900  0.00  0.00    +0.000 A 
ATOM     11  C   UNL     1      40.157   2.165  20.412  0.00  0.00    +0.000 C 
ATOM     12  C   UNL     1      38.945   0.110  12.801  0.00  0.00    +0.000 C 
ENDROOT
BRANCH   2  13
ATOM     13  C   UNL     1      42.059   0.324  18.781  0.00  0.00    +0.000 C 
ATOM     14  C   UNL     1      43.256  -0.311  19.501  0.00  0.00    +0.000 C 
BRANCH  14  15
ATOM     15  C   UNL     1      44.333  -0.879  20.221  0.00  0.00    +0.000 C 
ATOM     16  O   UNL     1      44.773  -0.205  21.418  0.00  0.00    +0.000 OA
ATOM     17  C   UNL     1      45.867  -0.688  22.143  0.00  0.00    +0.000 C 
ATOM     18  O   UNL     1      46.295  -0.170  23.163  0.00  0.00    +0.000 OA
ATOM     19  C   UNL     1      46.471  -1.869  21.577  0.00  0.00    +0.000 C 
ATOM     20  C   UNL     1      46.193  -2.647  20.432  0.00  0.00    +0.000 C 
ATOM     21  C   UNL     1      45.075  -2.026  19.832  0.00  0.00    +0.000 C 
BRANCH  20  22
ATOM     22  O   UNL     1      47.192  -3.234  19.712  0.00  0.00    +0.000 OA
ATOM     23  H   UNL     1      48.071  -2.867  19.924  0.00  0.00    +0.000 HD
ENDBRANCH  20  22
ENDBRANCH  14  15
ENDBRANCH   2  13
BRANCH   3  24
ATOM     24  O   UNL     1      41.299  -1.570  16.439  0.00  0.00    +0.000 OA
BRANCH  24  25
ATOM     25  C   UNL     1      42.274  -2.400  15.915  0.00  0.00    +0.000 C 
ATOM     26  O   UNL     1      43.477  -2.130  15.929  0.00  0.00    +0.000 OA
BRANCH  25  27
ATOM     27  C   UNL     1      41.637  -3.692  15.295  0.00  0.00    +0.000 C 
ATOM     28  C   UNL     1      40.120  -3.777  15.711  0.00  0.00    +0.000 C 
ATOM     29  C   UNL     1      42.377  -4.992  15.809  0.00  0.00    +0.000 C 
BRANCH  27  30
ATOM     30  C   UNL     1      41.783  -3.590  13.816  0.00  0.00    +0.000 C 
ATOM     31  C   UNL     1      41.896  -3.511  12.265  0.00  0.00    +0.000 C 
ENDBRANCH  27  30
ENDBRANCH  25  27
ENDBRANCH  24  25
ENDBRANCH   3  24
TORSDOF 7
ENDMDL
MODEL 2
REMARK VINA RESULT:      -6.6      1.627      2.938
REMARK  Name = Simvastatin.pdbqt.pdb
REMARK  7 active torsions:
REMARK  status: ('A' for Active; 'I' for Inactive)
REMARK    1  A    between atoms: C_2  and  C_13
REMARK    2  A    between atoms: C_3  and  O_24
REMARK    3  A    between atoms: C_14  and  C_15
REMARK    4  A    between atoms: C_20  and  O_22
REMARK    5  A    between atoms: O_24  and  C_25
REMARK    6  A    between atoms: C_25  and  C_27
REMARK    7  A    between atoms: C_27  and  C_30
REMARK                            x       y       z     vdW  Elec       q    Type
REMARK                         _______ _______ _______ _____ _____    ______ ____
ROOT
ATOM      1  C   UNL     1      41.542  -0.412  15.174  0.00  0.00    +0.000 A 
ATOM      2  C   UNL     1      40.978   0.460  16.274  0.00  0.00    +0.000 A 
ATOM      3  C   UNL     1      42.475  -1.577  15.376  0.00  0.00    +0.000 A 
ATOM      4  C   UNL     1      39.848   1.382  15.981  0.00  0.00    +0.000 A 
ATOM      5  C   UNL     1      41.051  -0.125  13.738  0.00  0.00    +0.000 A 
ATOM      6  C   UNL     1      42.742  -2.265  14.142  0.00  0.00    +0.000 A 
ATOM      7  C   UNL     1      42.285  -2.102  12.796  0.00  0.00    +0.000 A 
ATOM      8  C   UNL     1      41.429  -0.960  12.816  0.00  0.00    +0.000 A 
ATOM      9  C   UNL     1      39.495   1.382  14.601  0.00  0.00    +0.000 A 
ATOM     10  C   UNL     1      39.969   0.780  13.678  0.00  0.00    +0.000 A 
ATOM     11  C   UNL     1      39.157   2.286  16.956  0.00  0.00    +0.000 C 
ATOM     12  C   UNL     1      41.923  -3.303  11.982  0.00  0.00    +0.000 C 
ENDROOT
BRANCH   2  13
ATOM     13  C   UNL     1      41.673   0.547  17.516  0.00  0.00    +0.000 C 
ATOM     14  C   UNL     1      42.422   0.568  18.854  0.00  0.00    +0.000 C 
BRANCH  14  15
ATOM     15  C   UNL     1      43.130   0.527  20.079  0.00  0.00    +0.000 C 
ATOM     16  O   UNL     1      42.809   1.519  21.076  0.00  0.00    +0.000 OA
ATOM     17  C   UNL     1      43.511   1.561  22.285  0.00  0.00    +0.000 C 
ATOM     18  O   UNL     1      43.295   2.371  23.174  0.00  0.00    +0.000 OA
ATOM     19  C   UNL     1      44.540   0.558  22.402  0.00  0.00    +0.000 C 
ATOM     20  C   UNL     1      44.997  -0.467  21.547  0.00  0.00    +0.000 C 
ATOM     21  C   UNL     1      44.187  -0.368  20.394  0.00  0.00    +0.000 C 
BRANCH  20  22
ATOM     22  O   UNL     1      46.314  -0.821  21.501  0.00  0.00    +0.000 OA
ATOM     23  H   UNL     1      46.827  -0.451  22.244  0.00  0.00    +0.000 HD
ENDBRANCH  20  22
ENDBRANCH  14  15
ENDBRANCH   2  13
BRANCH   3  24
ATOM     24  O   UNL     1      42.228  -2.343  16.519  0.00  0.00    +0.000 OA
BRANCH  24  25
ATOM     25  C   UNL     1      41.622  -3.551  16.225  0.00  0.00    +0.000 C 
ATOM     26  O   UNL     1      42.198  -4.481  15.657  0.00  0.00    +0.000 OA
BRANCH  25  27
ATOM     27  C   UNL     1      40.124  -3.555  16.690  0.00  0.00    +0.000 C 
ATOM     28  C   UNL     1      39.978  -2.675  17.988  0.00  0.00    +0.000 C 
ATOM     29  C   UNL     1      39.635  -5.023  17.016  0.00  0.00    +0.000 C 
BRANCH  27  30
ATOM     30  C   UNL     1      39.313  -2.999  15.570  0.00  0.00    +0.000 C 
ATOM     31  C   UNL     1      38.427  -2.442  14.417  0.00  0.00    +0.000 C 
ENDBRANCH  27  30
ENDBRANCH  25  27
ENDBRANCH  24  25
ENDBRANCH   3  24
TORSDOF 7
ENDMDL
MODEL 3
REMARK VINA RESULT:      -6.6     12.185     14.223
REMARK  Name = Simvastatin.pdbqt.pdb
REMARK  7 active torsions:
REMARK  status: ('A' for Active; 'I' for Inactive)
REMARK    1  A    between atoms: C_2  and  C_13
REMARK    2  A    between atoms: C_3  and  O_24
REMARK    3  A    between atoms: C_14  and  C_15
REMARK    4  A    between atoms: C_20  and  O_22
REMARK    5  A    between atoms: O_24  and  C_25
REMARK    6  A    between atoms: C_25  and  C_27
REMARK    7  A    between atoms: C_27  and  C_30
REMARK                            x       y       z     vdW  Elec       q    Type
REMARK                         _______ _______ _______ _____ _____    ______ ____
ROOT
ATOM      1  C   UNL     1      51.349   5.653  10.108  0.00  0.00    +0.000 A 
ATOM      2  C   UNL     1      51.786   5.289   8.706  0.00  0.00    +0.000 A 
ATOM      3  C   UNL     1      51.032   4.671  11.205  0.00  0.00    +0.000 A 
ATOM      4  C   UNL     1      52.349   6.336   7.811  0.00  0.00    +0.000 A 
ATOM      5  C   UNL     1      51.306   7.156  10.455  0.00  0.00    +0.000 A 
ATOM      6  C   UNL     1      50.752   5.335  12.449  0.00  0.00    +0.000 A 
ATOM      7  C   UNL     1      50.750   6.704  12.864  0.00  0.00    +0.000 A 
ATOM      8  C   UNL     1      51.064   7.461  11.695  0.00  0.00    +0.000 A 
ATOM      9  C   UNL     1      52.310   7.631   8.405  0.00  0.00    +0.000 A 
ATOM     10  C   UNL     1      51.892   7.984   9.472  0.00  0.00    +0.000 A 
ATOM     11  C   UNL     1      52.854   6.140   6.414  0.00  0.00    +0.000 C 
ATOM     12  C   UNL     1      51.334   7.082  14.188  0.00  0.00    +0.000 C 
ENDROOT
BRANCH   2  13
ATOM     13  C   UNL     1      51.453   4.004   8.186  0.00  0.00    +0.000 C 
ATOM     14  C   UNL     1      51.147   2.592   7.670  0.00  0.00    +0.000 C 
BRANCH  14  15
ATOM     15  C   UNL     1      50.894   1.266   7.245  0.00  0.00    +0.000 C 
ATOM     16  O   UNL     1      51.011   0.976   5.836  0.00  0.00    +0.000 OA
ATOM     17  C   UNL     1      50.722  -0.302   5.350  0.00  0.00    +0.000 C 
ATOM     18  O   UNL     1      50.798  -0.619   4.172  0.00  0.00    +0.000 OA
ATOM     19  C   UNL     1      50.310  -1.238   6.366  0.00  0.00    +0.000 C 
ATOM     20  C   UNL     1      50.130  -1.137   7.762  0.00  0.00    +0.000 C 
ATOM     21  C   UNL     1      50.464   0.198   8.077  0.00  0.00    +0.000 C 
BRANCH  20  22
ATOM     22  O   UNL     1      49.143  -1.827   8.403  0.00  0.00    +0.000 OA
ATOM     23  H   UNL     1      48.910  -2.658   7.947  0.00  0.00    +0.000 HD
ENDBRANCH  20  22
ENDBRANCH  14  15
ENDBRANCH   2  13
BRANCH   3  24
ATOM     24  O   UNL     1      51.842   3.531  11.233  0.00  0.00    +0.000 OA
BRANCH  24  25
ATOM     25  C   UNL     1      51.118   2.374  11.455  0.00  0.00    +0.000 C 
ATOM     26  O   UNL     1      49.974   2.194  11.032  0.00  0.00    +0.000 OA
BRANCH  25  27
ATOM     27  C   UNL     1      51.939   1.357  12.322  0.00  0.00    +0.000 C 
ATOM     28  C   UNL     1      50.950   0.359  13.032  0.00  0.00    +0.000 C 
ATOM     29  C   UNL     1      52.782   2.109  13.431  0.00  0.00    +0.000 C 
BRANCH  27  30
ATOM     30  C   UNL     1      52.862   0.636  11.401  0.00  0.00    +0.000 C 
ATOM     31  C   UNL     1      53.809  -0.092  10.402  0.00  0.00    +0.000 C 
ENDBRANCH  27  30
ENDBRANCH  25  27
ENDBRANCH  24  25
ENDBRANCH   3  24
TORSDOF 7
ENDMDL
MODEL 4
REMARK VINA RESULT:      -6.4     13.301     15.383
REMARK  Name = Simvastatin.pdbqt.pdb
REMARK  7 active torsions:
REMARK  status: ('A' for Active; 'I' for Inactive)
REMARK    1  A    between atoms: C_2  and  C_13
REMARK    2  A    between atoms: C_3  and  O_24
REMARK    3  A    between atoms: C_14  and  C_15
REMARK    4  A    between atoms: C_20  and  O_22
REMARK    5  A    between atoms: O_24  and  C_25
REMARK    6  A    between atoms: C_25  and  C_27
REMARK    7  A    between atoms: C_27  and  C_30
REMARK                            x       y       z     vdW  Elec       q    Type
REMARK                         _______ _______ _______ _____ _____    ______ ____
ROOT
ATOM      1  C   UNL     1      50.834   1.366   6.839  0.00  0.00    +0.000 A 
ATOM      2  C   UNL     1      50.687   1.632   8.321  0.00  0.00    +0.000 A 
ATOM      3  C   UNL     1      51.536   2.266   5.857  0.00  0.00    +0.000 A 
ATOM      4  C   UNL     1      50.236   0.541   9.227  0.00  0.00    +0.000 A 
ATOM      5  C   UNL     1      50.284   0.022   6.316  0.00  0.00    +0.000 A 
ATOM      6  C   UNL     1      51.595   1.680   4.545  0.00  0.00    +0.000 A 
ATOM      7  C   UNL     1      51.168   0.428   3.998  0.00  0.00    +0.000 A 
ATOM      8  C   UNL     1      50.532  -0.264   5.072  0.00  0.00    +0.000 A 
ATOM      9  C   UNL     1      49.897  -0.646   8.516  0.00  0.00    +0.000 A 
ATOM     10  C   UNL     1      49.910  -0.876   7.339  0.00  0.00    +0.000 A 
ATOM     11  C   UNL     1      50.069   0.627  10.714  0.00  0.00    +0.000 C 
ATOM     12  C   UNL     1      52.054  -0.308   3.045  0.00  0.00    +0.000 C 
ENDROOT
BRANCH   2  13
ATOM     13  C   UNL     1      50.771   2.973   8.798  0.00  0.00    +0.000 C 
ATOM     14  C   UNL     1      50.881   4.437   9.243  0.00  0.00    +0.000 C 
BRANCH  14  15
ATOM     15  C   UNL     1      50.978   5.805   9.592  0.00  0.00    +0.000 C 
ATOM     16  O   UNL     1      50.746   6.782   8.556  0.00  0.00    +0.000 OA
ATOM     17  C   UNL     1      50.881   8.148   8.827  0.00  0.00    +0.000 C 
ATOM     18  O   UNL     1      50.701   9.030   8.001  0.00  0.00    +0.000 OA
ATOM     19  C   UNL     1      51.264   8.442  10.185  0.00  0.00    +0.000 C 
ATOM     20  C   UNL     1      51.540   7.637  11.311  0.00  0.00    +0.000 C 
ATOM     21  C   UNL     1      51.355   6.310  10.865  0.00  0.00    +0.000 C 
BRANCH  20  22
ATOM     22  O   UNL     1      52.495   7.988  12.220  0.00  0.00    +0.000 OA
ATOM     23  H   UNL     1      52.714   8.939  12.184  0.00  0.00    +0.000 HD
ENDBRANCH  20  22
ENDBRANCH  14  15
ENDBRANCH   2  13
BRANCH   3  24
ATOM     24  O   UNL     1      52.681   2.900   6.348  0.00  0.00    +0.000 OA
BRANCH  24  25
ATOM     25  C   UNL     1      52.644   4.271   6.169  0.00  0.00    +0.000 C 
ATOM     26  O   UNL     1      51.697   4.865   5.651  0.00  0.00    +0.000 OA
BRANCH  25  27
ATOM     27  C   UNL     1      53.964   4.940   6.690  0.00  0.00    +0.000 C 
ATOM     28  C   UNL     1      53.745   6.494   6.822  0.00  0.00    +0.000 C 
ATOM     29  C   UNL     1      55.163   4.681   5.691  0.00  0.00    +0.000 C 
BRANCH  27  30
ATOM     30  C   UNL     1      54.278   4.328   8.011  0.00  0.00    +0.000 C 
ATOM     31  C   UNL     1      54.587   3.646   9.377  0.00  0.00    +0.000 C 
ENDBRANCH  27  30
ENDBRANCH  25  27
ENDBRANCH  24  25
ENDBRANCH   3  24
TORSDOF 7
ENDMDL
MODEL 5
REMARK VINA RESULT:      -6.3     12.961     15.416
REMARK  Name = Simvastatin.pdbqt.pdb
REMARK  7 active torsions:
REMARK  status: ('A' for Active; 'I' for Inactive)
REMARK    1  A    between atoms: C_2  and  C_13
REMARK    2  A    between atoms: C_3  and  O_24
REMARK    3  A    between atoms: C_14  and  C_15
REMARK    4  A    between atoms: C_20  and  O_22
REMARK    5  A    between atoms: O_24  and  C_25
REMARK    6  A    between atoms: C_25  and  C_27
REMARK    7  A    between atoms: C_27  and  C_30
REMARK                            x       y       z     vdW  Elec       q    Type
REMARK                         _______ _______ _______ _____ _____    ______ ____
ROOT
ATOM      1  C   UNL     1      51.579   5.129   7.341  0.00  0.00    +0.000 A 
ATOM      2  C   UNL     1      52.050   4.405   6.098  0.00  0.00    +0.000 A 
ATOM      3  C   UNL     1      51.128   4.469   8.617  0.00  0.00    +0.000 A 
ATOM      4  C   UNL     1      52.741   5.161   5.019  0.00  0.00    +0.000 A 
ATOM      5  C   UNL     1      51.646   6.672   7.314  0.00  0.00    +0.000 A 
ATOM      6  C   UNL     1      50.847   5.434   9.644  0.00  0.00    +0.000 A 
ATOM      7  C   UNL     1      50.940   6.860   9.720  0.00  0.00    +0.000 A 
ATOM      8  C   UNL     1      51.373   7.285   8.427  0.00  0.00    +0.000 A 
ATOM      9  C   UNL     1      52.783   6.561   5.281  0.00  0.00    +0.000 A 
ATOM     10  C   UNL     1      52.347   7.191   6.203  0.00  0.00    +0.000 A 
ATOM     11  C   UNL     1      53.293   4.596   3.746  0.00  0.00    +0.000 C 
ATOM     12  C   UNL     1      51.491   7.506  10.951  0.00  0.00    +0.000 C 
ENDROOT
BRANCH   2  13
ATOM     13  C   UNL     1      51.634   3.059   5.880  0.00  0.00    +0.000 C 
ATOM     14  C   UNL     1      51.250   1.589   5.674  0.00  0.00    +0.000 C 
BRANCH  14  15
ATOM     15  C   UNL     1      50.940   0.215   5.528  0.00  0.00    +0.000 C 
ATOM     16  O   UNL     1      50.649  -0.272   4.201  0.00  0.00    +0.000 OA
ATOM     17  C   UNL     1      50.283  -1.607   4.001  0.00  0.00    +0.000 C 
ATOM     18  O   UNL     1      50.023  -2.088   2.909  0.00  0.00    +0.000 OA
ATOM     19  C   UNL     1      50.229  -2.389   5.211  0.00  0.00    +0.000 C 
ATOM     20  C   UNL     1      50.464  -2.090   6.570  0.00  0.00    +0.000 C 
ATOM     21  C   UNL     1      50.820  -0.723   6.587  0.00  0.00    +0.000 C 
BRANCH  20  22
ATOM     22  O   UNL     1      49.740  -2.681   7.564  0.00  0.00    +0.000 OA
ATOM     23  H   UNL     1      50.272  -3.306   8.093  0.00  0.00    +0.000 HD
ENDBRANCH  20  22
ENDBRANCH  14  15
ENDBRANCH   2  13
BRANCH   3  24
ATOM     24  O   UNL     1      51.837   3.316   8.969  0.00  0.00    +0.000 OA
BRANCH  24  25
ATOM     25  C   UNL     1      51.005   2.287   9.371  0.00  0.00    +0.000 C 
ATOM     26  O   UNL     1      49.894   2.078   8.879  0.00  0.00    +0.000 OA
BRANCH  25  27
ATOM     27  C   UNL     1      51.658   1.458  10.531  0.00  0.00    +0.000 C 
ATOM     28  C   UNL     1      50.526   0.768  11.381  0.00  0.00    +0.000 C 
ATOM     29  C   UNL     1      52.509   2.391  11.485  0.00  0.00    +0.000 C 
BRANCH  27  30
ATOM     30  C   UNL     1      52.551   0.445   9.902  0.00  0.00    +0.000 C 
ATOM     31  C   UNL     1      53.446  -0.641   9.236  0.00  0.00    +0.000 C 
ENDBRANCH  27  30
ENDBRANCH  25  27
ENDBRANCH  24  25
ENDBRANCH   3  24
TORSDOF 7
ENDMDL
MODEL 6
REMARK VINA RESULT:      -6.2     25.936     27.917
REMARK  Name = Simvastatin.pdbqt.pdb
REMARK  7 active torsions:
REMARK  status: ('A' for Active; 'I' for Inactive)
REMARK    1  A    between atoms: C_2  and  C_13
REMARK    2  A    between atoms: C_3  and  O_24
REMARK    3  A    between atoms: C_14  and  C_15
REMARK    4  A    between atoms: C_20  and  O_22
REMARK    5  A    between atoms: O_24  and  C_25
REMARK    6  A    between atoms: C_25  and  C_27
REMARK    7  A    between atoms: C_27  and  C_30
REMARK                            x       y       z     vdW  Elec       q    Type
REMARK                         _______ _______ _______ _____ _____    ______ ____
ROOT
ATOM      1  C   UNL     1      42.957   0.090  -9.586  0.00  0.00    +0.000 A 
ATOM      2  C   UNL     1      44.123  -0.325 -10.457  0.00  0.00    +0.000 A 
ATOM      3  C   UNL     1      42.973   1.215  -8.584  0.00  0.00    +0.000 A 
ATOM      4  C   UNL     1      43.899  -1.246 -11.603  0.00  0.00    +0.000 A 
ATOM      5  C   UNL     1      41.623  -0.655  -9.808  0.00  0.00    +0.000 A 
ATOM      6  C   UNL     1      41.677   1.423  -7.997  0.00  0.00    +0.000 A 
ATOM      7  C   UNL     1      40.392   0.823  -8.190  0.00  0.00    +0.000 A 
ATOM      8  C   UNL     1      40.590  -0.206  -9.159  0.00  0.00    +0.000 A 
ATOM      9  C   UNL     1      42.553  -1.708 -11.669  0.00  0.00    +0.000 A 
ATOM     10  C   UNL     1      41.618  -1.482 -10.954  0.00  0.00    +0.000 A 
ATOM     11  C   UNL     1      44.931  -1.728 -12.576  0.00  0.00    +0.000 C 
ATOM     12  C   UNL     1      39.169   1.683  -8.240  0.00  0.00    +0.000 C 
ENDROOT
BRANCH   2  13
ATOM     13  C   UNL     1      45.448  -0.005 -10.040  0.00  0.00    +0.000 C 
ATOM     14  C   UNL     1      46.897   0.277  -9.624  0.00  0.00    +0.000 C 
BRANCH  14  15
ATOM     15  C   UNL     1      48.254   0.498  -9.286  0.00  0.00    +0.000 C 
ATOM     16  O   UNL     1      48.959   1.547  -9.982  0.00  0.00    +0.000 OA
ATOM     17  C   UNL     1      50.315   1.777  -9.730  0.00  0.00    +0.000 C 
ATOM     18  O   UNL     1      50.976   2.645 -10.280  0.00  0.00    +0.000 OA
ATOM     19  C   UNL     1      50.891   0.885  -8.754  0.00  0.00    +0.000 C 
ATOM     20  C   UNL     1      50.373  -0.185  -7.993  0.00  0.00    +0.000 C 
ATOM     21  C   UNL     1      49.013  -0.272  -8.365  0.00  0.00    +0.000 C 
BRANCH  20  22
ATOM     22  O   UNL     1      51.132  -1.277  -7.693  0.00  0.00    +0.000 OA
ATOM     23  H   UNL     1      51.869  -1.066  -7.088  0.00  0.00    +0.000 HD
ENDBRANCH  20  22
ENDBRANCH  14  15
ENDBRANCH   2  13
BRANCH   3  24
ATOM     24  O   UNL     1      43.713   2.338  -8.966  0.00  0.00    +0.000 OA
BRANCH  24  25
ATOM     25  C   UNL     1      42.913   3.436  -9.223  0.00  0.00    +0.000 C 
ATOM     26  O   UNL     1      42.347   4.087  -8.342  0.00  0.00    +0.000 OA
BRANCH  25  27
ATOM     27  C   UNL     1      42.815   3.710 -10.764  0.00  0.00    +0.000 C 
ATOM     28  C   UNL     1      44.114   3.174 -11.473  0.00  0.00    +0.000 C 
ATOM     29  C   UNL     1      42.681   5.259 -11.057  0.00  0.00    +0.000 C 
BRANCH  27  30
ATOM     30  C   UNL     1      41.601   3.004 -11.262  0.00  0.00    +0.000 C 
ATOM     31  C   UNL     1      40.347   2.274 -11.828  0.00  0.00    +0.000 C 
ENDBRANCH  27  30
ENDBRANCH  25  27
ENDBRANCH  24  25
ENDBRANCH   3  24
TORSDOF 7
ENDMDL
MODEL 7
REMARK VINA RESULT:      -6.1     12.277     15.036
REMARK  Name = Simvastatin.pdbqt.pdb
REMARK  7 active torsions:
REMARK  status: ('A' for Active; 'I' for Inactive)
REMARK    1  A    between atoms: C_2  and  C_13
REMARK    2  A    between atoms: C_3  and  O_24
REMARK    3  A    between atoms: C_14  and  C_15
REMARK    4  A    between atoms: C_20  and  O_22
REMARK    5  A    between atoms: O_24  and  C_25
REMARK    6  A    between atoms: C_25  and  C_27
REMARK    7  A    between atoms: C_27  and  C_30
REMARK                            x       y       z     vdW  Elec       q    Type
REMARK                         _______ _______ _______ _____ _____    ______ ____
ROOT
ATOM      1  C   UNL     1      50.478  -1.035   5.040  0.00  0.00    +0.000 A 
ATOM      2  C   UNL     1      50.645  -1.675   6.401  0.00  0.00    +0.000 A 
ATOM      3  C   UNL     1      50.842   0.384   4.693  0.00  0.00    +0.000 A 
ATOM      4  C   UNL     1      50.528  -3.151   6.544  0.00  0.00    +0.000 A 
ATOM      5  C   UNL     1      49.966  -1.945   3.903  0.00  0.00    +0.000 A 
ATOM      6  C   UNL     1      50.662   0.652   3.292  0.00  0.00    +0.000 A 
ATOM      7  C   UNL     1      50.255  -0.143   2.174  0.00  0.00    +0.000 A 
ATOM      8  C   UNL     1      49.954  -1.432   2.708  0.00  0.00    +0.000 A 
ATOM      9  C   UNL     1      50.161  -3.784   5.322  0.00  0.00    +0.000 A 
ATOM     10  C   UNL     1      49.930  -3.315   4.243  0.00  0.00    +0.000 A 
ATOM     11  C   UNL     1      50.695  -3.942   7.806  0.00  0.00    +0.000 C 
ATOM     12  C   UNL     1      50.973  -0.015   0.868  0.00  0.00    +0.000 C 
ENDROOT
BRANCH   2  13
ATOM     13  C   UNL     1      50.696  -0.842   7.558  0.00  0.00    +0.000 C 
ATOM     14  C   UNL     1      50.820   0.065   8.788  0.00  0.00    +0.000 C 
BRANCH  14  15
ATOM     15  C   UNL     1      50.989   0.927   9.898  0.00  0.00    +0.000 C 
ATOM     16  O   UNL     1      50.999   0.336  11.214  0.00  0.00    +0.000 OA
ATOM     17  C   UNL     1      51.108   1.142  12.352  0.00  0.00    +0.000 C 
ATOM     18  O   UNL     1      51.123   0.713  13.495  0.00  0.00    +0.000 OA
ATOM     19  C   UNL     1      51.197   2.553  12.066  0.00  0.00    +0.000 C 
ATOM     20  C   UNL     1      51.192   3.302  10.870  0.00  0.00    +0.000 C 
ATOM     21  C   UNL     1      51.081   2.343   9.839  0.00  0.00    +0.000 C 
BRANCH  20  22
ATOM     22  O   UNL     1      50.609   4.533  10.805  0.00  0.00    +0.000 OA
ATOM     23  H   UNL     1      50.055   4.727  11.585  0.00  0.00    +0.000 HD
ENDBRANCH  20  22
ENDBRANCH  14  15
ENDBRANCH   2  13
BRANCH   3  24
ATOM     24  O   UNL     1      51.997   0.869   5.315  0.00  0.00    +0.000 OA
BRANCH  24  25
ATOM     25  C   UNL     1      51.846   2.165   5.772  0.00  0.00    +0.000 C 
ATOM     26  O   UNL     1      50.818   2.583   6.309  0.00  0.00    +0.000 OA
BRANCH  25  27
ATOM     27  C   UNL     1      53.137   3.011   5.494  0.00  0.00    +0.000 C 
ATOM     28  C   UNL     1      54.331   2.439   6.348  0.00  0.00    +0.000 C 
ATOM     29  C   UNL     1      52.916   4.528   5.886  0.00  0.00    +0.000 C 
BRANCH  27  30
ATOM     30  C   UNL     1      53.424   2.912   4.035  0.00  0.00    +0.000 C 
ATOM     31  C   UNL     1      53.688   2.775   2.507  0.00  0.00    +0.000 C 
ENDBRANCH  27  30
ENDBRANCH  25  27
ENDBRANCH  24  25
ENDBRANCH   3  24
TORSDOF 7
ENDMDL
MODEL 8
REMARK VINA RESULT:      -6.0     13.421     15.863
REMARK  Name = Simvastatin.pdbqt.pdb
REMARK  7 active torsions:
REMARK  status: ('A' for Active; 'I' for Inactive)
REMARK    1  A    between atoms: C_2  and  C_13
REMARK    2  A    between atoms: C_3  and  O_24
REMARK    3  A    between atoms: C_14  and  C_15
REMARK    4  A    between atoms: C_20  and  O_22
REMARK    5  A    between atoms: O_24  and  C_25
REMARK    6  A    between atoms: C_25  and  C_27
REMARK    7  A    between atoms: C_27  and  C_30
REMARK                            x       y       z     vdW  Elec       q    Type
REMARK                         _______ _______ _______ _____ _____    ______ ____
ROOT
ATOM      1  C   UNL     1      51.634   5.407   8.159  0.00  0.00    +0.000 A 
ATOM      2  C   UNL     1      52.295   5.297   6.802  0.00  0.00    +0.000 A 
ATOM      3  C   UNL     1      51.056   4.258   8.942  0.00  0.00    +0.000 A 
ATOM      4  C   UNL     1      53.081   6.442   6.268  0.00  0.00    +0.000 A 
ATOM      5  C   UNL     1      51.630   6.802   8.820  0.00  0.00    +0.000 A 
ATOM      6  C   UNL     1      50.599   4.676  10.240  0.00  0.00    +0.000 A 
ATOM      7  C   UNL     1      50.613   5.922  10.943  0.00  0.00    +0.000 A 
ATOM      8  C   UNL     1      51.187   6.866  10.040  0.00  0.00    +0.000 A 
ATOM      9  C   UNL     1      53.022   7.582   7.119  0.00  0.00    +0.000 A 
ATOM     10  C   UNL     1      52.441   7.748   8.155  0.00  0.00    +0.000 A 
ATOM     11  C   UNL     1      53.820   6.487   4.965  0.00  0.00    +0.000 C 
ATOM     12  C   UNL     1      50.969   5.953  12.395  0.00  0.00    +0.000 C 
ENDROOT
BRANCH   2  13
ATOM     13  C   UNL     1      51.976   4.190   5.962  0.00  0.00    +0.000 C 
ATOM     14  C   UNL     1      51.698   2.970   5.076  0.00  0.00    +0.000 C 
BRANCH  14  15
ATOM     15  C   UNL     1      51.487   1.811   4.291  0.00  0.00    +0.000 C 
ATOM     16  O   UNL     1      51.282   1.987   2.873  0.00  0.00    +0.000 OA
ATOM     17  C   UNL     1      51.016   0.885   2.054  0.00  0.00    +0.000 C 
ATOM     18  O   UNL     1      50.833   0.958   0.848  0.00  0.00    +0.000 OA
ATOM     19  C   UNL     1      50.965  -0.372   2.758  0.00  0.00    +0.000 C 
ATOM     20  C   UNL     1      51.125  -0.731   4.113  0.00  0.00    +0.000 C 
ATOM     21  C   UNL     1      51.387   0.483   4.784  0.00  0.00    +0.000 C 
BRANCH  20  22
ATOM     22  O   UNL     1      50.402  -1.746   4.670  0.00  0.00    +0.000 OA
ATOM     23  H   UNL     1      50.878  -2.187   5.400  0.00  0.00    +0.000 HD
ENDBRANCH  20  22
ENDBRANCH  14  15
ENDBRANCH   2  13
BRANCH   3  24
ATOM     24  O   UNL     1      51.768   3.058   8.848  0.00  0.00    +0.000 OA
BRANCH  24  25
ATOM     25  C   UNL     1      50.963   1.993   8.489  0.00  0.00    +0.000 C 
ATOM     26  O   UNL     1      49.844   2.123   7.989  0.00  0.00    +0.000 OA
BRANCH  25  27
ATOM     27  C   UNL     1      51.658   0.627   8.827  0.00  0.00    +0.000 C 
ATOM     28  C   UNL     1      51.905   0.537  10.380  0.00  0.00    +0.000 C 
ATOM     29  C   UNL     1      53.049   0.500   8.085  0.00  0.00    +0.000 C 
BRANCH  27  30
ATOM     30  C   UNL     1      50.747  -0.457   8.364  0.00  0.00    +0.000 C 
ATOM     31  C   UNL     1      49.787  -1.603   7.927  0.00  0.00    +0.000 C 
ENDBRANCH  27  30
ENDBRANCH  25  27
ENDBRANCH  24  25
ENDBRANCH   3  24
TORSDOF 7
ENDMDL
MODEL 9
REMARK VINA RESULT:      -5.9     25.409     28.787
REMARK  Name = Simvastatin.pdbqt.pdb
REMARK  7 active torsions:
REMARK  status: ('A' for Active; 'I' for Inactive)
REMARK    1  A    between atoms: C_2  and  C_13
REMARK    2  A    between atoms: C_3  and  O_24
REMARK    3  A    between atoms: C_14  and  C_15
REMARK    4  A    between atoms: C_20  and  O_22
REMARK    5  A    between atoms: O_24  and  C_25
REMARK    6  A    between atoms: C_25  and  C_27
REMARK    7  A    between atoms: C_27  and  C_30
REMARK                            x       y       z     vdW  Elec       q    Type
REMARK                         _______ _______ _______ _____ _____    ______ ____
ROOT
ATOM      1  C   UNL     1      41.556  -3.397 -11.818  0.00  0.00    +0.000 A 
ATOM      2  C   UNL     1      40.423  -3.208 -10.832  0.00  0.00    +0.000 A 
ATOM      3  C   UNL     1      42.699  -2.439 -12.027  0.00  0.00    +0.000 A 
ATOM      4  C   UNL     1      39.524  -4.349 -10.511  0.00  0.00    +0.000 A 
ATOM      5  C   UNL     1      41.573  -4.721 -12.612  0.00  0.00    +0.000 A 
ATOM      6  C   UNL     1      43.664  -2.958 -12.957  0.00  0.00    +0.000 A 
ATOM      7  C   UNL     1      43.785  -4.186 -13.681  0.00  0.00    +0.000 A 
ATOM      8  C   UNL     1      42.618  -4.941 -13.354  0.00  0.00    +0.000 A 
ATOM      9  C   UNL     1      39.817  -5.504 -11.293  0.00  0.00    +0.000 A 
ATOM     10  C   UNL     1      40.641  -5.675 -12.147  0.00  0.00    +0.000 A 
ATOM     11  C   UNL     1      38.382  -4.341  -9.542  0.00  0.00    +0.000 C 
ATOM     12  C   UNL     1      45.115  -4.861 -13.787  0.00  0.00    +0.000 C 
ENDROOT
BRANCH   2  13
ATOM     13  C   UNL     1      40.098  -1.891 -10.392  0.00  0.00    +0.000 C 
ATOM     14  C   UNL     1      39.802  -0.480  -9.870  0.00  0.00    +0.000 C 
BRANCH  14  15
ATOM     15  C   UNL     1      39.589   0.824  -9.362  0.00  0.00    +0.000 C 
ATOM     16  O   UNL     1      39.426   0.973  -7.936  0.00  0.00    +0.000 OA
ATOM     17  C   UNL     1      39.159   2.228  -7.381  0.00  0.00    +0.000 C 
ATOM     18  O   UNL     1      39.010   2.429  -6.185  0.00  0.00    +0.000 OA
ATOM     19  C   UNL     1      39.064   3.291  -8.350  0.00  0.00    +0.000 C 
ATOM     20  C   UNL     1      39.180   3.335  -9.756  0.00  0.00    +0.000 C 
ATOM     21  C   UNL     1      39.448   2.003 -10.141  0.00  0.00    +0.000 C 
BRANCH  20  22
ATOM     22  O   UNL     1      38.422   4.186 -10.506  0.00  0.00    +0.000 OA
ATOM     23  H   UNL     1      38.644   5.123 -10.347  0.00  0.00    +0.000 HD
ENDBRANCH  20  22
ENDBRANCH  14  15
ENDBRANCH   2  13
BRANCH   3  24
ATOM     24  O   UNL     1      43.167  -1.814 -10.868  0.00  0.00    +0.000 OA
BRANCH  24  25
ATOM     25  C   UNL     1      43.318  -0.448 -11.027  0.00  0.00    +0.000 C 
ATOM     26  O   UNL     1      42.766   0.198 -11.920  0.00  0.00    +0.000 OA
BRANCH  25  27
ATOM     27  C   UNL     1      44.290   0.139  -9.945  0.00  0.00    +0.000 C 
ATOM     28  C   UNL     1      45.590   0.680 -10.649  0.00  0.00    +0.000 C 
ATOM     29  C   UNL     1      44.707  -0.970  -8.896  0.00  0.00    +0.000 C 
BRANCH  27  30
ATOM     30  C   UNL     1      43.562   1.234  -9.246  0.00  0.00    +0.000 C 
ATOM     31  C   UNL     1      42.790   2.348  -8.479  0.00  0.00    +0.000 C 
ENDBRANCH  27  30
ENDBRANCH  25  27
ENDBRANCH  24  25
ENDBRANCH   3  24
TORSDOF 7
ENDMDL
