MODEL 1
REMARK VINA RESULT:      -8.6      0.000      0.000
REMARK  Name = Staurosporine.pdbqt.pdb
REMARK  2 active torsions:
REMARK  status: ('A' for Active; 'I' for Inactive)
REMARK    1  A    between atoms: C_3  and  O_11
REMARK    2  A    between atoms: C_5  and  N_8
REMARK                            x       y       z     vdW  Elec       q    Type
REMARK                         _______ _______ _______ _____ _____    ______ ____
ROOT
ATOM      1  O   UNL     1      44.169  -2.422  17.811  0.00  0.00    +0.000 OA
ATOM      2  C   UNL     1      43.814  -3.640  17.101  0.00  0.00    +0.000 C 
ATOM      3  C   UNL     1      43.028  -4.672  17.934  0.00  0.00    +0.000 C 
ATOM      4  C   UNL     1      43.101  -1.847  18.481  0.00  0.00    +0.000 C 
ATOM      5  C   UNL     1      42.281  -4.207  19.100  0.00  0.00    +0.000 C 
ATOM      6  C   UNL     1      42.437  -2.818  19.261  0.00  0.00    +0.000 C 
ATOM      7  C   UNL     1      45.206  -4.282  16.777  0.00  0.00    +0.000 C 
ATOM      8  N   UNL     1      43.096  -3.240  15.870  0.00  0.00    +0.000 N 
ATOM      9  C   UNL     1      42.382  -2.110  15.559  0.00  0.00    +0.000 A 
ATOM     10  C   UNL     1      42.036  -1.054  16.409  0.00  0.00    +0.000 A 
ATOM     11  C   UNL     1      41.853  -1.978  14.269  0.00  0.00    +0.000 A 
ATOM     12  N   UNL     1      42.319  -0.986  17.739  0.00  0.00    +0.000 N 
ATOM     13  C   UNL     1      41.201  -0.081  15.840  0.00  0.00    +0.000 A 
ATOM     14  C   UNL     1      41.516   0.110  18.112  0.00  0.00    +0.000 A 
ATOM     15  C   UNL     1      40.861   0.697  16.968  0.00  0.00    +0.000 A 
ATOM     16  C   UNL     1      41.341   0.653  19.396  0.00  0.00    +0.000 A 
ATOM     17  C   UNL     1      40.034   1.818  17.184  0.00  0.00    +0.000 A 
ATOM     18  C   UNL     1      39.873   2.342  18.465  0.00  0.00    +0.000 A 
ATOM     19  C   UNL     1      40.516   1.765  19.551  0.00  0.00    +0.000 A 
ATOM     20  C   UNL     1      40.674   0.066  14.542  0.00  0.00    +0.000 A 
ATOM     21  C   UNL     1      41.052  -0.995  13.672  0.00  0.00    +0.000 A 
ATOM     22  C   UNL     1      39.806   0.996  13.857  0.00  0.00    +0.000 C 
ATOM     23  C   UNL     1      40.396  -0.730  12.364  0.00  0.00    +0.000 C 
ATOM     24  N   UNL     1      39.718   0.418  12.583  0.00  0.00    +0.000 N 
ATOM     25  H   UNL     1      39.165   0.863  11.865  0.00  0.00    +0.000 HD
ATOM     26  O   UNL     1      39.244   2.031  14.184  0.00  0.00    +0.000 OA
ATOM     27  C   UNL     1      42.243  -3.182  13.660  0.00  0.00    +0.000 A 
ATOM     28  C   UNL     1      42.978  -3.945  14.641  0.00  0.00    +0.000 A 
ATOM     29  C   UNL     1      42.042  -3.745  12.382  0.00  0.00    +0.000 A 
ATOM     30  C   UNL     1      43.476  -5.215  14.302  0.00  0.00    +0.000 A 
ATOM     31  C   UNL     1      43.254  -5.728  13.024  0.00  0.00    +0.000 A 
ATOM     32  C   UNL     1      42.550  -5.005  12.076  0.00  0.00    +0.000 A 
ENDROOT
BRANCH   5  33
ATOM     33  N   UNL     1      41.356  -5.007  19.826  0.00  0.00    +0.000 N 
ATOM     34  C   UNL     1      39.973  -4.856  19.430  0.00  0.00    +0.000 C 
ATOM     35  H   UNL     1      41.528  -5.059  20.832  0.00  0.00    +0.000 HD
ENDBRANCH   5  33
BRANCH   3  36
ATOM     36  O   UNL     1      42.638  -5.811  17.262  0.00  0.00    +0.000 OA
ATOM     37  C   UNL     1      43.252  -6.960  17.780  0.00  0.00    +0.000 C 
ENDBRANCH   3  36
TORSDOF 2
ENDMDL
MODEL 2
REMARK VINA RESULT:      -8.3     12.268     14.304
REMARK  Name = Staurosporine.pdbqt.pdb
REMARK  2 active torsions:
REMARK  status: ('A' for Active; 'I' for Inactive)
REMARK    1  A    between atoms: C_3  and  O_11
REMARK    2  A    between atoms: C_5  and  N_8
REMARK                            x       y       z     vdW  Elec       q    Type
REMARK                         _______ _______ _______ _____ _____    ______ ____
ROOT
ATOM      1  O   UNL     1      48.969   2.261   9.690  0.00  0.00    +0.000 OA
ATOM      2  C   UNL     1      49.928   3.280  10.085  0.00  0.00    +0.000 C 
ATOM      3  C   UNL     1      50.908   2.854  11.197  0.00  0.00    +0.000 C 
ATOM      4  C   UNL     1      49.552   1.031   9.429  0.00  0.00    +0.000 C 
ATOM      5  C   UNL     1      51.160   1.429  11.400  0.00  0.00    +0.000 C 
ATOM      6  C   UNL     1      50.406   0.664  10.490  0.00  0.00    +0.000 C 
ATOM      7  C   UNL     1      49.023   4.409  10.684  0.00  0.00    +0.000 C 
ATOM      8  N   UNL     1      50.625   3.729   8.858  0.00  0.00    +0.000 N 
ATOM      9  C   UNL     1      50.840   3.107   7.654  0.00  0.00    +0.000 A 
ATOM     10  C   UNL     1      50.546   1.785   7.308  0.00  0.00    +0.000 A 
ATOM     11  C   UNL     1      51.492   3.814   6.635  0.00  0.00    +0.000 A 
ATOM     12  N   UNL     1      50.020   0.848   8.145  0.00  0.00    +0.000 N 
ATOM     13  C   UNL     1      50.982   1.391   6.034  0.00  0.00    +0.000 A 
ATOM     14  C   UNL     1      50.203  -0.314   7.369  0.00  0.00    +0.000 A 
ATOM     15  C   UNL     1      50.748  -0.001   6.070  0.00  0.00    +0.000 A 
ATOM     16  C   UNL     1      49.892  -1.639   7.716  0.00  0.00    +0.000 A 
ATOM     17  C   UNL     1      50.970  -1.065   5.174  0.00  0.00    +0.000 A 
ATOM     18  C   UNL     1      50.656  -2.373   5.536  0.00  0.00    +0.000 A 
ATOM     19  C   UNL     1      50.128  -2.653   6.788  0.00  0.00    +0.000 A 
ATOM     20  C   UNL     1      51.628   2.097   5.000  0.00  0.00    +0.000 A 
ATOM     21  C   UNL     1      51.899   3.450   5.345  0.00  0.00    +0.000 A 
ATOM     22  C   UNL     1      52.133   1.801   3.679  0.00  0.00    +0.000 C 
ATOM     23  C   UNL     1      52.612   4.053   4.186  0.00  0.00    +0.000 C 
ATOM     24  N   UNL     1      52.690   3.032   3.305  0.00  0.00    +0.000 N 
ATOM     25  H   UNL     1      53.126   3.132   2.400  0.00  0.00    +0.000 HD
ATOM     26  O   UNL     1      52.136   0.801   2.976  0.00  0.00    +0.000 OA
ATOM     27  C   UNL     1      51.766   5.046   7.252  0.00  0.00    +0.000 A 
ATOM     28  C   UNL     1      51.253   4.978   8.600  0.00  0.00    +0.000 A 
ATOM     29  C   UNL     1      52.417   6.226   6.838  0.00  0.00    +0.000 A 
ATOM     30  C   UNL     1      51.408   6.081   9.458  0.00  0.00    +0.000 A 
ATOM     31  C   UNL     1      52.057   7.228   9.002  0.00  0.00    +0.000 A 
ATOM     32  C   UNL     1      52.553   7.303   7.711  0.00  0.00    +0.000 A 
ENDROOT
BRANCH   5  33
ATOM     33  N   UNL     1      52.184   0.912  12.239  0.00  0.00    +0.000 N 
ATOM     34  C   UNL     1      51.749   0.504  13.557  0.00  0.00    +0.000 C 
ATOM     35  H   UNL     1      53.070   1.420  12.200  0.00  0.00    +0.000 HD
ENDBRANCH   5  33
BRANCH   3  36
ATOM     36  O   UNL     1      51.857   3.789  11.547  0.00  0.00    +0.000 OA
ATOM     37  C   UNL     1      51.676   4.252  12.859  0.00  0.00    +0.000 C 
ENDBRANCH   3  36
TORSDOF 2
ENDMDL
MODEL 3
REMARK VINA RESULT:      -8.3      1.676      2.685
REMARK  Name = Staurosporine.pdbqt.pdb
REMARK  2 active torsions:
REMARK  status: ('A' for Active; 'I' for Inactive)
REMARK    1  A    between atoms: C_3  and  O_11
REMARK    2  A    between atoms: C_5  and  N_8
REMARK                            x       y       z     vdW  Elec       q    Type
REMARK                         _______ _______ _______ _____ _____    ______ ____
ROOT
ATOM      1  O   UNL     1      44.122  -2.176  17.494  0.00  0.00    +0.000 OA
ATOM      2  C   UNL     1      43.547  -2.755  16.290  0.00  0.00    +0.000 C 
ATOM      3  C   UNL     1      42.836  -4.107  16.494  0.00  0.00    +0.000 C 
ATOM      4  C   UNL     1      43.240  -2.147  18.562  0.00  0.00    +0.000 C 
ATOM      5  C   UNL     1      42.347  -4.447  17.828  0.00  0.00    +0.000 C 
ATOM      6  C   UNL     1      42.645  -3.414  18.736  0.00  0.00    +0.000 C 
ATOM      7  C   UNL     1      44.801  -3.030  15.392  0.00  0.00    +0.000 C 
ATOM      8  N   UNL     1      42.659  -1.733  15.690  0.00  0.00    +0.000 N 
ATOM      9  C   UNL     1      41.999  -0.664  16.242  0.00  0.00    +0.000 A 
ATOM     10  C   UNL     1      41.897  -0.325  17.595  0.00  0.00    +0.000 A 
ATOM     11  C   UNL     1      41.264   0.184  15.402  0.00  0.00    +0.000 A 
ATOM     12  N   UNL     1      42.415  -1.043  18.629  0.00  0.00    +0.000 N 
ATOM     13  C   UNL     1      41.060   0.765  17.875  0.00  0.00    +0.000 A 
ATOM     14  C   UNL     1      41.784  -0.408  19.718  0.00  0.00    +0.000 A 
ATOM     15  C   UNL     1      40.989   0.716  19.284  0.00  0.00    +0.000 A 
ATOM     16  C   UNL     1      41.884  -0.733  21.081  0.00  0.00    +0.000 A 
ATOM     17  C   UNL     1      40.310   1.463  20.267  0.00  0.00    +0.000 A 
ATOM     18  C   UNL     1      40.422   1.125  21.615  0.00  0.00    +0.000 A 
ATOM     19  C   UNL     1      41.195   0.044  22.011  0.00  0.00    +0.000 A 
ATOM     20  C   UNL     1      40.326   1.629  17.038  0.00  0.00    +0.000 A 
ATOM     21  C   UNL     1      40.456   1.299  15.660  0.00  0.00    +0.000 A 
ATOM     22  C   UNL     1      39.432   2.751  17.207  0.00  0.00    +0.000 C 
ATOM     23  C   UNL     1      39.603   2.259  14.908  0.00  0.00    +0.000 C 
ATOM     24  N   UNL     1      39.074   3.031  15.881  0.00  0.00    +0.000 N 
ATOM     25  H   UNL     1      38.442   3.793  15.681  0.00  0.00    +0.000 HD
ATOM     26  O   UNL     1      39.025   3.373  18.177  0.00  0.00    +0.000 OA
ATOM     27  C   UNL     1      41.438  -0.415  14.144  0.00  0.00    +0.000 A 
ATOM     28  C   UNL     1      42.268  -1.582  14.331  0.00  0.00    +0.000 A 
ATOM     29  C   UNL     1      40.969  -0.124  12.846  0.00  0.00    +0.000 A 
ATOM     30  C   UNL     1      42.591  -2.389  13.227  0.00  0.00    +0.000 A 
ATOM     31  C   UNL     1      42.105  -2.058  11.961  0.00  0.00    +0.000 A 
ATOM     32  C   UNL     1      41.308  -0.942  11.771  0.00  0.00    +0.000 A 
ENDROOT
BRANCH   5  33
ATOM     33  N   UNL     1      41.501  -5.554  18.110  0.00  0.00    +0.000 N 
ATOM     34  C   UNL     1      41.394  -5.903  19.509  0.00  0.00    +0.000 C 
ATOM     35  H   UNL     1      41.587  -6.339  17.460  0.00  0.00    +0.000 HD
ENDBRANCH   5  33
BRANCH   3  36
ATOM     36  O   UNL     1      42.240  -4.644  15.373  0.00  0.00    +0.000 OA
ATOM     37  C   UNL     1      42.857  -5.839  14.974  0.00  0.00    +0.000 C 
ENDBRANCH   3  36
TORSDOF 2
ENDMDL
MODEL 4
REMARK VINA RESULT:      -8.2     17.700     21.790
REMARK  Name = Staurosporine.pdbqt.pdb
REMARK  2 active torsions:
REMARK  status: ('A' for Active; 'I' for Inactive)
REMARK    1  A    between atoms: C_3  and  O_11
REMARK    2  A    between atoms: C_5  and  N_8
REMARK                            x       y       z     vdW  Elec       q    Type
REMARK                         _______ _______ _______ _____ _____    ______ ____
ROOT
ATOM      1  O   UNL     1      32.363  17.823  22.228  0.00  0.00    +0.000 OA
ATOM      2  C   UNL     1      32.321  16.466  21.708  0.00  0.00    +0.000 C 
ATOM      3  C   UNL     1      31.245  16.215  20.632  0.00  0.00    +0.000 C 
ATOM      4  C   UNL     1      32.382  18.790  21.235  0.00  0.00    +0.000 C 
ATOM      5  C   UNL     1      30.736  17.355  19.873  0.00  0.00    +0.000 C 
ATOM      6  C   UNL     1      31.356  18.544  20.299  0.00  0.00    +0.000 C 
ATOM      7  C   UNL     1      31.919  15.616  22.960  0.00  0.00    +0.000 C 
ATOM      8  N   UNL     1      33.683  16.132  21.234  0.00  0.00    +0.000 N 
ATOM      9  C   UNL     1      34.721  16.926  20.814  0.00  0.00    +0.000 A 
ATOM     10  C   UNL     1      34.711  18.309  20.603  0.00  0.00    +0.000 A 
ATOM     11  C   UNL     1      35.939  16.323  20.474  0.00  0.00    +0.000 A 
ATOM     12  N   UNL     1      33.627  19.120  20.742  0.00  0.00    +0.000 N 
ATOM     13  C   UNL     1      35.892  18.837  20.062  0.00  0.00    +0.000 A 
ATOM     14  C   UNL     1      34.118  20.301  20.150  0.00  0.00    +0.000 A 
ATOM     15  C   UNL     1      35.503  20.162  19.767  0.00  0.00    +0.000 A 
ATOM     16  C   UNL     1      33.437  21.512  19.949  0.00  0.00    +0.000 A 
ATOM     17  C   UNL     1      36.139  21.271  19.176  0.00  0.00    +0.000 A 
ATOM     18  C   UNL     1      35.446  22.465  18.984  0.00  0.00    +0.000 A 
ATOM     19  C   UNL     1      34.117  22.580  19.363  0.00  0.00    +0.000 A 
ATOM     20  C   UNL     1      37.125  18.241  19.728  0.00  0.00    +0.000 A 
ATOM     21  C   UNL     1      37.141  16.839  19.971  0.00  0.00    +0.000 A 
ATOM     22  C   UNL     1      38.381  18.670  19.159  0.00  0.00    +0.000 C 
ATOM     23  C   UNL     1      38.475  16.345  19.538  0.00  0.00    +0.000 C 
ATOM     24  N   UNL     1      39.091  17.463  19.096  0.00  0.00    +0.000 N 
ATOM     25  H   UNL     1      40.034  17.452  18.734  0.00  0.00    +0.000 HD
ATOM     26  O   UNL     1      38.824  19.749  18.794  0.00  0.00    +0.000 OA
ATOM     27  C   UNL     1      35.663  14.959  20.668  0.00  0.00    +0.000 A 
ATOM     28  C   UNL     1      34.293  14.854  21.111  0.00  0.00    +0.000 A 
ATOM     29  C   UNL     1      36.410  13.775  20.500  0.00  0.00    +0.000 A 
ATOM     30  C   UNL     1      33.742  13.586  21.366  0.00  0.00    +0.000 A 
ATOM     31  C   UNL     1      34.521  12.443  21.187  0.00  0.00    +0.000 A 
ATOM     32  C   UNL     1      35.836  12.533  20.763  0.00  0.00    +0.000 A 
ENDROOT
BRANCH   5  33
ATOM     33  N   UNL     1      29.906  17.241  18.724  0.00  0.00    +0.000 N 
ATOM     34  C   UNL     1      30.606  17.250  17.458  0.00  0.00    +0.000 C 
ATOM     35  H   UNL     1      29.043  17.788  18.760  0.00  0.00    +0.000 HD
ENDBRANCH   5  33
BRANCH   3  36
ATOM     36  O   UNL     1      31.225  14.948  20.091  0.00  0.00    +0.000 OA
ATOM     37  C   UNL     1      30.024  14.278  20.372  0.00  0.00    +0.000 C 
ENDBRANCH   3  36
TORSDOF 2
ENDMDL
MODEL 5
REMARK VINA RESULT:      -7.8     13.259     15.115
REMARK  Name = Staurosporine.pdbqt.pdb
REMARK  2 active torsions:
REMARK  status: ('A' for Active; 'I' for Inactive)
REMARK    1  A    between atoms: C_3  and  O_11
REMARK    2  A    between atoms: C_5  and  N_8
REMARK                            x       y       z     vdW  Elec       q    Type
REMARK                         _______ _______ _______ _____ _____    ______ ____
ROOT
ATOM      1  O   UNL     1      49.856   1.801   8.348  0.00  0.00    +0.000 OA
ATOM      2  C   UNL     1      50.357   2.264   9.633  0.00  0.00    +0.000 C 
ATOM      3  C   UNL     1      51.464   1.388  10.252  0.00  0.00    +0.000 C 
ATOM      4  C   UNL     1      50.861   1.511   7.440  0.00  0.00    +0.000 C 
ATOM      5  C   UNL     1      52.257   0.535   9.370  0.00  0.00    +0.000 C 
ATOM      6  C   UNL     1      51.828   0.675   8.037  0.00  0.00    +0.000 C 
ATOM      7  C   UNL     1      49.106   2.145  10.568  0.00  0.00    +0.000 C 
ATOM      8  N   UNL     1      50.779   3.672   9.460  0.00  0.00    +0.000 N 
ATOM      9  C   UNL     1      51.176   4.374   8.349  0.00  0.00    +0.000 A 
ATOM     10  C   UNL     1      51.407   3.880   7.061  0.00  0.00    +0.000 A 
ATOM     11  C   UNL     1      51.465   5.739   8.480  0.00  0.00    +0.000 A 
ATOM     12  N   UNL     1      51.317   2.574   6.689  0.00  0.00    +0.000 N 
ATOM     13  C   UNL     1      51.916   4.816   6.148  0.00  0.00    +0.000 A 
ATOM     14  C   UNL     1      51.910   2.635   5.412  0.00  0.00    +0.000 A 
ATOM     15  C   UNL     1      52.243   3.991   5.049  0.00  0.00    +0.000 A 
ATOM     16  C   UNL     1      52.152   1.575   4.523  0.00  0.00    +0.000 A 
ATOM     17  C   UNL     1      52.829   4.212   3.787  0.00  0.00    +0.000 A 
ATOM     18  C   UNL     1      53.062   3.147   2.919  0.00  0.00    +0.000 A 
ATOM     19  C   UNL     1      52.729   1.851   3.284  0.00  0.00    +0.000 A 
ATOM     20  C   UNL     1      52.199   6.190   6.266  0.00  0.00    +0.000 A 
ATOM     21  C   UNL     1      51.935   6.695   7.570  0.00  0.00    +0.000 A 
ATOM     22  C   UNL     1      52.732   7.232   5.419  0.00  0.00    +0.000 C 
ATOM     23  C   UNL     1      52.315   8.133   7.557  0.00  0.00    +0.000 C 
ATOM     24  N   UNL     1      52.752   8.327   6.294  0.00  0.00    +0.000 N 
ATOM     25  H   UNL     1      53.082   9.225   5.969  0.00  0.00    +0.000 HD
ATOM     26  O   UNL     1      53.098   7.275   4.253  0.00  0.00    +0.000 OA
ATOM     27  C   UNL     1      51.260   5.959   9.851  0.00  0.00    +0.000 A 
ATOM     28  C   UNL     1      50.863   4.702  10.437  0.00  0.00    +0.000 A 
ATOM     29  C   UNL     1      51.385   7.084  10.692  0.00  0.00    +0.000 A 
ATOM     30  C   UNL     1      50.608   4.628  11.818  0.00  0.00    +0.000 A 
ATOM     31  C   UNL     1      50.742   5.769  12.609  0.00  0.00    +0.000 A 
ATOM     32  C   UNL     1      51.124   6.981  12.057  0.00  0.00    +0.000 A 
ENDROOT
BRANCH   5  33
ATOM     33  N   UNL     1      53.431  -0.157   9.774  0.00  0.00    +0.000 N 
ATOM     34  C   UNL     1      53.865  -1.205   8.877  0.00  0.00    +0.000 C 
ATOM     35  H   UNL     1      53.481  -0.376  10.772  0.00  0.00    +0.000 HD
ENDBRANCH   5  33
BRANCH   3  36
ATOM     36  O   UNL     1      51.987   1.840  11.444  0.00  0.00    +0.000 OA
ATOM     37  C   UNL     1      51.714   0.960  12.502  0.00  0.00    +0.000 C 
ENDBRANCH   3  36
TORSDOF 2
ENDMDL
MODEL 6
REMARK VINA RESULT:      -7.6     13.665     16.037
REMARK  Name = Staurosporine.pdbqt.pdb
REMARK  2 active torsions:
REMARK  status: ('A' for Active; 'I' for Inactive)
REMARK    1  A    between atoms: C_3  and  O_11
REMARK    2  A    between atoms: C_5  and  N_8
REMARK                            x       y       z     vdW  Elec       q    Type
REMARK                         _______ _______ _______ _____ _____    ______ ____
ROOT
ATOM      1  O   UNL     1      54.244   5.309   7.193  0.00  0.00    +0.000 OA
ATOM      2  C   UNL     1      53.583   6.322   8.001  0.00  0.00    +0.000 C 
ATOM      3  C   UNL     1      52.966   7.488   7.203  0.00  0.00    +0.000 C 
ATOM      4  C   UNL     1      53.473   4.865   6.131  0.00  0.00    +0.000 C 
ATOM      5  C   UNL     1      52.631   7.275   5.797  0.00  0.00    +0.000 C 
ATOM      6  C   UNL     1      52.965   5.964   5.407  0.00  0.00    +0.000 C 
ATOM      7  C   UNL     1      54.753   6.921   8.852  0.00  0.00    +0.000 C 
ATOM      8  N   UNL     1      52.587   5.628   8.850  0.00  0.00    +0.000 N 
ATOM      9  C   UNL     1      51.931   4.433   8.692  0.00  0.00    +0.000 A 
ATOM     10  C   UNL     1      51.948   3.587   7.579  0.00  0.00    +0.000 A 
ATOM     11  C   UNL     1      51.073   3.994   9.709  0.00  0.00    +0.000 A 
ATOM     12  N   UNL     1      52.603   3.832   6.411  0.00  0.00    +0.000 N 
ATOM     13  C   UNL     1      51.088   2.482   7.659  0.00  0.00    +0.000 A 
ATOM     14  C   UNL     1      52.052   2.823   5.596  0.00  0.00    +0.000 A 
ATOM     15  C   UNL     1      51.161   1.969   6.345  0.00  0.00    +0.000 A 
ATOM     16  C   UNL     1      52.304   2.579   4.236  0.00  0.00    +0.000 A 
ATOM     17  C   UNL     1      50.546   0.899   5.665  0.00  0.00    +0.000 A 
ATOM     18  C   UNL     1      50.809   0.674   4.315  0.00  0.00    +0.000 A 
ATOM     19  C   UNL     1      51.672   1.503   3.615  0.00  0.00    +0.000 A 
ATOM     20  C   UNL     1      50.231   2.026   8.680  0.00  0.00    +0.000 A 
ATOM     21  C   UNL     1      50.239   2.874   9.822  0.00  0.00    +0.000 A 
ATOM     22  C   UNL     1      49.302   0.935   8.866  0.00  0.00    +0.000 C 
ATOM     23  C   UNL     1      49.267   2.297  10.790  0.00  0.00    +0.000 C 
ATOM     24  N   UNL     1      48.798   1.206  10.146  0.00  0.00    +0.000 N 
ATOM     25  H   UNL     1      48.111   0.591  10.557  0.00  0.00    +0.000 HD
ATOM     26  O   UNL     1      48.962  -0.017   8.179  0.00  0.00    +0.000 OA
ATOM     27  C   UNL     1      51.152   5.041  10.642  0.00  0.00    +0.000 A 
ATOM     28  C   UNL     1      52.056   6.031  10.106  0.00  0.00    +0.000 A 
ATOM     29  C   UNL     1      50.542   5.291  11.888  0.00  0.00    +0.000 A 
ATOM     30  C   UNL     1      52.308   7.207  10.832  0.00  0.00    +0.000 A 
ATOM     31  C   UNL     1      51.682   7.409  12.063  0.00  0.00    +0.000 A 
ATOM     32  C   UNL     1      50.813   6.466  12.586  0.00  0.00    +0.000 A 
ENDROOT
BRANCH   5  33
ATOM     33  N   UNL     1      51.876   8.186   5.010  0.00  0.00    +0.000 N 
ATOM     34  C   UNL     1      52.639   8.935   4.036  0.00  0.00    +0.000 C 
ATOM     35  H   UNL     1      51.168   8.716   5.524  0.00  0.00    +0.000 HD
ENDBRANCH   5  33
BRANCH   3  36
ATOM     36  O   UNL     1      52.289   8.430   7.948  0.00  0.00    +0.000 OA
ATOM     37  C   UNL     1      50.914   8.427   7.670  0.00  0.00    +0.000 C 
ENDBRANCH   3  36
TORSDOF 2
ENDMDL
MODEL 7
REMARK VINA RESULT:      -7.4      1.834      2.781
REMARK  Name = Staurosporine.pdbqt.pdb
REMARK  2 active torsions:
REMARK  status: ('A' for Active; 'I' for Inactive)
REMARK    1  A    between atoms: C_3  and  O_11
REMARK    2  A    between atoms: C_5  and  N_8
REMARK                            x       y       z     vdW  Elec       q    Type
REMARK                         _______ _______ _______ _____ _____    ______ ____
ROOT
ATOM      1  O   UNL     1      43.443  -0.156  19.696  0.00  0.00    +0.000 OA
ATOM      2  C   UNL     1      43.604  -1.594  19.560  0.00  0.00    +0.000 C 
ATOM      3  C   UNL     1      42.642  -2.440  20.419  0.00  0.00    +0.000 C 
ATOM      4  C   UNL     1      42.127   0.263  19.573  0.00  0.00    +0.000 C 
ATOM      5  C   UNL     1      41.389  -1.837  20.865  0.00  0.00    +0.000 C 
ATOM      6  C   UNL     1      41.292  -0.511  20.407  0.00  0.00    +0.000 C 
ATOM      7  C   UNL     1      45.048  -1.846  20.111  0.00  0.00    +0.000 C 
ATOM      8  N   UNL     1      43.505  -1.915  18.118  0.00  0.00    +0.000 N 
ATOM      9  C   UNL     1      42.896  -1.257  17.079  0.00  0.00    +0.000 A 
ATOM     10  C   UNL     1      42.074  -0.127  17.144  0.00  0.00    +0.000 A 
ATOM     11  C   UNL     1      43.022  -1.776  15.783  0.00  0.00    +0.000 A 
ATOM     12  N   UNL     1      41.692   0.506  18.287  0.00  0.00    +0.000 N 
ATOM     13  C   UNL     1      41.498   0.261  15.925  0.00  0.00    +0.000 A 
ATOM     14  C   UNL     1      40.688   1.355  17.781  0.00  0.00    +0.000 A 
ATOM     15  C   UNL     1      40.583   1.251  16.345  0.00  0.00    +0.000 A 
ATOM     16  C   UNL     1      39.872   2.246  18.497  0.00  0.00    +0.000 A 
ATOM     17  C   UNL     1      39.629   2.057  15.693  0.00  0.00    +0.000 A 
ATOM     18  C   UNL     1      38.828   2.935  16.421  0.00  0.00    +0.000 A 
ATOM     19  C   UNL     1      38.948   3.024  17.800  0.00  0.00    +0.000 A 
ATOM     20  C   UNL     1      41.627  -0.247  14.618  0.00  0.00    +0.000 A 
ATOM     21  C   UNL     1      42.487  -1.378  14.551  0.00  0.00    +0.000 A 
ATOM     22  C   UNL     1      41.082   0.051  13.314  0.00  0.00    +0.000 C 
ATOM     23  C   UNL     1      42.495  -1.827  13.132  0.00  0.00    +0.000 C 
ATOM     24  N   UNL     1      41.667  -0.949  12.525  0.00  0.00    +0.000 N 
ATOM     25  H   UNL     1      41.468  -0.992  11.536  0.00  0.00    +0.000 HD
ATOM     26  O   UNL     1      40.318   0.905  12.888  0.00  0.00    +0.000 OA
ATOM     27  C   UNL     1      43.786  -2.935  15.997  0.00  0.00    +0.000 A 
ATOM     28  C   UNL     1      44.058  -3.019  17.413  0.00  0.00    +0.000 A 
ATOM     29  C   UNL     1      44.273  -3.957  15.157  0.00  0.00    +0.000 A 
ATOM     30  C   UNL     1      44.798  -4.103  17.915  0.00  0.00    +0.000 A 
ATOM     31  C   UNL     1      45.261  -5.089  17.043  0.00  0.00    +0.000 A 
ATOM     32  C   UNL     1      45.005  -5.019  15.684  0.00  0.00    +0.000 A 
ENDROOT
BRANCH   5  33
ATOM     33  N   UNL     1      40.330  -2.561  21.479  0.00  0.00    +0.000 N 
ATOM     34  C   UNL     1      39.002  -2.059  21.201  0.00  0.00    +0.000 C 
ATOM     35  H   UNL     1      40.505  -2.845  22.445  0.00  0.00    +0.000 HD
ENDBRANCH   5  33
BRANCH   3  36
ATOM     36  O   UNL     1      42.746  -3.806  20.263  0.00  0.00    +0.000 OA
ATOM     37  C   UNL     1      41.616  -4.347  19.632  0.00  0.00    +0.000 C 
ENDBRANCH   3  36
TORSDOF 2
ENDMDL
MODEL 8
REMARK VINA RESULT:      -7.3     17.185     20.055
REMARK  Name = Staurosporine.pdbqt.pdb
REMARK  2 active torsions:
REMARK  status: ('A' for Active; 'I' for Inactive)
REMARK    1  A    between atoms: C_3  and  O_11
REMARK    2  A    between atoms: C_5  and  N_8
REMARK                            x       y       z     vdW  Elec       q    Type
REMARK                         _______ _______ _______ _____ _____    ______ ____
ROOT
ATOM      1  O   UNL     1      34.565  12.519  20.416  0.00  0.00    +0.000 OA
ATOM      2  C   UNL     1      33.505  12.416  21.407  0.00  0.00    +0.000 C 
ATOM      3  C   UNL     1      33.985  12.165  22.850  0.00  0.00    +0.000 C 
ATOM      4  C   UNL     1      35.579  13.386  20.787  0.00  0.00    +0.000 C 
ATOM      5  C   UNL     1      35.350  12.543  23.209  0.00  0.00    +0.000 C 
ATOM      6  C   UNL     1      36.015  13.092  22.096  0.00  0.00    +0.000 C 
ATOM      7  C   UNL     1      32.720  11.137  20.959  0.00  0.00    +0.000 C 
ATOM      8  N   UNL     1      32.674  13.637  21.291  0.00  0.00    +0.000 N 
ATOM      9  C   UNL     1      32.961  14.892  20.816  0.00  0.00    +0.000 A 
ATOM     10  C   UNL     1      34.204  15.392  20.413  0.00  0.00    +0.000 A 
ATOM     11  C   UNL     1      31.938  15.849  20.773  0.00  0.00    +0.000 A 
ATOM     12  N   UNL     1      35.383  14.713  20.466  0.00  0.00    +0.000 N 
ATOM     13  C   UNL     1      34.216  16.754  20.077  0.00  0.00    +0.000 A 
ATOM     14  C   UNL     1      36.289  15.763  20.217  0.00  0.00    +0.000 A 
ATOM     15  C   UNL     1      35.600  17.000  19.939  0.00  0.00    +0.000 A 
ATOM     16  C   UNL     1      37.692  15.701  20.186  0.00  0.00    +0.000 A 
ATOM     17  C   UNL     1      36.378  18.139  19.651  0.00  0.00    +0.000 A 
ATOM     18  C   UNL     1      37.769  18.057  19.626  0.00  0.00    +0.000 A 
ATOM     19  C   UNL     1      38.412  16.857  19.891  0.00  0.00    +0.000 A 
ATOM     20  C   UNL     1      33.193  17.720  20.020  0.00  0.00    +0.000 A 
ATOM     21  C   UNL     1      31.925  17.200  20.402  0.00  0.00    +0.000 A 
ATOM     22  C   UNL     1      33.090  19.128  19.712  0.00  0.00    +0.000 C 
ATOM     23  C   UNL     1      30.960  18.330  20.334  0.00  0.00    +0.000 C 
ATOM     24  N   UNL     1      31.727  19.368  19.935  0.00  0.00    +0.000 N 
ATOM     25  H   UNL     1      31.349  20.294  19.790  0.00  0.00    +0.000 HD
ATOM     26  O   UNL     1      33.889  19.978  19.349  0.00  0.00    +0.000 OA
ATOM     27  C   UNL     1      30.848  15.147  21.311  0.00  0.00    +0.000 A 
ATOM     28  C   UNL     1      31.307  13.818  21.637  0.00  0.00    +0.000 A 
ATOM     29  C   UNL     1      29.507  15.484  21.591  0.00  0.00    +0.000 A 
ATOM     30  C   UNL     1      30.415  12.897  22.215  0.00  0.00    +0.000 A 
ATOM     31  C   UNL     1      29.097  13.276  22.471  0.00  0.00    +0.000 A 
ATOM     32  C   UNL     1      28.647  14.549  22.163  0.00  0.00    +0.000 A 
ENDROOT
BRANCH   5  33
ATOM     33  N   UNL     1      35.849  12.560  24.539  0.00  0.00    +0.000 N 
ATOM     34  C   UNL     1      36.255  11.272  25.058  0.00  0.00    +0.000 C 
ATOM     35  H   UNL     1      35.331  13.157  25.187  0.00  0.00    +0.000 HD
ENDBRANCH   5  33
BRANCH   3  36
ATOM     36  O   UNL     1      32.997  12.118  23.810  0.00  0.00    +0.000 OA
ATOM     37  C   UNL     1      32.787  10.813  24.279  0.00  0.00    +0.000 C 
ENDBRANCH   3  36
TORSDOF 2
ENDMDL
MODEL 9
REMARK VINA RESULT:      -7.0      2.339      4.764
REMARK  Name = Staurosporine.pdbqt.pdb
REMARK  2 active torsions:
REMARK  status: ('A' for Active; 'I' for Inactive)
REMARK    1  A    between atoms: C_3  and  O_11
REMARK    2  A    between atoms: C_5  and  N_8
REMARK                            x       y       z     vdW  Elec       q    Type
REMARK                         _______ _______ _______ _____ _____    ______ ____
ROOT
ATOM      1  O   UNL     1      43.089   0.660  18.697  0.00  0.00    +0.000 OA
ATOM      2  C   UNL     1      43.257  -0.523  19.525  0.00  0.00    +0.000 C 
ATOM      3  C   UNL     1      42.064  -0.848  20.445  0.00  0.00    +0.000 C 
ATOM      4  C   UNL     1      41.883   0.685  18.015  0.00  0.00    +0.000 C 
ATOM      5  C   UNL     1      40.745  -0.330  20.089  0.00  0.00    +0.000 C 
ATOM      6  C   UNL     1      40.818   0.424  18.903  0.00  0.00    +0.000 C 
ATOM      7  C   UNL     1      44.458  -0.139  20.455  0.00  0.00    +0.000 C 
ATOM      8  N   UNL     1      43.600  -1.647  18.624  0.00  0.00    +0.000 N 
ATOM      9  C   UNL     1      43.352  -1.852  17.290  0.00  0.00    +0.000 A 
ATOM     10  C   UNL     1      42.571  -1.071  16.433  0.00  0.00    +0.000 A 
ATOM     11  C   UNL     1      43.860  -3.006  16.678  0.00  0.00    +0.000 A 
ATOM     12  N   UNL     1      41.868   0.037  16.797  0.00  0.00    +0.000 N 
ATOM     13  C   UNL     1      42.404  -1.589  15.141  0.00  0.00    +0.000 A 
ATOM     14  C   UNL     1      41.083   0.228  15.642  0.00  0.00    +0.000 A 
ATOM     15  C   UNL     1      41.422  -0.723  14.611  0.00  0.00    +0.000 A 
ATOM     16  C   UNL     1      40.103   1.209  15.419  0.00  0.00    +0.000 A 
ATOM     17  C   UNL     1      40.730  -0.643  13.386  0.00  0.00    +0.000 A 
ATOM     18  C   UNL     1      39.761   0.337  13.184  0.00  0.00    +0.000 A 
ATOM     19  C   UNL     1      39.453   1.245  14.186  0.00  0.00    +0.000 A 
ATOM     20  C   UNL     1      42.919  -2.740  14.513  0.00  0.00    +0.000 A 
ATOM     21  C   UNL     1      43.738  -3.517  15.379  0.00  0.00    +0.000 A 
ATOM     22  C   UNL     1      42.806  -3.374  13.220  0.00  0.00    +0.000 C 
ATOM     23  C   UNL     1      44.172  -4.709  14.603  0.00  0.00    +0.000 C 
ATOM     24  N   UNL     1      43.587  -4.525  13.399  0.00  0.00    +0.000 N 
ATOM     25  H   UNL     1      43.700  -5.179  12.638  0.00  0.00    +0.000 HD
ATOM     26  O   UNL     1      42.226  -3.090  12.183  0.00  0.00    +0.000 OA
ATOM     27  C   UNL     1      44.500  -3.655  17.746  0.00  0.00    +0.000 A 
ATOM     28  C   UNL     1      44.323  -2.835  18.921  0.00  0.00    +0.000 A 
ATOM     29  C   UNL     1      45.203  -4.871  17.874  0.00  0.00    +0.000 A 
ATOM     30  C   UNL     1      44.853  -3.259  20.151  0.00  0.00    +0.000 A 
ATOM     31  C   UNL     1      45.543  -4.469  20.228  0.00  0.00    +0.000 A 
ATOM     32  C   UNL     1      45.719  -5.264  19.108  0.00  0.00    +0.000 A 
ENDROOT
BRANCH   5  33
ATOM     33  N   UNL     1      39.536  -0.722  20.726  0.00  0.00    +0.000 N 
ATOM     34  C   UNL     1      39.182   0.048  21.898  0.00  0.00    +0.000 C 
ATOM     35  H   UNL     1      39.394  -1.732  20.798  0.00  0.00    +0.000 HD
ENDBRANCH   5  33
BRANCH   3  36
ATOM     36  O   UNL     1      42.185  -1.996  21.199  0.00  0.00    +0.000 OA
ATOM     37  C   UNL     1      41.286  -2.990  20.785  0.00  0.00    +0.000 C 
ENDBRANCH   3  36
TORSDOF 2
ENDMDL
