REMARK  Name = Testosterone.pdbqt.pdb
REMARK  1 active torsions:
REMARK  status: ('A' for Active; 'I' for Inactive)
REMARK    1  A    between atoms: C_9  and  O_21
REMARK                            x       y       z     vdW  Elec       q    Type
REMARK                         _______ _______ _______ _____ _____    ______ ____
ROOT
ATOM      1  O   UNL     1       5.299  -0.394   1.757  0.00  0.00    +0.000 OA
ATOM      2  C   UNL     1      -2.057  -0.852  -0.314  0.00  0.00    +0.000 C 
ATOM      3  C   UNL     1      -3.001   0.441  -0.384  0.00  0.00    +0.000 C 
ATOM      4  C   UNL     1      -0.596  -0.753  -0.504  0.00  0.00    +0.000 C 
ATOM      5  C   UNL     1       0.218   0.511  -0.467  0.00  0.00    +0.000 C 
ATOM      6  C   UNL     1       1.733   0.570  -0.762  0.00  0.00    +0.000 C 
ATOM      7  C   UNL     1      -2.118   1.591  -0.181  0.00  0.00    +0.000 C 
ATOM      8  C   UNL     1      -0.611   1.645  -0.243  0.00  0.00    +0.000 C 
ATOM      9  C   UNL     1      -3.982   0.240   0.796  0.00  0.00    +0.000 C 
ATOM     10  C   UNL     1      -2.580  -1.684   0.729  0.00  0.00    +0.000 C 
ATOM     11  C   UNL     1       0.208  -1.913  -0.593  0.00  0.00    +0.000 C 
ATOM     12  C   UNL     1      -3.718  -0.998   1.443  0.00  0.00    +0.000 C 
ATOM     13  C   UNL     1       2.537  -0.870  -0.614  0.00  0.00    +0.000 C 
ATOM     14  C   UNL     1       1.702  -2.014  -0.648  0.00  0.00    +0.000 C 
ATOM     15  C   UNL     1      -3.763   0.478  -1.732  0.00  0.00    +0.000 C 
ATOM     16  C   UNL     1       2.426   1.443   0.243  0.00  0.00    +0.000 C 
ATOM     17  C   UNL     1       1.965   1.071  -2.214  0.00  0.00    +0.000 C 
ATOM     18  C   UNL     1       3.664   1.225   1.143  0.00  0.00    +0.000 C 
ATOM     19  C   UNL     1       3.596  -0.902   0.168  0.00  0.00    +0.000 C 
ATOM     20  C   UNL     1       4.331  -0.061   1.101  0.00  0.00    +0.000 C 
ENDROOT
BRANCH   9  21
ATOM     21  O   UNL     1      -5.263   0.761   0.786  0.00  0.00    +0.000 OA
ATOM     22  H   UNL     1      -5.439   1.256  -0.038  0.00  0.00    +0.000 HD
ENDBRANCH   9  21
TORSDOF 1
