MODEL 1
REMARK VINA RESULT:      -5.9      0.000      0.000
REMARK  Name = Testosterone.pdbqt.pdb
REMARK  1 active torsions:
REMARK  status: ('A' for Active; 'I' for Inactive)
REMARK    1  A    between atoms: C_9  and  O_21
REMARK                            x       y       z     vdW  Elec       q    Type
REMARK                         _______ _______ _______ _____ _____    ______ ____
ROOT
ATOM      1  O   UNL     1      50.411  -6.256   2.740  0.00  0.00    +0.000 OA
ATOM      2  C   UNL     1      50.645   0.151   6.923  0.00  0.00    +0.000 C 
ATOM      3  C   UNL     1      49.904   0.268   8.339  0.00  0.00    +0.000 C 
ATOM      4  C   UNL     1      51.114  -1.148   6.401  0.00  0.00    +0.000 C 
ATOM      5  C   UNL     1      50.713  -2.504   6.913  0.00  0.00    +0.000 C 
ATOM      6  C   UNL     1      51.303  -3.832   6.390  0.00  0.00    +0.000 C 
ATOM      7  C   UNL     1      49.427  -1.080   8.652  0.00  0.00    +0.000 C 
ATOM      8  C   UNL     1      49.816  -2.390   8.011  0.00  0.00    +0.000 C 
ATOM      9  C   UNL     1      48.741   1.251   8.061  0.00  0.00    +0.000 C 
ATOM     10  C   UNL     1      49.991   1.073   6.042  0.00  0.00    +0.000 C 
ATOM     11  C   UNL     1      51.899  -1.222   5.228  0.00  0.00    +0.000 C 
ATOM     12  C   UNL     1      48.797   1.704   6.715  0.00  0.00    +0.000 C 
ATOM     13  C   UNL     1      52.009  -3.750   4.894  0.00  0.00    +0.000 C 
ATOM     14  C   UNL     1      52.349  -2.439   4.478  0.00  0.00    +0.000 C 
ATOM     15  C   UNL     1      50.868   0.845   9.405  0.00  0.00    +0.000 C 
ATOM     16  C   UNL     1      50.212  -4.843   6.187  0.00  0.00    +0.000 C 
ATOM     17  C   UNL     1      52.388  -4.348   7.375  0.00  0.00    +0.000 C 
ATOM     18  C   UNL     1      49.829  -5.745   4.992  0.00  0.00    +0.000 C 
ATOM     19  C   UNL     1      51.601  -4.602   3.977  0.00  0.00    +0.000 C 
ATOM     20  C   UNL     1      50.597  -5.635   3.768  0.00  0.00    +0.000 C 
ENDROOT
BRANCH   9  21
ATOM     21  O   UNL     1      48.211   2.063   9.048  0.00  0.00    +0.000 OA
ATOM     22  H   UNL     1      48.752   2.867   9.175  0.00  0.00    +0.000 HD
ENDBRANCH   9  21
TORSDOF 1
ENDMDL
MODEL 2
REMARK VINA RESULT:      -5.7      6.961     10.645
REMARK  Name = Testosterone.pdbqt.pdb
REMARK  1 active torsions:
REMARK  status: ('A' for Active; 'I' for Inactive)
REMARK    1  A    between atoms: C_9  and  O_21
REMARK                            x       y       z     vdW  Elec       q    Type
REMARK                         _______ _______ _______ _____ _____    ______ ____
ROOT
ATOM      1  O   UNL     1      50.336   1.870   8.828  0.00  0.00    +0.000 OA
ATOM      2  C   UNL     1      52.653   7.111  13.904  0.00  0.00    +0.000 C 
ATOM      3  C   UNL     1      53.986   7.973  13.686  0.00  0.00    +0.000 C 
ATOM      4  C   UNL     1      51.887   6.571  12.763  0.00  0.00    +0.000 C 
ATOM      5  C   UNL     1      52.370   6.465  11.343  0.00  0.00    +0.000 C 
ATOM      6  C   UNL     1      51.495   5.975  10.169  0.00  0.00    +0.000 C 
ATOM      7  C   UNL     1      54.442   7.666  12.329  0.00  0.00    +0.000 C 
ATOM      8  C   UNL     1      53.688   6.985  11.213  0.00  0.00    +0.000 C 
ATOM      9  C   UNL     1      54.952   7.428  14.765  0.00  0.00    +0.000 C 
ATOM     10  C   UNL     1      52.881   6.290  15.056  0.00  0.00    +0.000 C 
ATOM     11  C   UNL     1      50.634   5.945  12.957  0.00  0.00    +0.000 C 
ATOM     12  C   UNL     1      54.298   6.440  15.550  0.00  0.00    +0.000 C 
ATOM     13  C   UNL     1      50.171   5.080  10.602  0.00  0.00    +0.000 C 
ATOM     14  C   UNL     1      49.783   5.224  11.957  0.00  0.00    +0.000 C 
ATOM     15  C   UNL     1      53.698   9.477  13.915  0.00  0.00    +0.000 C 
ATOM     16  C   UNL     1      52.270   5.025   9.302  0.00  0.00    +0.000 C 
ATOM     17  C   UNL     1      50.973   7.194   9.360  0.00  0.00    +0.000 C 
ATOM     18  C   UNL     1      51.961   3.609   8.764  0.00  0.00    +0.000 C 
ATOM     19  C   UNL     1      50.020   3.899  10.039  0.00  0.00    +0.000 C 
ATOM     20  C   UNL     1      50.714   2.980   9.150  0.00  0.00    +0.000 C 
ENDROOT
BRANCH   9  21
ATOM     21  O   UNL     1      55.953   8.206  15.319  0.00  0.00    +0.000 OA
ATOM     22  H   UNL     1      56.105   7.976  16.256  0.00  0.00    +0.000 HD
ENDBRANCH   9  21
TORSDOF 1
ENDMDL
MODEL 3
REMARK VINA RESULT:      -5.6     26.439     29.984
REMARK  Name = Testosterone.pdbqt.pdb
REMARK  1 active torsions:
REMARK  status: ('A' for Active; 'I' for Inactive)
REMARK    1  A    between atoms: C_9  and  O_21
REMARK                            x       y       z     vdW  Elec       q    Type
REMARK                         _______ _______ _______ _____ _____    ______ ____
ROOT
ATOM      1  O   UNL     1      39.371  17.147  19.059  0.00  0.00    +0.000 OA
ATOM      2  C   UNL     1      33.723  17.167  24.227  0.00  0.00    +0.000 C 
ATOM      3  C   UNL     1      32.749  18.425  24.415  0.00  0.00    +0.000 C 
ATOM      4  C   UNL     1      34.382  16.886  22.936  0.00  0.00    +0.000 C 
ATOM      5  C   UNL     1      34.501  17.837  21.777  0.00  0.00    +0.000 C 
ATOM      6  C   UNL     1      35.122  17.461  20.414  0.00  0.00    +0.000 C 
ATOM      7  C   UNL     1      33.069  19.344  23.321  0.00  0.00    +0.000 C 
ATOM      8  C   UNL     1      33.865  19.076  22.067  0.00  0.00    +0.000 C 
ATOM      9  C   UNL     1      33.153  18.996  25.796  0.00  0.00    +0.000 C 
ATOM     10  C   UNL     1      34.470  17.043  25.444  0.00  0.00    +0.000 C 
ATOM     11  C   UNL     1      35.115  15.693  22.736  0.00  0.00    +0.000 C 
ATOM     12  C   UNL     1      34.165  18.186  26.380  0.00  0.00    +0.000 C 
ATOM     13  C   UNL     1      36.119  16.140  20.433  0.00  0.00    +0.000 C 
ATOM     14  C   UNL     1      35.955  15.297  21.560  0.00  0.00    +0.000 C 
ATOM     15  C   UNL     1      31.270  17.964  24.422  0.00  0.00    +0.000 C 
ATOM     16  C   UNL     1      36.030  18.557  19.935  0.00  0.00    +0.000 C 
ATOM     17  C   UNL     1      33.993  17.162  19.389  0.00  0.00    +0.000 C 
ATOM     18  C   UNL     1      37.490  18.560  19.428  0.00  0.00    +0.000 C 
ATOM     19  C   UNL     1      37.332  16.281  19.940  0.00  0.00    +0.000 C 
ATOM     20  C   UNL     1      38.218  17.307  19.410  0.00  0.00    +0.000 C 
ENDROOT
BRANCH   9  21
ATOM     21  O   UNL     1      32.261  19.682  26.599  0.00  0.00    +0.000 OA
ATOM     22  H   UNL     1      31.857  20.433  26.121  0.00  0.00    +0.000 HD
ENDBRANCH   9  21
TORSDOF 1
ENDMDL
MODEL 4
REMARK VINA RESULT:      -5.3     17.767     20.420
REMARK  Name = Testosterone.pdbqt.pdb
REMARK  1 active torsions:
REMARK  status: ('A' for Active; 'I' for Inactive)
REMARK    1  A    between atoms: C_9  and  O_21
REMARK                            x       y       z     vdW  Elec       q    Type
REMARK                         _______ _______ _______ _____ _____    ______ ____
ROOT
ATOM      1  O   UNL     1      45.056   0.071  -9.062  0.00  0.00    +0.000 OA
ATOM      2  C   UNL     1      39.947  -5.087 -11.492  0.00  0.00    +0.000 C 
ATOM      3  C   UNL     1      38.547  -5.311 -10.745  0.00  0.00    +0.000 C 
ATOM      4  C   UNL     1      40.648  -3.788 -11.443  0.00  0.00    +0.000 C 
ATOM      5  C   UNL     1      40.357  -2.659 -10.493  0.00  0.00    +0.000 C 
ATOM      6  C   UNL     1      41.062  -1.286 -10.544  0.00  0.00    +0.000 C 
ATOM      7  C   UNL     1      38.453  -4.246  -9.745  0.00  0.00    +0.000 C 
ATOM      8  C   UNL     1      39.275  -2.986  -9.629  0.00  0.00    +0.000 C 
ATOM      9  C   UNL     1      38.699  -6.709 -10.099  0.00  0.00    +0.000 C 
ATOM     10  C   UNL     1      40.693  -6.300 -11.336  0.00  0.00    +0.000 C 
ATOM     11  C   UNL     1      41.801  -3.553 -12.228  0.00  0.00    +0.000 C 
ATOM     12  C   UNL     1      39.959  -7.270 -10.443  0.00  0.00    +0.000 C 
ATOM     13  C   UNL     1      42.511  -1.266 -11.345  0.00  0.00    +0.000 C 
ATOM     14  C   UNL     1      42.716  -2.366 -12.213  0.00  0.00    +0.000 C 
ATOM     15  C   UNL     1      37.384  -5.302 -11.768  0.00  0.00    +0.000 C 
ATOM     16  C   UNL     1      41.440  -0.842  -9.161  0.00  0.00    +0.000 C 
ATOM     17  C   UNL     1      40.142  -0.251 -11.247  0.00  0.00    +0.000 C 
ATOM     18  C   UNL     1      42.767  -0.338  -8.549  0.00  0.00    +0.000 C 
ATOM     19  C   UNL     1      43.556  -0.780 -10.708  0.00  0.00    +0.000 C 
ATOM     20  C   UNL     1      43.942  -0.282  -9.396  0.00  0.00    +0.000 C 
ENDROOT
BRANCH   9  21
ATOM     21  O   UNL     1      37.613  -7.532  -9.859  0.00  0.00    +0.000 OA
ATOM     22  H   UNL     1      37.142  -7.749 -10.687  0.00  0.00    +0.000 HD
ENDBRANCH   9  21
TORSDOF 1
ENDMDL
MODEL 5
REMARK VINA RESULT:      -5.2     25.379     28.681
REMARK  Name = Testosterone.pdbqt.pdb
REMARK  1 active torsions:
REMARK  status: ('A' for Active; 'I' for Inactive)
REMARK    1  A    between atoms: C_9  and  O_21
REMARK                            x       y       z     vdW  Elec       q    Type
REMARK                         _______ _______ _______ _____ _____    ______ ____
ROOT
ATOM      1  O   UNL     1      34.641  19.156  24.113  0.00  0.00    +0.000 OA
ATOM      2  C   UNL     1      34.477  12.079  21.198  0.00  0.00    +0.000 C 
ATOM      3  C   UNL     1      33.386  10.998  21.655  0.00  0.00    +0.000 C 
ATOM      4  C   UNL     1      34.202  13.529  21.262  0.00  0.00    +0.000 C 
ATOM      5  C   UNL     1      33.076  14.184  22.013  0.00  0.00    +0.000 C 
ATOM      6  C   UNL     1      32.779  15.699  21.974  0.00  0.00    +0.000 C 
ATOM      7  C   UNL     1      32.437  11.723  22.503  0.00  0.00    +0.000 C 
ATOM      8  C   UNL     1      32.262  13.213  22.661  0.00  0.00    +0.000 C 
ATOM      9  C   UNL     1      34.213   9.962  22.454  0.00  0.00    +0.000 C 
ATOM     10  C   UNL     1      35.751  11.581  21.626  0.00  0.00    +0.000 C 
ATOM     11  C   UNL     1      35.107  14.468  20.715  0.00  0.00    +0.000 C 
ATOM     12  C   UNL     1      35.589  10.321  22.438  0.00  0.00    +0.000 C 
ATOM     13  C   UNL     1      34.045  16.653  21.495  0.00  0.00    +0.000 C 
ATOM     14  C   UNL     1      35.070  15.963  20.802  0.00  0.00    +0.000 C 
ATOM     15  C   UNL     1      32.730  10.339  20.417  0.00  0.00    +0.000 C 
ATOM     16  C   UNL     1      32.483  16.208  23.354  0.00  0.00    +0.000 C 
ATOM     17  C   UNL     1      31.606  15.978  20.995  0.00  0.00    +0.000 C 
ATOM     18  C   UNL     1      33.041  17.393  24.176  0.00  0.00    +0.000 C 
ATOM     19  C   UNL     1      34.395  17.648  22.284  0.00  0.00    +0.000 C 
ATOM     20  C   UNL     1      34.088  18.207  23.591  0.00  0.00    +0.000 C 
ENDROOT
BRANCH   9  21
ATOM     21  O   UNL     1      33.841   8.633  22.544  0.00  0.00    +0.000 OA
ATOM     22  H   UNL     1      33.323   8.463  23.355  0.00  0.00    +0.000 HD
ENDBRANCH   9  21
TORSDOF 1
ENDMDL
MODEL 6
REMARK VINA RESULT:      -5.1      1.914      6.737
REMARK  Name = Testosterone.pdbqt.pdb
REMARK  1 active torsions:
REMARK  status: ('A' for Active; 'I' for Inactive)
REMARK    1  A    between atoms: C_9  and  O_21
REMARK                            x       y       z     vdW  Elec       q    Type
REMARK                         _______ _______ _______ _____ _____    ______ ____
ROOT
ATOM      1  O   UNL     1      51.143   3.587  11.670  0.00  0.00    +0.000 OA
ATOM      2  C   UNL     1      52.103  -1.761   6.277  0.00  0.00    +0.000 C 
ATOM      3  C   UNL     1      51.211  -3.092   6.233  0.00  0.00    +0.000 C 
ATOM      4  C   UNL     1      51.594  -0.510   6.874  0.00  0.00    +0.000 C 
ATOM      5  C   UNL     1      50.387  -0.379   7.761  0.00  0.00    +0.000 C 
ATOM      6  C   UNL     1      49.845   0.969   8.286  0.00  0.00    +0.000 C 
ATOM      7  C   UNL     1      50.168  -2.907   7.244  0.00  0.00    +0.000 C 
ATOM      8  C   UNL     1      49.753  -1.638   7.948  0.00  0.00    +0.000 C 
ATOM      9  C   UNL     1      52.208  -4.211   6.619  0.00  0.00    +0.000 C 
ATOM     10  C   UNL     1      53.447  -2.178   6.546  0.00  0.00    +0.000 C 
ATOM     11  C   UNL     1      52.325   0.696   6.772  0.00  0.00    +0.000 C 
ATOM     12  C   UNL     1      53.506  -3.663   6.809  0.00  0.00    +0.000 C 
ATOM     13  C   UNL     1      50.930   2.220   8.270  0.00  0.00    +0.000 C 
ATOM     14  C   UNL     1      52.045   2.018   7.419  0.00  0.00    +0.000 C 
ATOM     15  C   UNL     1      50.654  -3.319   4.806  0.00  0.00    +0.000 C 
ATOM     16  C   UNL     1      49.489   0.856   9.740  0.00  0.00    +0.000 C 
ATOM     17  C   UNL     1      48.628   1.414   7.430  0.00  0.00    +0.000 C 
ATOM     18  C   UNL     1      49.856   1.707  10.977  0.00  0.00    +0.000 C 
ATOM     19  C   UNL     1      51.123   2.877   9.394  0.00  0.00    +0.000 C 
ATOM     20  C   UNL     1      50.746   2.837  10.800  0.00  0.00    +0.000 C 
ENDROOT
BRANCH   9  21
ATOM     21  O   UNL     1      52.061  -5.513   6.177  0.00  0.00    +0.000 OA
ATOM     22  H   UNL     1      52.221  -6.153   6.898  0.00  0.00    +0.000 HD
ENDBRANCH   9  21
TORSDOF 1
ENDMDL
MODEL 7
REMARK VINA RESULT:      -5.1     24.403     27.126
REMARK  Name = Testosterone.pdbqt.pdb
REMARK  1 active torsions:
REMARK  status: ('A' for Active; 'I' for Inactive)
REMARK    1  A    between atoms: C_9  and  O_21
REMARK                            x       y       z     vdW  Elec       q    Type
REMARK                         _______ _______ _______ _____ _____    ______ ____
ROOT
ATOM      1  O   UNL     1      23.493   4.414   4.221  0.00  0.00    +0.000 OA
ATOM      2  C   UNL     1      28.197   7.412  -1.021  0.00  0.00    +0.000 C 
ATOM      3  C   UNL     1      27.764   7.577  -2.555  0.00  0.00    +0.000 C 
ATOM      4  C   UNL     1      27.200   7.413   0.067  0.00  0.00    +0.000 C 
ATOM      5  C   UNL     1      25.713   7.249  -0.093  0.00  0.00    +0.000 C 
ATOM      6  C   UNL     1      24.704   7.347   1.072  0.00  0.00    +0.000 C 
ATOM      7  C   UNL     1      26.339   7.241  -2.606  0.00  0.00    +0.000 C 
ATOM      8  C   UNL     1      25.361   7.110  -1.464  0.00  0.00    +0.000 C 
ATOM      9  C   UNL     1      28.638   6.536  -3.295  0.00  0.00    +0.000 C 
ATOM     10  C   UNL     1      29.268   6.461  -0.999  0.00  0.00    +0.000 C 
ATOM     11  C   UNL     1      27.601   7.421   1.424  0.00  0.00    +0.000 C 
ATOM     12  C   UNL     1      29.502   5.884  -2.373  0.00  0.00    +0.000 C 
ATOM     13  C   UNL     1      25.346   7.126   2.582  0.00  0.00    +0.000 C 
ATOM     14  C   UNL     1      26.752   7.288   2.651  0.00  0.00    +0.000 C 
ATOM     15  C   UNL     1      28.078   9.010  -3.052  0.00  0.00    +0.000 C 
ATOM     16  C   UNL     1      23.689   6.246   0.977  0.00  0.00    +0.000 C 
ATOM     17  C   UNL     1      24.033   8.748   1.066  0.00  0.00    +0.000 C 
ATOM     18  C   UNL     1      23.180   5.200   1.995  0.00  0.00    +0.000 C 
ATOM     19  C   UNL     1      24.791   6.216   3.356  0.00  0.00    +0.000 C 
ATOM     20  C   UNL     1      23.768   5.181   3.320  0.00  0.00    +0.000 C 
ENDROOT
BRANCH   9  21
ATOM     21  O   UNL     1      29.021   6.698  -4.613  0.00  0.00    +0.000 OA
ATOM     22  H   UNL     1      28.372   7.235  -5.108  0.00  0.00    +0.000 HD
ENDBRANCH   9  21
TORSDOF 1
ENDMDL
MODEL 8
REMARK VINA RESULT:      -4.9     16.021     18.226
REMARK  Name = Testosterone.pdbqt.pdb
REMARK  1 active torsions:
REMARK  status: ('A' for Active; 'I' for Inactive)
REMARK    1  A    between atoms: C_9  and  O_21
REMARK                            x       y       z     vdW  Elec       q    Type
REMARK                         _______ _______ _______ _____ _____    ______ ____
ROOT
ATOM      1  O   UNL     1      42.735  -2.683 -11.619  0.00  0.00    +0.000 OA
ATOM      2  C   UNL     1      49.565   0.123  -9.597  0.00  0.00    +0.000 C 
ATOM      3  C   UNL     1      50.658   0.559 -10.684  0.00  0.00    +0.000 C 
ATOM      4  C   UNL     1      48.120   0.153  -9.901  0.00  0.00    +0.000 C 
ATOM      5  C   UNL     1      47.504   0.268 -11.268  0.00  0.00    +0.000 C 
ATOM      6  C   UNL     1      45.985   0.385 -11.523  0.00  0.00    +0.000 C 
ATOM      7  C   UNL     1      49.984   0.482 -11.982  0.00  0.00    +0.000 C 
ATOM      8  C   UNL     1      48.507   0.373 -12.271  0.00  0.00    +0.000 C 
ATOM      9  C   UNL     1      51.766  -0.511 -10.535  0.00  0.00    +0.000 C 
ATOM     10  C   UNL     1      50.116  -0.993  -8.887  0.00  0.00    +0.000 C 
ATOM     11  C   UNL     1      47.158  -0.085  -8.892  0.00  0.00    +0.000 C 
ATOM     12  C   UNL     1      51.432  -1.416  -9.491  0.00  0.00    +0.000 C 
ATOM     13  C   UNL     1      45.020  -0.139 -10.284  0.00  0.00    +0.000 C 
ATOM     14  C   UNL     1      45.673  -0.231  -9.030  0.00  0.00    +0.000 C 
ATOM     15  C   UNL     1      51.209   1.970 -10.357  0.00  0.00    +0.000 C 
ATOM     16  C   UNL     1      45.578  -0.504 -12.661  0.00  0.00    +0.000 C 
ATOM     17  C   UNL     1      45.612   1.869 -11.792  0.00  0.00    +0.000 C 
ATOM     18  C   UNL     1      44.470  -1.571 -12.812  0.00  0.00    +0.000 C 
ATOM     19  C   UNL     1      44.095  -1.033 -10.565  0.00  0.00    +0.000 C 
ATOM     20  C   UNL     1      43.631  -1.863 -11.667  0.00  0.00    +0.000 C 
ENDROOT
BRANCH   9  21
ATOM     21  O   UNL     1      53.092  -0.245 -10.828  0.00  0.00    +0.000 OA
ATOM     22  H   UNL     1      53.644  -0.264 -10.022  0.00  0.00    +0.000 HD
ENDBRANCH   9  21
TORSDOF 1
ENDMDL
MODEL 9
REMARK VINA RESULT:      -4.8     26.698     30.487
REMARK  Name = Testosterone.pdbqt.pdb
REMARK  1 active torsions:
REMARK  status: ('A' for Active; 'I' for Inactive)
REMARK    1  A    between atoms: C_9  and  O_21
REMARK                            x       y       z     vdW  Elec       q    Type
REMARK                         _______ _______ _______ _____ _____    ______ ____
ROOT
ATOM      1  O   UNL     1      30.624  22.906  19.709  0.00  0.00    +0.000 OA
ATOM      2  C   UNL     1      35.769  17.566  21.612  0.00  0.00    +0.000 C 
ATOM      3  C   UNL     1      36.423  16.591  20.522  0.00  0.00    +0.000 C 
ATOM      4  C   UNL     1      35.277  18.911  21.250  0.00  0.00    +0.000 C 
ATOM      5  C   UNL     1      35.026  19.416  19.856  0.00  0.00    +0.000 C 
ATOM      6  C   UNL     1      34.597  20.863  19.528  0.00  0.00    +0.000 C 
ATOM      7  C   UNL     1      35.980  17.094  19.220  0.00  0.00    +0.000 C 
ATOM      8  C   UNL     1      35.349  18.424  18.889  0.00  0.00    +0.000 C 
ATOM      9  C   UNL     1      35.811  15.209  20.855  0.00  0.00    +0.000 C 
ATOM     10  C   UNL     1      34.989  16.739  22.485  0.00  0.00    +0.000 C 
ATOM     11  C   UNL     1      34.843  19.820  22.243  0.00  0.00    +0.000 C 
ATOM     12  C   UNL     1      34.969  15.312  21.996  0.00  0.00    +0.000 C 
ATOM     13  C   UNL     1      33.920  21.701  20.785  0.00  0.00    +0.000 C 
ATOM     14  C   UNL     1      34.193  21.158  22.065  0.00  0.00    +0.000 C 
ATOM     15  C   UNL     1      37.964  16.563  20.681  0.00  0.00    +0.000 C 
ATOM     16  C   UNL     1      33.501  20.861  18.501  0.00  0.00    +0.000 C 
ATOM     17  C   UNL     1      35.829  21.679  19.050  0.00  0.00    +0.000 C 
ATOM     18  C   UNL     1      32.114  21.541  18.449  0.00  0.00    +0.000 C 
ATOM     19  C   UNL     1      32.742  22.254  20.588  0.00  0.00    +0.000 C 
ATOM     20  C   UNL     1      31.687  22.328  19.588  0.00  0.00    +0.000 C 
ENDROOT
BRANCH   9  21
ATOM     21  O   UNL     1      36.473  14.026  20.583  0.00  0.00    +0.000 OA
ATOM     22  H   UNL     1      37.439  14.163  20.528  0.00  0.00    +0.000 HD
ENDBRANCH   9  21
TORSDOF 1
ENDMDL
