MODEL 1
REMARK VINA RESULT:      -3.1      0.000      0.000
REMARK  Name = Tetrachloroethylene.pdbqt.pdb
REMARK  0 active torsions:
REMARK  status: ('A' for Active; 'I' for Inactive)
REMARK                            x       y       z     vdW  Elec       q    Type
REMARK                         _______ _______ _______ _____ _____    ______ ____
ROOT
ATOM      1 CL   UNL     1      41.314  -3.396  12.527  0.00  0.00    +0.000 Cl
ATOM      2 CL   UNL     1      41.728  -0.796  11.246  0.00  0.00    +0.000 Cl
ATOM      3 CL   UNL     1      39.322   0.445  12.987  0.00  0.00    +0.000 Cl
ATOM      4 CL   UNL     1      38.908  -2.155  14.268  0.00  0.00    +0.000 Cl
ATOM      5  C   UNL     1      40.820  -1.734  12.393  0.00  0.00    +0.000 C 
ATOM      6  C   UNL     1      39.816  -1.216  13.120  0.00  0.00    +0.000 C 
ENDROOT
TORSDOF 0
ENDMDL
MODEL 2
REMARK VINA RESULT:      -3.0     19.625     20.940
REMARK  Name = Tetrachloroethylene.pdbqt.pdb
REMARK  0 active torsions:
REMARK  status: ('A' for Active; 'I' for Inactive)
REMARK                            x       y       z     vdW  Elec       q    Type
REMARK                         _______ _______ _______ _____ _____    ______ ____
ROOT
ATOM      1 CL   UNL     1      36.232  16.090  21.425  0.00  0.00    +0.000 Cl
ATOM      2 CL   UNL     1      35.706  18.963  21.218  0.00  0.00    +0.000 Cl
ATOM      3 CL   UNL     1      37.941  19.206  18.915  0.00  0.00    +0.000 Cl
ATOM      4 CL   UNL     1      38.467  16.333  19.122  0.00  0.00    +0.000 Cl
ATOM      5  C   UNL     1      36.620  17.597  20.651  0.00  0.00    +0.000 C 
ATOM      6  C   UNL     1      37.553  17.699  19.689  0.00  0.00    +0.000 C 
ENDROOT
TORSDOF 0
ENDMDL
MODEL 3
REMARK VINA RESULT:      -3.0     19.523     20.985
REMARK  Name = Tetrachloroethylene.pdbqt.pdb
REMARK  0 active torsions:
REMARK  status: ('A' for Active; 'I' for Inactive)
REMARK                            x       y       z     vdW  Elec       q    Type
REMARK                         _______ _______ _______ _____ _____    ______ ____
ROOT
ATOM      1 CL   UNL     1      36.382  16.264  21.175  0.00  0.00    +0.000 Cl
ATOM      2 CL   UNL     1      38.449  16.317  19.102  0.00  0.00    +0.000 Cl
ATOM      3 CL   UNL     1      38.068  19.499  18.804  0.00  0.00    +0.000 Cl
ATOM      4 CL   UNL     1      36.001  19.445  20.878  0.00  0.00    +0.000 Cl
ATOM      5  C   UNL     1      37.305  17.217  20.052  0.00  0.00    +0.000 C 
ATOM      6  C   UNL     1      37.146  18.546  19.928  0.00  0.00    +0.000 C 
ENDROOT
TORSDOF 0
ENDMDL
MODEL 4
REMARK VINA RESULT:      -2.9     18.391     19.790
REMARK  Name = Tetrachloroethylene.pdbqt.pdb
REMARK  0 active torsions:
REMARK  status: ('A' for Active; 'I' for Inactive)
REMARK                            x       y       z     vdW  Elec       q    Type
REMARK                         _______ _______ _______ _____ _____    ______ ____
ROOT
ATOM      1 CL   UNL     1      34.589  16.091  21.603  0.00  0.00    +0.000 Cl
ATOM      2 CL   UNL     1      36.288  13.893  20.677  0.00  0.00    +0.000 Cl
ATOM      3 CL   UNL     1      38.340  16.017  19.399  0.00  0.00    +0.000 Cl
ATOM      4 CL   UNL     1      36.641  18.215  20.325  0.00  0.00    +0.000 Cl
ATOM      5  C   UNL     1      36.036  15.611  20.768  0.00  0.00    +0.000 C 
ATOM      6  C   UNL     1      36.893  16.498  20.234  0.00  0.00    +0.000 C 
ENDROOT
TORSDOF 0
ENDMDL
MODEL 5
REMARK VINA RESULT:      -2.9      1.653      3.169
REMARK  Name = Tetrachloroethylene.pdbqt.pdb
REMARK  0 active torsions:
REMARK  status: ('A' for Active; 'I' for Inactive)
REMARK                            x       y       z     vdW  Elec       q    Type
REMARK                         _______ _______ _______ _____ _____    ______ ____
ROOT
ATOM      1 CL   UNL     1      41.096  -0.794  15.376  0.00  0.00    +0.000 Cl
ATOM      2 CL   UNL     1      39.896   0.690  13.156  0.00  0.00    +0.000 Cl
ATOM      3 CL   UNL     1      41.763  -0.908  11.078  0.00  0.00    +0.000 Cl
ATOM      4 CL   UNL     1      42.963  -2.393  13.298  0.00  0.00    +0.000 Cl
ATOM      5  C   UNL     1      41.040  -0.517  13.661  0.00  0.00    +0.000 C 
ATOM      6  C   UNL     1      41.819  -1.185  12.793  0.00  0.00    +0.000 C 
ENDROOT
TORSDOF 0
ENDMDL
MODEL 6
REMARK VINA RESULT:      -2.8      2.494      2.718
REMARK  Name = Tetrachloroethylene.pdbqt.pdb
REMARK  0 active torsions:
REMARK  status: ('A' for Active; 'I' for Inactive)
REMARK                            x       y       z     vdW  Elec       q    Type
REMARK                         _______ _______ _______ _____ _____    ______ ____
ROOT
ATOM      1 CL   UNL     1      43.634  -2.961  14.446  0.00  0.00    +0.000 Cl
ATOM      2 CL   UNL     1      42.065  -2.821  11.978  0.00  0.00    +0.000 Cl
ATOM      3 CL   UNL     1      40.893   0.035  12.885  0.00  0.00    +0.000 Cl
ATOM      4 CL   UNL     1      42.463  -0.105  15.353  0.00  0.00    +0.000 Cl
ATOM      5  C   UNL     1      42.508  -2.060  13.476  0.00  0.00    +0.000 C 
ATOM      6  C   UNL     1      42.019  -0.867  13.855  0.00  0.00    +0.000 C 
ENDROOT
TORSDOF 0
ENDMDL
MODEL 7
REMARK VINA RESULT:      -2.8     18.394     19.963
REMARK  Name = Tetrachloroethylene.pdbqt.pdb
REMARK  0 active torsions:
REMARK  status: ('A' for Active; 'I' for Inactive)
REMARK                            x       y       z     vdW  Elec       q    Type
REMARK                         _______ _______ _______ _____ _____    ______ ____
ROOT
ATOM      1 CL   UNL     1      34.516  16.379  21.840  0.00  0.00    +0.000 Cl
ATOM      2 CL   UNL     1      36.345  18.368  20.713  0.00  0.00    +0.000 Cl
ATOM      3 CL   UNL     1      38.204  16.007  19.562  0.00  0.00    +0.000 Cl
ATOM      4 CL   UNL     1      36.375  14.018  20.689  0.00  0.00    +0.000 Cl
ATOM      5  C   UNL     1      35.971  16.686  20.941  0.00  0.00    +0.000 C 
ATOM      6  C   UNL     1      36.748  15.700  20.461  0.00  0.00    +0.000 C 
ENDROOT
TORSDOF 0
ENDMDL
MODEL 8
REMARK VINA RESULT:      -2.8      1.154      2.615
REMARK  Name = Tetrachloroethylene.pdbqt.pdb
REMARK  0 active torsions:
REMARK  status: ('A' for Active; 'I' for Inactive)
REMARK                            x       y       z     vdW  Elec       q    Type
REMARK                         _______ _______ _______ _____ _____    ______ ____
ROOT
ATOM      1 CL   UNL     1      40.505  -2.672  14.542  0.00  0.00    +0.000 Cl
ATOM      2 CL   UNL     1      41.913  -3.788  12.231  0.00  0.00    +0.000 Cl
ATOM      3 CL   UNL     1      41.887  -0.897  10.818  0.00  0.00    +0.000 Cl
ATOM      4 CL   UNL     1      40.479   0.220  13.130  0.00  0.00    +0.000 Cl
ATOM      5  C   UNL     1      41.201  -2.388  12.975  0.00  0.00    +0.000 C 
ATOM      6  C   UNL     1      41.190  -1.180  12.385  0.00  0.00    +0.000 C 
ENDROOT
TORSDOF 0
ENDMDL
MODEL 9
REMARK VINA RESULT:      -2.6     20.200     21.284
REMARK  Name = Tetrachloroethylene.pdbqt.pdb
REMARK  0 active torsions:
REMARK  status: ('A' for Active; 'I' for Inactive)
REMARK                            x       y       z     vdW  Elec       q    Type
REMARK                         _______ _______ _______ _____ _____    ______ ____
ROOT
ATOM      1 CL   UNL     1      48.153  17.809   6.658  0.00  0.00    +0.000 Cl
ATOM      2 CL   UNL     1      46.763  16.571   8.918  0.00  0.00    +0.000 Cl
ATOM      3 CL   UNL     1      49.393  16.935  10.736  0.00  0.00    +0.000 Cl
ATOM      4 CL   UNL     1      50.784  18.173   8.476  0.00  0.00    +0.000 Cl
ATOM      5  C   UNL     1      48.224  17.296   8.317  0.00  0.00    +0.000 C 
ATOM      6  C   UNL     1      49.323  17.448   9.076  0.00  0.00    +0.000 C 
ENDROOT
TORSDOF 0
ENDMDL
