MODEL 1
REMARK VINA RESULT:      -7.1      0.000      0.000
REMARK  Name = Thalidomide.pdbqt.pdb
REMARK  1 active torsions:
REMARK  status: ('A' for Active; 'I' for Inactive)
REMARK    1  A    between atoms: N_3  and  C_12
REMARK                            x       y       z     vdW  Elec       q    Type
REMARK                         _______ _______ _______ _____ _____    ______ ____
ROOT
ATOM      1  O   UNL     1      39.162  -2.000  16.424  0.00  0.00    +0.000 OA
ATOM      2  O   UNL     1      41.200   2.112  16.105  0.00  0.00    +0.000 OA
ATOM      3  N   UNL     1      40.176   0.018  15.755  0.00  0.00    +0.000 N 
ATOM      4  C   UNL     1      39.503  -0.844  16.590  0.00  0.00    +0.000 C 
ATOM      5  C   UNL     1      40.439   1.209  16.397  0.00  0.00    +0.000 C 
ATOM      6  C   UNL     1      39.206  -0.105  17.812  0.00  0.00    +0.000 A 
ATOM      7  C   UNL     1      39.760   1.152  17.686  0.00  0.00    +0.000 A 
ATOM      8  C   UNL     1      38.530  -0.500  18.947  0.00  0.00    +0.000 A 
ATOM      9  C   UNL     1      39.686   2.092  18.692  0.00  0.00    +0.000 A 
ATOM     10  C   UNL     1      38.428   0.440  19.975  0.00  0.00    +0.000 A 
ATOM     11  C   UNL     1      38.999   1.719  19.849  0.00  0.00    +0.000 A 
ENDROOT
BRANCH   3  12
ATOM     12  C   UNL     1      40.637  -0.306  14.503  0.00  0.00    +0.000 C 
ATOM     13  C   UNL     1      41.724  -1.180  14.282  0.00  0.00    +0.000 C 
ATOM     14  C   UNL     1      42.314  -1.389  12.921  0.00  0.00    +0.000 C 
ATOM     15  C   UNL     1      41.781  -0.756  11.751  0.00  0.00    +0.000 C 
ATOM     16  O   UNL     1      42.215  -0.986  10.634  0.00  0.00    +0.000 OA
ATOM     17  N   UNL     1      40.703   0.080  12.030  0.00  0.00    +0.000 N 
ATOM     18  C   UNL     1      39.989   0.225  13.228  0.00  0.00    +0.000 C 
ATOM     19  H   UNL     1      40.225   0.429  11.213  0.00  0.00    +0.000 HD
ATOM     20  O   UNL     1      38.835   0.643  13.206  0.00  0.00    +0.000 OA
ENDBRANCH   3  12
TORSDOF 1
ENDMDL
MODEL 2
REMARK VINA RESULT:      -6.9      3.874      5.553
REMARK  Name = Thalidomide.pdbqt.pdb
REMARK  1 active torsions:
REMARK  status: ('A' for Active; 'I' for Inactive)
REMARK    1  A    between atoms: N_3  and  C_12
REMARK                            x       y       z     vdW  Elec       q    Type
REMARK                         _______ _______ _______ _____ _____    ______ ____
ROOT
ATOM      1  O   UNL     1      41.184  -3.986  14.877  0.00  0.00    +0.000 OA
ATOM      2  O   UNL     1      42.914   0.241  15.430  0.00  0.00    +0.000 OA
ATOM      3  N   UNL     1      42.518  -2.070  15.199  0.00  0.00    +0.000 N 
ATOM      4  C   UNL     1      41.420  -2.795  14.795  0.00  0.00    +0.000 C 
ATOM      5  C   UNL     1      42.311  -0.723  14.998  0.00  0.00    +0.000 C 
ATOM      6  C   UNL     1      40.495  -1.851  14.177  0.00  0.00    +0.000 A 
ATOM      7  C   UNL     1      41.047  -0.592  14.282  0.00  0.00    +0.000 A 
ATOM      8  C   UNL     1      39.266  -2.068  13.589  0.00  0.00    +0.000 A 
ATOM      9  C   UNL     1      40.401   0.536  13.822  0.00  0.00    +0.000 A 
ATOM     10  C   UNL     1      38.598  -0.944  13.100  0.00  0.00    +0.000 A 
ATOM     11  C   UNL     1      39.158   0.341  13.215  0.00  0.00    +0.000 A 
ENDROOT
BRANCH   3  12
ATOM     12  C   UNL     1      43.613  -2.600  15.835  0.00  0.00    +0.000 C 
ATOM     13  C   UNL     1      43.739  -2.656  17.241  0.00  0.00    +0.000 C 
ATOM     14  C   UNL     1      45.009  -3.084  17.911  0.00  0.00    +0.000 C 
ATOM     15  C   UNL     1      46.157  -3.513  17.169  0.00  0.00    +0.000 C 
ATOM     16  O   UNL     1      47.163  -3.934  17.716  0.00  0.00    +0.000 OA
ATOM     17  N   UNL     1      45.968  -3.452  15.791  0.00  0.00    +0.000 N 
ATOM     18  C   UNL     1      44.785  -3.213  15.075  0.00  0.00    +0.000 C 
ATOM     19  H   UNL     1      46.707  -3.874  15.249  0.00  0.00    +0.000 HD
ATOM     20  O   UNL     1      44.678  -3.614  13.920  0.00  0.00    +0.000 OA
ENDBRANCH   3  12
TORSDOF 1
ENDMDL
MODEL 3
REMARK VINA RESULT:      -6.4      1.859      2.255
REMARK  Name = Thalidomide.pdbqt.pdb
REMARK  1 active torsions:
REMARK  status: ('A' for Active; 'I' for Inactive)
REMARK    1  A    between atoms: N_3  and  C_12
REMARK                            x       y       z     vdW  Elec       q    Type
REMARK                         _______ _______ _______ _____ _____    ______ ____
ROOT
ATOM      1  O   UNL     1      41.466  -0.631  17.594  0.00  0.00    +0.000 OA
ATOM      2  O   UNL     1      39.702   1.786  14.099  0.00  0.00    +0.000 OA
ATOM      3  N   UNL     1      40.542   0.149  15.571  0.00  0.00    +0.000 N 
ATOM      4  C   UNL     1      40.850   0.168  16.913  0.00  0.00    +0.000 C 
ATOM      5  C   UNL     1      39.913   1.318  15.202  0.00  0.00    +0.000 C 
ATOM      6  C   UNL     1      40.264   1.384  17.464  0.00  0.00    +0.000 A 
ATOM      7  C   UNL     1      39.676   2.075  16.426  0.00  0.00    +0.000 A 
ATOM      8  C   UNL     1      40.261   1.861  18.759  0.00  0.00    +0.000 A 
ATOM      9  C   UNL     1      39.058   3.294  16.609  0.00  0.00    +0.000 A 
ATOM     10  C   UNL     1      39.628   3.086  18.973  0.00  0.00    +0.000 A 
ATOM     11  C   UNL     1      39.035   3.794  17.913  0.00  0.00    +0.000 A 
ENDROOT
BRANCH   3  12
ATOM     12  C   UNL     1      40.924  -0.836  14.695  0.00  0.00    +0.000 C 
ATOM     13  C   UNL     1      42.253  -0.997  14.242  0.00  0.00    +0.000 C 
ATOM     14  C   UNL     1      42.615  -1.970  13.163  0.00  0.00    +0.000 C 
ATOM     15  C   UNL     1      41.647  -2.836  12.558  0.00  0.00    +0.000 C 
ATOM     16  O   UNL     1      41.956  -3.680  11.734  0.00  0.00    +0.000 OA
ATOM     17  N   UNL     1      40.360  -2.643  13.056  0.00  0.00    +0.000 N 
ATOM     18  C   UNL     1      39.948  -1.877  14.156  0.00  0.00    +0.000 C 
ATOM     19  H   UNL     1      39.687  -3.330  12.748  0.00  0.00    +0.000 HD
ATOM     20  O   UNL     1      38.894  -2.143  14.727  0.00  0.00    +0.000 OA
ENDBRANCH   3  12
TORSDOF 1
ENDMDL
MODEL 4
REMARK VINA RESULT:      -5.8      2.846      6.172
REMARK  Name = Thalidomide.pdbqt.pdb
REMARK  1 active torsions:
REMARK  status: ('A' for Active; 'I' for Inactive)
REMARK    1  A    between atoms: N_3  and  C_12
REMARK                            x       y       z     vdW  Elec       q    Type
REMARK                         _______ _______ _______ _____ _____    ______ ____
ROOT
ATOM      1  O   UNL     1      43.444  -2.090  17.441  0.00  0.00    +0.000 OA
ATOM      2  O   UNL     1      40.497  -2.697  13.960  0.00  0.00    +0.000 OA
ATOM      3  N   UNL     1      41.802  -1.915  15.760  0.00  0.00    +0.000 N 
ATOM      4  C   UNL     1      42.917  -2.415  16.393  0.00  0.00    +0.000 C 
ATOM      5  C   UNL     1      41.507  -2.658  14.638  0.00  0.00    +0.000 C 
ATOM      6  C   UNL     1      43.443  -3.479  15.545  0.00  0.00    +0.000 A 
ATOM      7  C   UNL     1      42.595  -3.613  14.466  0.00  0.00    +0.000 A 
ATOM      8  C   UNL     1      44.556  -4.278  15.710  0.00  0.00    +0.000 A 
ATOM      9  C   UNL     1      42.794  -4.564  13.488  0.00  0.00    +0.000 A 
ATOM     10  C   UNL     1      44.788  -5.238  14.724  0.00  0.00    +0.000 A 
ATOM     11  C   UNL     1      43.920  -5.380  13.628  0.00  0.00    +0.000 A 
ENDROOT
BRANCH   3  12
ATOM     12  C   UNL     1      41.016  -0.900  16.247  0.00  0.00    +0.000 C 
ATOM     13  C   UNL     1      39.949  -1.113  17.148  0.00  0.00    +0.000 C 
ATOM     14  C   UNL     1      39.003  -0.018  17.535  0.00  0.00    +0.000 C 
ATOM     15  C   UNL     1      39.151   1.325  17.058  0.00  0.00    +0.000 C 
ATOM     16  O   UNL     1      38.426   2.231  17.433  0.00  0.00    +0.000 OA
ATOM     17  N   UNL     1      40.228   1.476  16.187  0.00  0.00    +0.000 N 
ATOM     18  C   UNL     1      41.249   0.563  15.884  0.00  0.00    +0.000 C 
ATOM     19  H   UNL     1      40.437   2.433  15.945  0.00  0.00    +0.000 HD
ATOM     20  O   UNL     1      42.329   0.970  15.466  0.00  0.00    +0.000 OA
ENDBRANCH   3  12
TORSDOF 1
ENDMDL
MODEL 5
REMARK VINA RESULT:      -5.8     19.500     21.099
REMARK  Name = Thalidomide.pdbqt.pdb
REMARK  1 active torsions:
REMARK  status: ('A' for Active; 'I' for Inactive)
REMARK    1  A    between atoms: N_3  and  C_12
REMARK                            x       y       z     vdW  Elec       q    Type
REMARK                         _______ _______ _______ _____ _____    ______ ____
ROOT
ATOM      1  O   UNL     1      53.161  17.785  11.319  0.00  0.00    +0.000 OA
ATOM      2  O   UNL     1      49.524  15.556  13.041  0.00  0.00    +0.000 OA
ATOM      3  N   UNL     1      51.525  16.739  12.653  0.00  0.00    +0.000 N 
ATOM      4  C   UNL     1      52.043  17.358  11.538  0.00  0.00    +0.000 C 
ATOM      5  C   UNL     1      50.229  16.329  12.422  0.00  0.00    +0.000 C 
ATOM      6  C   UNL     1      50.958  17.460  10.568  0.00  0.00    +0.000 A 
ATOM      7  C   UNL     1      49.848  16.851  11.115  0.00  0.00    +0.000 A 
ATOM      8  C   UNL     1      50.944  18.018   9.307  0.00  0.00    +0.000 A 
ATOM      9  C   UNL     1      48.655  16.747  10.431  0.00  0.00    +0.000 A 
ATOM     10  C   UNL     1      49.743  17.940   8.601  0.00  0.00    +0.000 A 
ATOM     11  C   UNL     1      48.613  17.312   9.155  0.00  0.00    +0.000 A 
ENDROOT
BRANCH   3  12
ATOM     12  C   UNL     1      52.238  16.451  13.790  0.00  0.00    +0.000 C 
ATOM     13  C   UNL     1      52.161  17.228  14.968  0.00  0.00    +0.000 C 
ATOM     14  C   UNL     1      53.069  16.995  16.136  0.00  0.00    +0.000 C 
ATOM     15  C   UNL     1      54.036  15.937  16.154  0.00  0.00    +0.000 C 
ATOM     16  O   UNL     1      54.721  15.701  17.135  0.00  0.00    +0.000 OA
ATOM     17  N   UNL     1      54.053  15.197  14.974  0.00  0.00    +0.000 N 
ATOM     18  C   UNL     1      53.155  15.237  13.897  0.00  0.00    +0.000 C 
ATOM     19  H   UNL     1      54.625  14.366  15.012  0.00  0.00    +0.000 HD
ATOM     20  O   UNL     1      53.038  14.262  13.161  0.00  0.00    +0.000 OA
ENDBRANCH   3  12
TORSDOF 1
ENDMDL
MODEL 6
REMARK VINA RESULT:      -5.5     19.668     20.822
REMARK  Name = Thalidomide.pdbqt.pdb
REMARK  1 active torsions:
REMARK  status: ('A' for Active; 'I' for Inactive)
REMARK    1  A    between atoms: N_3  and  C_12
REMARK                            x       y       z     vdW  Elec       q    Type
REMARK                         _______ _______ _______ _____ _____    ______ ____
ROOT
ATOM      1  O   UNL     1      50.534  18.946  14.426  0.00  0.00    +0.000 OA
ATOM      2  O   UNL     1      53.191  15.246  13.785  0.00  0.00    +0.000 OA
ATOM      3  N   UNL     1      51.846  17.172  13.600  0.00  0.00    +0.000 N 
ATOM      4  C   UNL     1      51.385  18.082  14.524  0.00  0.00    +0.000 C 
ATOM      5  C   UNL     1      52.751  16.309  14.179  0.00  0.00    +0.000 C 
ATOM      6  C   UNL     1      52.144  17.862  15.750  0.00  0.00    +0.000 A 
ATOM      7  C   UNL     1      52.990  16.794  15.533  0.00  0.00    +0.000 A 
ATOM      8  C   UNL     1      52.089  18.521  16.960  0.00  0.00    +0.000 A 
ATOM      9  C   UNL     1      53.826  16.306  16.516  0.00  0.00    +0.000 A 
ATOM     10  C   UNL     1      52.937  18.056  17.967  0.00  0.00    +0.000 A 
ATOM     11  C   UNL     1      53.794  16.963  17.748  0.00  0.00    +0.000 A 
ENDROOT
BRANCH   3  12
ATOM     12  C   UNL     1      51.374  17.054  12.316  0.00  0.00    +0.000 C 
ATOM     13  C   UNL     1      52.075  17.535  11.188  0.00  0.00    +0.000 C 
ATOM     14  C   UNL     1      51.468  17.546   9.819  0.00  0.00    +0.000 C 
ATOM     15  C   UNL     1      50.161  17.020   9.557  0.00  0.00    +0.000 C 
ATOM     16  O   UNL     1      49.700  16.960   8.430  0.00  0.00    +0.000 OA
ATOM     17  N   UNL     1      49.527  16.546  10.703  0.00  0.00    +0.000 N 
ATOM     18  C   UNL     1      50.058  16.355  11.987  0.00  0.00    +0.000 C 
ATOM     19  H   UNL     1      48.667  16.049  10.528  0.00  0.00    +0.000 HD
ATOM     20  O   UNL     1      49.538  15.547  12.751  0.00  0.00    +0.000 OA
ENDBRANCH   3  12
TORSDOF 1
ENDMDL
MODEL 7
REMARK VINA RESULT:      -5.5     22.849     24.931
REMARK  Name = Thalidomide.pdbqt.pdb
REMARK  1 active torsions:
REMARK  status: ('A' for Active; 'I' for Inactive)
REMARK    1  A    between atoms: N_3  and  C_12
REMARK                            x       y       z     vdW  Elec       q    Type
REMARK                         _______ _______ _______ _____ _____    ______ ____
ROOT
ATOM      1  O   UNL     1      42.773   3.278  -8.282  0.00  0.00    +0.000 OA
ATOM      2  O   UNL     1      39.930  -0.247  -9.095  0.00  0.00    +0.000 OA
ATOM      3  N   UNL     1      40.963   1.843  -8.748  0.00  0.00    +0.000 N 
ATOM      4  C   UNL     1      42.281   2.230  -8.658  0.00  0.00    +0.000 C 
ATOM      5  C   UNL     1      40.871   0.522  -9.133  0.00  0.00    +0.000 C 
ATOM      6  C   UNL     1      43.085   1.112  -9.139  0.00  0.00    +0.000 A 
ATOM      7  C   UNL     1      42.224   0.079  -9.448  0.00  0.00    +0.000 A 
ATOM      8  C   UNL     1      44.452   0.996  -9.278  0.00  0.00    +0.000 A 
ATOM      9  C   UNL     1      42.674  -1.143  -9.901  0.00  0.00    +0.000 A 
ATOM     10  C   UNL     1      44.932  -0.227  -9.750  0.00  0.00    +0.000 A 
ATOM     11  C   UNL     1      44.055  -1.283 -10.058  0.00  0.00    +0.000 A 
ENDROOT
BRANCH   3  12
ATOM     12  C   UNL     1      39.893   2.620  -8.381  0.00  0.00    +0.000 C 
ATOM     13  C   UNL     1      39.309   3.584  -9.233  0.00  0.00    +0.000 C 
ATOM     14  C   UNL     1      38.253   4.533  -8.756  0.00  0.00    +0.000 C 
ATOM     15  C   UNL     1      37.731   4.489  -7.422  0.00  0.00    +0.000 C 
ATOM     16  O   UNL     1      36.818   5.211  -7.057  0.00  0.00    +0.000 OA
ATOM     17  N   UNL     1      38.333   3.509  -6.635  0.00  0.00    +0.000 N 
ATOM     18  C   UNL     1      39.210   2.486  -7.023  0.00  0.00    +0.000 C 
ATOM     19  H   UNL     1      37.893   3.366  -5.739  0.00  0.00    +0.000 HD
ATOM     20  O   UNL     1      39.304   1.469  -6.342  0.00  0.00    +0.000 OA
ENDBRANCH   3  12
TORSDOF 1
ENDMDL
MODEL 8
REMARK VINA RESULT:      -5.4      3.581      3.977
REMARK  Name = Thalidomide.pdbqt.pdb
REMARK  1 active torsions:
REMARK  status: ('A' for Active; 'I' for Inactive)
REMARK    1  A    between atoms: N_3  and  C_12
REMARK                            x       y       z     vdW  Elec       q    Type
REMARK                         _______ _______ _______ _____ _____    ______ ____
ROOT
ATOM      1  O   UNL     1      43.826  -3.513  16.695  0.00  0.00    +0.000 OA
ATOM      2  O   UNL     1      41.994   0.703  16.886  0.00  0.00    +0.000 OA
ATOM      3  N   UNL     1      42.544  -1.549  16.464  0.00  0.00    +0.000 N 
ATOM      4  C   UNL     1      43.423  -2.424  17.060  0.00  0.00    +0.000 C 
ATOM      5  C   UNL     1      42.456  -0.380  17.189  0.00  0.00    +0.000 C 
ATOM      6  C   UNL     1      43.832  -1.818  18.323  0.00  0.00    +0.000 A 
ATOM      7  C   UNL     1      43.227  -0.582  18.410  0.00  0.00    +0.000 A 
ATOM      8  C   UNL     1      44.677  -2.294  19.304  0.00  0.00    +0.000 A 
ATOM      9  C   UNL     1      43.437   0.266  19.477  0.00  0.00    +0.000 A 
ATOM     10  C   UNL     1      44.893  -1.460  20.402  0.00  0.00    +0.000 A 
ATOM     11  C   UNL     1      44.283  -0.197  20.488  0.00  0.00    +0.000 A 
ENDROOT
BRANCH   3  12
ATOM     12  C   UNL     1      41.938  -1.756  15.250  0.00  0.00    +0.000 C 
ATOM     13  C   UNL     1      42.521  -1.376  14.020  0.00  0.00    +0.000 C 
ATOM     14  C   UNL     1      41.774  -1.459  12.725  0.00  0.00    +0.000 C 
ATOM     15  C   UNL     1      40.441  -1.977  12.643  0.00  0.00    +0.000 C 
ATOM     16  O   UNL     1      39.862  -2.114  11.578  0.00  0.00    +0.000 OA
ATOM     17  N   UNL     1      39.926  -2.349  13.883  0.00  0.00    +0.000 N 
ATOM     18  C   UNL     1      40.587  -2.451  15.115  0.00  0.00    +0.000 C 
ATOM     19  H   UNL     1      39.045  -2.840  13.838  0.00  0.00    +0.000 HD
ATOM     20  O   UNL     1      40.141  -3.187  15.990  0.00  0.00    +0.000 OA
ENDBRANCH   3  12
TORSDOF 1
ENDMDL
MODEL 9
REMARK VINA RESULT:      -5.3     19.724     21.234
REMARK  Name = Thalidomide.pdbqt.pdb
REMARK  1 active torsions:
REMARK  status: ('A' for Active; 'I' for Inactive)
REMARK    1  A    between atoms: N_3  and  C_12
REMARK                            x       y       z     vdW  Elec       q    Type
REMARK                         _______ _______ _______ _____ _____    ______ ____
ROOT
ATOM      1  O   UNL     1      42.948 -12.529  -3.597  0.00  0.00    +0.000 OA
ATOM      2  O   UNL     1      41.020 -10.649   0.134  0.00  0.00    +0.000 OA
ATOM      3  N   UNL     1      42.246 -11.158  -1.814  0.00  0.00    +0.000 N 
ATOM      4  C   UNL     1      42.175 -12.192  -2.719  0.00  0.00    +0.000 C 
ATOM      5  C   UNL     1      41.189 -11.213  -0.931  0.00  0.00    +0.000 C 
ATOM      6  C   UNL     1      40.915 -12.884  -2.473  0.00  0.00    +0.000 A 
ATOM      7  C   UNL     1      40.305 -12.275  -1.397  0.00  0.00    +0.000 A 
ATOM      8  C   UNL     1      40.355 -13.967  -3.120  0.00  0.00    +0.000 A 
ATOM      9  C   UNL     1      39.103 -12.716  -0.885  0.00  0.00    +0.000 A 
ATOM     10  C   UNL     1      39.130 -14.423  -2.630  0.00  0.00    +0.000 A 
ATOM     11  C   UNL     1      38.512 -13.807  -1.528  0.00  0.00    +0.000 A 
ENDROOT
BRANCH   3  12
ATOM     12  C   UNL     1      43.291 -10.273  -1.718  0.00  0.00    +0.000 C 
ATOM     13  C   UNL     1      44.449 -10.523  -0.947  0.00  0.00    +0.000 C 
ATOM     14  C   UNL     1      45.498  -9.478  -0.724  0.00  0.00    +0.000 C 
ATOM     15  C   UNL     1      45.421  -8.177  -1.320  0.00  0.00    +0.000 C 
ATOM     16  O   UNL     1      46.313  -7.354  -1.199  0.00  0.00    +0.000 OA
ATOM     17  N   UNL     1      44.268  -7.996  -2.080  0.00  0.00    +0.000 N 
ATOM     18  C   UNL     1      43.313  -8.946  -2.470  0.00  0.00    +0.000 C 
ATOM     19  H   UNL     1      44.254  -7.143  -2.619  0.00  0.00    +0.000 HD
ATOM     20  O   UNL     1      42.623  -8.747  -3.466  0.00  0.00    +0.000 OA
ENDBRANCH   3  12
TORSDOF 1
ENDMDL
