MODEL 1
REMARK VINA RESULT:      -7.5      0.000      0.000
REMARK  Name = Thapsigargin.pdbqt.pdb
REMARK  10 active torsions:
REMARK  status: ('A' for Active; 'I' for Inactive)
REMARK    1  A    between atoms: O_2  and  C_24
REMARK    2  A    between atoms: C_17  and  O_43
REMARK    3  A    between atoms: C_19  and  C_24
REMARK    4  A    between atoms: C_19  and  O_47
REMARK    5  A    between atoms: C_27  and  C_35
REMARK    6  A    between atoms: C_35  and  C_36
REMARK    7  A    between atoms: C_37  and  C_38
REMARK    8  A    between atoms: C_39  and  C_40
REMARK    9  A    between atoms: C_42  and  O_43
REMARK   10  A    between atoms: C_42  and  C_44
REMARK                            x       y       z     vdW  Elec       q    Type
REMARK                         _______ _______ _______ _____ _____    ______ ____
ROOT
ATOM      1  O   UNL     1      41.443  -3.115  14.432  0.00  0.00    +0.000 OA
ATOM      2  O   UNL     1      41.517  -1.113  20.149  0.00  0.00    +0.000 OA
ATOM      3  O   UNL     1      43.826  -0.449  19.272  0.00  0.00    +0.000 OA
ATOM      4  O   UNL     1      43.691  -4.608  18.930  0.00  0.00    +0.000 OA
ATOM      5  O   UNL     1      40.915  -2.860  12.222  0.00  0.00    +0.000 OA
ATOM      6  O   UNL     1      42.820   0.581  18.957  0.00  0.00    +0.000 OA
ATOM      7  O   UNL     1      45.351  -1.003  21.105  0.00  0.00    +0.000 OA
ATOM      8  O   UNL     1      44.697  -4.822  16.661  0.00  0.00    +0.000 OA
ATOM      9  C   UNL     1      40.805  -2.671  18.274  0.00  0.00    +0.000 C 
ATOM     10  C   UNL     1      39.869  -1.663  15.331  0.00  0.00    +0.000 C 
ATOM     11  C   UNL     1      40.896  -2.622  15.609  0.00  0.00    +0.000 C 
ATOM     12  C   UNL     1      39.704  -1.708  18.564  0.00  0.00    +0.000 C 
ATOM     13  C   UNL     1      41.270  -3.044  16.837  0.00  0.00    +0.000 C 
ATOM     14  C   UNL     1      39.179  -1.211  16.327  0.00  0.00    +0.000 C 
ATOM     15  C   UNL     1      38.859  -1.117  17.698  0.00  0.00    +0.000 C 
ATOM     16  C   UNL     1      41.409  -3.680  19.115  0.00  0.00    +0.000 C 
ATOM     17  C   UNL     1      39.738  -1.491  13.873  0.00  0.00    +0.000 C 
ATOM     18  C   UNL     1      42.431  -4.327  18.391  0.00  0.00    +0.000 C 
ATOM     19  C   UNL     1      42.278  -4.083  17.072  0.00  0.00    +0.000 C 
ATOM     20  C   UNL     1      41.105  -1.303  18.781  0.00  0.00    +0.000 C 
ATOM     21  C   UNL     1      40.750  -2.535  13.395  0.00  0.00    +0.000 C 
ATOM     22  C   UNL     1      43.454  -4.433  16.397  0.00  0.00    +0.000 C 
ATOM     23  C   UNL     1      41.514   0.048  19.308  0.00  0.00    +0.000 C 
ATOM     24  C   UNL     1      44.471  -0.133  20.473  0.00  0.00    +0.000 C 
ATOM     25  C   UNL     1      44.827  -4.496  18.044  0.00  0.00    +0.000 C 
ATOM     26  C   UNL     1      40.509   1.116  19.761  0.00  0.00    +0.000 C 
ATOM     27  C   UNL     1      45.926  -3.840  18.470  0.00  0.00    +0.000 C 
ATOM     28  C   UNL     1      47.133  -3.650  17.578  0.00  0.00    +0.000 C 
ATOM     29  C   UNL     1      45.850  -2.973  19.596  0.00  0.00    +0.000 C 
ATOM     30  C   UNL     1      45.639  -2.066  20.356  0.00  0.00    +0.000 C 
ENDROOT
BRANCH  17  31
ATOM     31  O   UNL     1      38.414  -1.767  13.450  0.00  0.00    +0.000 OA
ATOM     32  H   UNL     1      38.307  -2.732  13.539  0.00  0.00    +0.000 HD
ENDBRANCH  17  31
BRANCH  17  33
ATOM     33  C   UNL     1      40.114  -0.123  13.473  0.00  0.00    +0.000 C 
BRANCH  33  34
ATOM     34  O   UNL     1      40.434   1.122  13.124  0.00  0.00    +0.000 OA
ATOM     35  H   UNL     1      41.152   1.471  13.684  0.00  0.00    +0.000 HD
ENDBRANCH  33  34
ENDBRANCH  17  33
BRANCH  24  36
ATOM     36  C   UNL     1      44.140   0.916  21.165  0.00  0.00    +0.000 C 
BRANCH  36  37
ATOM     37  C   UNL     1      43.703   2.137  21.979  0.00  0.00    +0.000 C 
ATOM     38  C   UNL     1      43.354   3.112  22.586  0.00  0.00    +0.000 C 
BRANCH  38  39
ATOM     39  C   UNL     1      42.902   4.369  23.337  0.00  0.00    +0.000 C 
ATOM     40  C   UNL     1      42.560   5.361  23.920  0.00  0.00    +0.000 C 
BRANCH  40  41
ATOM     41  C   UNL     1      42.129   6.630  24.661  0.00  0.00    +0.000 C 
ATOM     42  C   UNL     1      41.751   7.734  25.305  0.00  0.00    +0.000 C 
ENDBRANCH  40  41
ENDBRANCH  38  39
ENDBRANCH  36  37
ENDBRANCH  24  36
BRANCH  15  43
ATOM     43  O   UNL     1      37.592  -0.692  18.113  0.00  0.00    +0.000 OA
BRANCH  43  45
ATOM     44  O   UNL     1      37.043   0.958  19.662  0.00  0.00    +0.000 OA
ATOM     45  C   UNL     1      37.568   0.576  18.625  0.00  0.00    +0.000 C 
BRANCH  45  46
ATOM     46  C   UNL     1      38.257   1.501  17.779  0.00  0.00    +0.000 C 
ATOM     47  C   UNL     1      38.837   2.270  17.068  0.00  0.00    +0.000 C 
ATOM     48  C   UNL     1      39.573   3.265  16.168  0.00  0.00    +0.000 C 
ENDBRANCH  45  46
ENDBRANCH  43  45
ENDBRANCH  15  43
TORSDOF 10
ENDMDL
MODEL 2
REMARK VINA RESULT:      -7.5     13.974     17.283
REMARK  Name = Thapsigargin.pdbqt.pdb
REMARK  10 active torsions:
REMARK  status: ('A' for Active; 'I' for Inactive)
REMARK    1  A    between atoms: O_2  and  C_24
REMARK    2  A    between atoms: C_17  and  O_43
REMARK    3  A    between atoms: C_19  and  C_24
REMARK    4  A    between atoms: C_19  and  O_47
REMARK    5  A    between atoms: C_27  and  C_35
REMARK    6  A    between atoms: C_35  and  C_36
REMARK    7  A    between atoms: C_37  and  C_38
REMARK    8  A    between atoms: C_39  and  C_40
REMARK    9  A    between atoms: C_42  and  O_43
REMARK   10  A    between atoms: C_42  and  C_44
REMARK                            x       y       z     vdW  Elec       q    Type
REMARK                         _______ _______ _______ _____ _____    ______ ____
ROOT
ATOM      1  O   UNL     1      52.779  -1.216   8.892  0.00  0.00    +0.000 OA
ATOM      2  O   UNL     1      50.801   3.566   5.741  0.00  0.00    +0.000 OA
ATOM      3  O   UNL     1      52.189   4.633   7.605  0.00  0.00    +0.000 OA
ATOM      4  O   UNL     1      49.168   2.527   9.572  0.00  0.00    +0.000 OA
ATOM      5  O   UNL     1      54.266  -2.917   9.236  0.00  0.00    +0.000 OA
ATOM      6  O   UNL     1      53.035   4.265   6.457  0.00  0.00    +0.000 OA
ATOM      7  O   UNL     1      50.847   6.545   8.338  0.00  0.00    +0.000 OA
ATOM      8  O   UNL     1      50.549   1.497  11.370  0.00  0.00    +0.000 OA
ATOM      9  C   UNL     1      50.654   1.199   6.650  0.00  0.00    +0.000 C 
ATOM     10  C   UNL     1      53.118  -0.918   6.614  0.00  0.00    +0.000 C 
ATOM     11  C   UNL     1      52.353  -0.531   7.761  0.00  0.00    +0.000 C 
ATOM     12  C   UNL     1      51.061   1.155   5.216  0.00  0.00    +0.000 C 
ATOM     13  C   UNL     1      51.322   0.341   7.764  0.00  0.00    +0.000 C 
ATOM     14  C   UNL     1      52.753  -0.459   5.462  0.00  0.00    +0.000 C 
ATOM     15  C   UNL     1      51.931   0.320   4.619  0.00  0.00    +0.000 C 
ATOM     16  C   UNL     1      49.442   1.694   7.263  0.00  0.00    +0.000 C 
ATOM     17  C   UNL     1      54.134  -1.909   7.011  0.00  0.00    +0.000 C 
ATOM     18  C   UNL     1      49.536   1.533   8.660  0.00  0.00    +0.000 C 
ATOM     19  C   UNL     1      50.518   0.653   8.951  0.00  0.00    +0.000 C 
ATOM     20  C   UNL     1      51.441   2.312   6.048  0.00  0.00    +0.000 C 
ATOM     21  C   UNL     1      53.768  -2.082   8.487  0.00  0.00    +0.000 C 
ATOM     22  C   UNL     1      50.834   0.746  10.312  0.00  0.00    +0.000 C 
ATOM     23  C   UNL     1      52.219   3.495   5.533  0.00  0.00    +0.000 C 
ATOM     24  C   UNL     1      51.783   5.967   7.490  0.00  0.00    +0.000 C 
ATOM     25  C   UNL     1      49.964   2.652  10.770  0.00  0.00    +0.000 C 
ATOM     26  C   UNL     1      52.619   3.664   4.061  0.00  0.00    +0.000 C 
ATOM     27  C   UNL     1      50.366   3.878  11.164  0.00  0.00    +0.000 C 
ATOM     28  C   UNL     1      51.238   4.075  12.384  0.00  0.00    +0.000 C 
ATOM     29  C   UNL     1      50.329   4.970  10.251  0.00  0.00    +0.000 C 
ATOM     30  C   UNL     1      50.530   5.751   9.359  0.00  0.00    +0.000 C 
ENDROOT
BRANCH  17  31
ATOM     31  O   UNL     1      53.992  -3.104   6.262  0.00  0.00    +0.000 OA
ATOM     32  H   UNL     1      54.052  -3.829   6.912  0.00  0.00    +0.000 HD
ENDBRANCH  17  31
BRANCH  17  33
ATOM     33  C   UNL     1      55.492  -1.366   6.830  0.00  0.00    +0.000 C 
BRANCH  33  34
ATOM     34  O   UNL     1      56.711  -0.853   6.670  0.00  0.00    +0.000 OA
ATOM     35  H   UNL     1      56.665   0.077   6.379  0.00  0.00    +0.000 HD
ENDBRANCH  33  34
ENDBRANCH  17  33
BRANCH  24  36
ATOM     36  C   UNL     1      52.119   6.692   6.465  0.00  0.00    +0.000 C 
BRANCH  36  37
ATOM     37  C   UNL     1      52.562   7.533   5.264  0.00  0.00    +0.000 C 
ATOM     38  C   UNL     1      52.941   8.173   4.322  0.00  0.00    +0.000 C 
BRANCH  38  39
ATOM     39  C   UNL     1      53.447   8.974   3.118  0.00  0.00    +0.000 C 
ATOM     40  C   UNL     1      53.858   9.599   2.178  0.00  0.00    +0.000 C 
BRANCH  40  41
ATOM     41  C   UNL     1      54.388  10.392   0.981  0.00  0.00    +0.000 C 
ATOM     42  C   UNL     1      54.853  11.084  -0.060  0.00  0.00    +0.000 C 
ENDBRANCH  40  41
ENDBRANCH  38  39
ENDBRANCH  36  37
ENDBRANCH  24  36
BRANCH  15  43
ATOM     43  O   UNL     1      51.822   0.029   3.254  0.00  0.00    +0.000 OA
BRANCH  43  45
ATOM     44  O   UNL     1      49.758  -0.071   2.178  0.00  0.00    +0.000 OA
ATOM     45  C   UNL     1      50.629  -0.539   2.898  0.00  0.00    +0.000 C 
BRANCH  45  46
ATOM     46  C   UNL     1      50.461  -1.830   3.490  0.00  0.00    +0.000 C 
ATOM     47  C   UNL     1      50.315  -2.911   3.983  0.00  0.00    +0.000 C 
ATOM     48  C   UNL     1      50.141  -4.291   4.622  0.00  0.00    +0.000 C 
ENDBRANCH  45  46
ENDBRANCH  43  45
ENDBRANCH  15  43
TORSDOF 10
ENDMDL
MODEL 3
REMARK VINA RESULT:      -7.3     13.532     15.152
REMARK  Name = Thapsigargin.pdbqt.pdb
REMARK  10 active torsions:
REMARK  status: ('A' for Active; 'I' for Inactive)
REMARK    1  A    between atoms: O_2  and  C_24
REMARK    2  A    between atoms: C_17  and  O_43
REMARK    3  A    between atoms: C_19  and  C_24
REMARK    4  A    between atoms: C_19  and  O_47
REMARK    5  A    between atoms: C_27  and  C_35
REMARK    6  A    between atoms: C_35  and  C_36
REMARK    7  A    between atoms: C_37  and  C_38
REMARK    8  A    between atoms: C_39  and  C_40
REMARK    9  A    between atoms: C_42  and  O_43
REMARK   10  A    between atoms: C_42  and  C_44
REMARK                            x       y       z     vdW  Elec       q    Type
REMARK                         _______ _______ _______ _____ _____    ______ ____
ROOT
ATOM      1  O   UNL     1      52.309   2.142   7.065  0.00  0.00    +0.000 OA
ATOM      2  O   UNL     1      51.199   6.152  11.469  0.00  0.00    +0.000 OA
ATOM      3  O   UNL     1      53.483   5.199  12.114  0.00  0.00    +0.000 OA
ATOM      4  O   UNL     1      50.900   1.919  12.112  0.00  0.00    +0.000 OA
ATOM      5  O   UNL     1      53.068   1.616   4.974  0.00  0.00    +0.000 OA
ATOM      6  O   UNL     1      53.622   6.321  11.170  0.00  0.00    +0.000 OA
ATOM      7  O   UNL     1      53.336   4.865  14.535  0.00  0.00    +0.000 OA
ATOM      8  O   UNL     1      52.376   0.290  10.942  0.00  0.00    +0.000 OA
ATOM      9  C   UNL     1      50.546   4.466   9.685  0.00  0.00    +0.000 C 
ATOM     10  C   UNL     1      51.833   4.387   6.703  0.00  0.00    +0.000 C 
ATOM     11  C   UNL     1      51.768   3.293   7.625  0.00  0.00    +0.000 C 
ATOM     12  C   UNL     1      50.325   5.847   9.167  0.00  0.00    +0.000 C 
ATOM     13  C   UNL     1      51.220   3.333   8.859  0.00  0.00    +0.000 C 
ATOM     14  C   UNL     1      51.252   5.493   7.036  0.00  0.00    +0.000 C 
ATOM     15  C   UNL     1      50.523   6.316   7.921  0.00  0.00    +0.000 C 
ATOM     16  C   UNL     1      49.938   3.778  10.801  0.00  0.00    +0.000 C 
ATOM     17  C   UNL     1      52.477   3.941   5.455  0.00  0.00    +0.000 C 
ATOM     18  C   UNL     1      50.494   2.487  10.900  0.00  0.00    +0.000 C 
ATOM     19  C   UNL     1      51.110   2.167   9.742  0.00  0.00    +0.000 C 
ATOM     20  C   UNL     1      51.394   5.599  10.152  0.00  0.00    +0.000 C 
ATOM     21  C   UNL     1      52.670   2.457   5.775  0.00  0.00    +0.000 C 
ATOM     22  C   UNL     1      51.934   1.053   9.949  0.00  0.00    +0.000 C 
ATOM     23  C   UNL     1      52.292   6.676  10.702  0.00  0.00    +0.000 C 
ATOM     24  C   UNL     1      53.589   5.666  13.428  0.00  0.00    +0.000 C 
ATOM     25  C   UNL     1      52.079   1.085  12.088  0.00  0.00    +0.000 C 
ATOM     26  C   UNL     1      52.130   8.164  10.364  0.00  0.00    +0.000 C 
ATOM     27  C   UNL     1      53.025   1.262  13.035  0.00  0.00    +0.000 C 
ATOM     28  C   UNL     1      54.303   0.453  13.042  0.00  0.00    +0.000 C 
ATOM     29  C   UNL     1      53.047   2.457  13.808  0.00  0.00    +0.000 C 
ATOM     30  C   UNL     1      53.165   3.586  14.206  0.00  0.00    +0.000 C 
ENDROOT
BRANCH  17  31
ATOM     31  O   UNL     1      51.628   4.162   4.342  0.00  0.00    +0.000 OA
ATOM     32  H   UNL     1      51.065   4.919   4.589  0.00  0.00    +0.000 HD
ENDBRANCH  17  31
BRANCH  17  33
ATOM     33  C   UNL     1      53.759   4.640   5.250  0.00  0.00    +0.000 C 
BRANCH  33  34
ATOM     34  O   UNL     1      54.921   5.270   5.088  0.00  0.00    +0.000 OA
ATOM     35  H   UNL     1      54.890   6.168   5.469  0.00  0.00    +0.000 HD
ENDBRANCH  33  34
ENDBRANCH  17  33
BRANCH  24  36
ATOM     36  C   UNL     1      53.749   6.929  13.688  0.00  0.00    +0.000 C 
BRANCH  36  37
ATOM     37  C   UNL     1      53.962   8.423  13.951  0.00  0.00    +0.000 C 
ATOM     38  C   UNL     1      54.100   9.601  14.136  0.00  0.00    +0.000 C 
BRANCH  38  39
ATOM     39  C   UNL     1      54.253  11.109  14.359  0.00  0.00    +0.000 C 
ATOM     40  C   UNL     1      54.373  12.289  14.548  0.00  0.00    +0.000 C 
BRANCH  40  41
ATOM     41  C   UNL     1      54.528  13.792  14.797  0.00  0.00    +0.000 C 
ATOM     42  C   UNL     1      54.664  15.100  15.011  0.00  0.00    +0.000 C 
ENDBRANCH  40  41
ENDBRANCH  38  39
ENDBRANCH  36  37
ENDBRANCH  24  36
BRANCH  15  43
ATOM     43  O   UNL     1      49.800   7.416   7.447  0.00  0.00    +0.000 OA
BRANCH  43  45
ATOM     44  O   UNL     1      50.503   9.577   7.956  0.00  0.00    +0.000 OA
ATOM     45  C   UNL     1      50.547   8.551   7.292  0.00  0.00    +0.000 C 
BRANCH  45  46
ATOM     46  C   UNL     1      51.457   8.439   6.194  0.00  0.00    +0.000 C 
ATOM     47  C   UNL     1      52.222   8.340   5.278  0.00  0.00    +0.000 C 
ATOM     48  C   UNL     1      53.194   8.228   4.102  0.00  0.00    +0.000 C 
ENDBRANCH  45  46
ENDBRANCH  43  45
ENDBRANCH  15  43
TORSDOF 10
ENDMDL
MODEL 4
REMARK VINA RESULT:      -7.1     14.148     17.329
REMARK  Name = Thapsigargin.pdbqt.pdb
REMARK  10 active torsions:
REMARK  status: ('A' for Active; 'I' for Inactive)
REMARK    1  A    between atoms: O_2  and  C_24
REMARK    2  A    between atoms: C_17  and  O_43
REMARK    3  A    between atoms: C_19  and  C_24
REMARK    4  A    between atoms: C_19  and  O_47
REMARK    5  A    between atoms: C_27  and  C_35
REMARK    6  A    between atoms: C_35  and  C_36
REMARK    7  A    between atoms: C_37  and  C_38
REMARK    8  A    between atoms: C_39  and  C_40
REMARK    9  A    between atoms: C_42  and  O_43
REMARK   10  A    between atoms: C_42  and  C_44
REMARK                            x       y       z     vdW  Elec       q    Type
REMARK                         _______ _______ _______ _____ _____    ______ ____
ROOT
ATOM      1  O   UNL     1      51.485  -2.370   7.998  0.00  0.00    +0.000 OA
ATOM      2  O   UNL     1      50.511   3.079   5.538  0.00  0.00    +0.000 OA
ATOM      3  O   UNL     1      52.259   3.561   7.342  0.00  0.00    +0.000 OA
ATOM      4  O   UNL     1      48.972   2.015   9.401  0.00  0.00    +0.000 OA
ATOM      5  O   UNL     1      52.528  -4.404   8.023  0.00  0.00    +0.000 OA
ATOM      6  O   UNL     1      52.896   3.141   6.082  0.00  0.00    +0.000 OA
ATOM      7  O   UNL     1      51.490   5.637   8.388  0.00  0.00    +0.000 OA
ATOM      8  O   UNL     1      50.191   0.483  10.940  0.00  0.00    +0.000 OA
ATOM      9  C   UNL     1      49.855   0.725   6.228  0.00  0.00    +0.000 C 
ATOM     10  C   UNL     1      51.710  -1.896   5.735  0.00  0.00    +0.000 C 
ATOM     11  C   UNL     1      51.155  -1.477   6.987  0.00  0.00    +0.000 C 
ATOM     12  C   UNL     1      50.126   0.755   4.762  0.00  0.00    +0.000 C 
ATOM     13  C   UNL     1      50.374  -0.391   7.180  0.00  0.00    +0.000 C 
ATOM     14  C   UNL     1      51.381  -1.232   4.676  0.00  0.00    +0.000 C 
ATOM     15  C   UNL     1      50.715  -0.187   4.001  0.00  0.00    +0.000 C 
ATOM     16  C   UNL     1      48.853   1.417   7.007  0.00  0.00    +0.000 C 
ATOM     17  C   UNL     1      52.477  -3.139   5.929  0.00  0.00    +0.000 C 
ATOM     18  C   UNL     1      49.012   1.075   8.365  0.00  0.00    +0.000 C 
ATOM     19  C   UNL     1      49.766  -0.040   8.468  0.00  0.00    +0.000 C 
ATOM     20  C   UNL     1      50.843   1.682   5.656  0.00  0.00    +0.000 C 
ATOM     21  C   UNL     1      52.196  -3.392   7.412  0.00  0.00    +0.000 C 
ATOM     22  C   UNL     1      50.200  -0.185   9.792  0.00  0.00    +0.000 C 
ATOM     23  C   UNL     1      51.846   2.700   5.178  0.00  0.00    +0.000 C 
ATOM     24  C   UNL     1      52.186   4.957   7.396  0.00  0.00    +0.000 C 
ATOM     25  C   UNL     1      49.865   1.806  10.516  0.00  0.00    +0.000 C 
ATOM     26  C   UNL     1      52.161   2.941   3.696  0.00  0.00    +0.000 C 
ATOM     27  C   UNL     1      50.586   2.847  10.982  0.00  0.00    +0.000 C 
ATOM     28  C   UNL     1      51.571   2.686  12.118  0.00  0.00    +0.000 C 
ATOM     29  C   UNL     1      50.749   4.016  10.186  0.00  0.00    +0.000 C 
ATOM     30  C   UNL     1      51.067   4.826   9.356  0.00  0.00    +0.000 C 
ENDROOT
BRANCH  17  31
ATOM     31  O   UNL     1      51.988  -4.170   5.089  0.00  0.00    +0.000 OA
ATOM     32  H   UNL     1      52.776  -4.561   4.668  0.00  0.00    +0.000 HD
ENDBRANCH  17  31
BRANCH  17  33
ATOM     33  C   UNL     1      53.910  -2.916   5.661  0.00  0.00    +0.000 C 
BRANCH  33  34
ATOM     34  O   UNL     1      55.209  -2.726   5.440  0.00  0.00    +0.000 OA
ATOM     35  H   UNL     1      55.591  -3.467   4.933  0.00  0.00    +0.000 HD
ENDBRANCH  33  34
ENDBRANCH  17  33
BRANCH  24  36
ATOM     36  C   UNL     1      52.610   5.697   6.416  0.00  0.00    +0.000 C 
BRANCH  36  37
ATOM     37  C   UNL     1      53.061   6.582   5.249  0.00  0.00    +0.000 C 
ATOM     38  C   UNL     1      53.401   7.304   4.353  0.00  0.00    +0.000 C 
BRANCH  38  39
ATOM     39  C   UNL     1      53.827   8.248   3.224  0.00  0.00    +0.000 C 
ATOM     40  C   UNL     1      54.169   8.977   2.333  0.00  0.00    +0.000 C 
BRANCH  40  41
ATOM     41  C   UNL     1      54.607   9.899   1.192  0.00  0.00    +0.000 C 
ATOM     42  C   UNL     1      54.987  10.704   0.200  0.00  0.00    +0.000 C 
ENDBRANCH  40  41
ENDBRANCH  38  39
ENDBRANCH  36  37
ENDBRANCH  24  36
BRANCH  15  43
ATOM     43  O   UNL     1      50.432  -0.281   2.634  0.00  0.00    +0.000 OA
BRANCH  43  45
ATOM     44  O   UNL     1      51.439  -2.123   1.625  0.00  0.00    +0.000 OA
ATOM     45  C   UNL     1      51.390  -0.934   1.908  0.00  0.00    +0.000 C 
BRANCH  45  46
ATOM     46  C   UNL     1      52.423  -0.044   1.474  0.00  0.00    +0.000 C 
ATOM     47  C   UNL     1      53.286   0.698   1.105  0.00  0.00    +0.000 C 
ATOM     48  C   UNL     1      54.394   1.650   0.648  0.00  0.00    +0.000 C 
ENDBRANCH  45  46
ENDBRANCH  43  45
ENDBRANCH  15  43
TORSDOF 10
ENDMDL
MODEL 5
REMARK VINA RESULT:      -7.1     13.879     17.253
REMARK  Name = Thapsigargin.pdbqt.pdb
REMARK  10 active torsions:
REMARK  status: ('A' for Active; 'I' for Inactive)
REMARK    1  A    between atoms: O_2  and  C_24
REMARK    2  A    between atoms: C_17  and  O_43
REMARK    3  A    between atoms: C_19  and  C_24
REMARK    4  A    between atoms: C_19  and  O_47
REMARK    5  A    between atoms: C_27  and  C_35
REMARK    6  A    between atoms: C_35  and  C_36
REMARK    7  A    between atoms: C_37  and  C_38
REMARK    8  A    between atoms: C_39  and  C_40
REMARK    9  A    between atoms: C_42  and  O_43
REMARK   10  A    between atoms: C_42  and  C_44
REMARK                            x       y       z     vdW  Elec       q    Type
REMARK                         _______ _______ _______ _____ _____    ______ ____
ROOT
ATOM      1  O   UNL     1      53.513   1.229  11.742  0.00  0.00    +0.000 OA
ATOM      2  O   UNL     1      51.336   4.654   7.245  0.00  0.00    +0.000 OA
ATOM      3  O   UNL     1      52.873   6.262   8.508  0.00  0.00    +0.000 OA
ATOM      4  O   UNL     1      49.996   5.094  11.299  0.00  0.00    +0.000 OA
ATOM      5  O   UNL     1      55.009  -0.293  12.563  0.00  0.00    +0.000 OA
ATOM      6  O   UNL     1      53.624   5.483   7.508  0.00  0.00    +0.000 OA
ATOM      7  O   UNL     1      51.606   8.355   8.605  0.00  0.00    +0.000 OA
ATOM      8  O   UNL     1      51.505   4.718  13.245  0.00  0.00    +0.000 OA
ATOM      9  C   UNL     1      51.241   2.768   8.944  0.00  0.00    +0.000 C 
ATOM     10  C   UNL     1      53.677   0.690   9.489  0.00  0.00    +0.000 C 
ATOM     11  C   UNL     1      53.007   1.483  10.475  0.00  0.00    +0.000 C 
ATOM     12  C   UNL     1      51.534   2.206   7.594  0.00  0.00    +0.000 C 
ATOM     13  C   UNL     1      51.986   2.336  10.239  0.00  0.00    +0.000 C 
ATOM     14  C   UNL     1      53.227   0.724   8.277  0.00  0.00    +0.000 C 
ATOM     15  C   UNL     1      52.349   1.184   7.272  0.00  0.00    +0.000 C 
ATOM     16  C   UNL     1      50.084   3.489   9.423  0.00  0.00    +0.000 C 
ATOM     17  C   UNL     1      54.713  -0.132  10.140  0.00  0.00    +0.000 C 
ATOM     18  C   UNL     1      50.285   3.829  10.776  0.00  0.00    +0.000 C 
ATOM     19  C   UNL     1      51.279   3.075  11.291  0.00  0.00    +0.000 C 
ATOM     20  C   UNL     1      51.988   3.568   7.932  0.00  0.00    +0.000 C 
ATOM     21  C   UNL     1      54.461   0.241  11.603  0.00  0.00    +0.000 C 
ATOM     22  C   UNL     1      51.701   3.632  12.505  0.00  0.00    +0.000 C 
ATOM     23  C   UNL     1      52.732   4.464   6.977  0.00  0.00    +0.000 C 
ATOM     24  C   UNL     1      52.469   7.482   7.955  0.00  0.00    +0.000 C 
ATOM     25  C   UNL     1      50.884   5.606  12.316  0.00  0.00    +0.000 C 
ATOM     26  C   UNL     1      53.018   4.088   5.517  0.00  0.00    +0.000 C 
ATOM     27  C   UNL     1      51.325   6.878  12.221  0.00  0.00    +0.000 C 
ATOM     28  C   UNL     1      52.291   7.462  13.227  0.00  0.00    +0.000 C 
ATOM     29  C   UNL     1      51.226   7.577  10.984  0.00  0.00    +0.000 C 
ATOM     30  C   UNL     1      51.363   7.985   9.862  0.00  0.00    +0.000 C 
ENDROOT
BRANCH  17  31
ATOM     31  O   UNL     1      54.504  -1.509   9.876  0.00  0.00    +0.000 OA
ATOM     32  H   UNL     1      53.752  -1.772  10.440  0.00  0.00    +0.000 HD
ENDBRANCH  17  31
BRANCH  17  33
ATOM     33  C   UNL     1      56.057   0.264   9.684  0.00  0.00    +0.000 C 
BRANCH  33  34
ATOM     34  O   UNL     1      57.276   0.599   9.264  0.00  0.00    +0.000 OA
ATOM     35  H   UNL     1      57.725   1.174   9.911  0.00  0.00    +0.000 HD
ENDBRANCH  33  34
ENDBRANCH  17  33
BRANCH  24  36
ATOM     36  C   UNL     1      52.730   7.786   6.718  0.00  0.00    +0.000 C 
BRANCH  36  37
ATOM     37  C   UNL     1      53.059   8.098   5.255  0.00  0.00    +0.000 C 
ATOM     38  C   UNL     1      53.328   8.309   4.104  0.00  0.00    +0.000 C 
BRANCH  38  39
ATOM     39  C   UNL     1      53.678   8.550   2.632  0.00  0.00    +0.000 C 
ATOM     40  C   UNL     1      53.966   8.736   1.482  0.00  0.00    +0.000 C 
BRANCH  40  41
ATOM     41  C   UNL     1      54.340   8.967   0.015  0.00  0.00    +0.000 C 
ATOM     42  C   UNL     1      54.666   9.171  -1.261  0.00  0.00    +0.000 C 
ENDBRANCH  40  41
ENDBRANCH  38  39
ENDBRANCH  36  37
ENDBRANCH  24  36
BRANCH  15  43
ATOM     43  O   UNL     1      52.131   0.434   6.111  0.00  0.00    +0.000 OA
BRANCH  43  45
ATOM     44  O   UNL     1      50.191  -0.528   6.970  0.00  0.00    +0.000 OA
ATOM     45  C   UNL     1      50.894  -0.146   6.044  0.00  0.00    +0.000 C 
BRANCH  45  46
ATOM     46  C   UNL     1      50.450  -0.291   4.692  0.00  0.00    +0.000 C 
ATOM     47  C   UNL     1      50.083  -0.417   3.560  0.00  0.00    +0.000 C 
ATOM     48  C   UNL     1      49.608  -0.563   2.112  0.00  0.00    +0.000 C 
ENDBRANCH  45  46
ENDBRANCH  43  45
ENDBRANCH  15  43
TORSDOF 10
ENDMDL
MODEL 6
REMARK VINA RESULT:      -6.9     15.251     18.862
REMARK  Name = Thapsigargin.pdbqt.pdb
REMARK  10 active torsions:
REMARK  status: ('A' for Active; 'I' for Inactive)
REMARK    1  A    between atoms: O_2  and  C_24
REMARK    2  A    between atoms: C_17  and  O_43
REMARK    3  A    between atoms: C_19  and  C_24
REMARK    4  A    between atoms: C_19  and  O_47
REMARK    5  A    between atoms: C_27  and  C_35
REMARK    6  A    between atoms: C_35  and  C_36
REMARK    7  A    between atoms: C_37  and  C_38
REMARK    8  A    between atoms: C_39  and  C_40
REMARK    9  A    between atoms: C_42  and  O_43
REMARK   10  A    between atoms: C_42  and  C_44
REMARK                            x       y       z     vdW  Elec       q    Type
REMARK                         _______ _______ _______ _____ _____    ______ ____
ROOT
ATOM      1  O   UNL     1      55.181   7.816   9.147  0.00  0.00    +0.000 OA
ATOM      2  O   UNL     1      51.355   4.386   5.938  0.00  0.00    +0.000 OA
ATOM      3  O   UNL     1      53.619   3.907   4.847  0.00  0.00    +0.000 OA
ATOM      4  O   UNL     1      53.030   8.012   4.367  0.00  0.00    +0.000 OA
ATOM      5  O   UNL     1      56.523   8.164  10.964  0.00  0.00    +0.000 OA
ATOM      6  O   UNL     1      53.388   3.025   6.005  0.00  0.00    +0.000 OA
ATOM      7  O   UNL     1      53.145   3.916   2.445  0.00  0.00    +0.000 OA
ATOM      8  O   UNL     1      55.322   8.784   4.962  0.00  0.00    +0.000 OA
ATOM      9  C   UNL     1      52.001   6.401   7.342  0.00  0.00    +0.000 C 
ATOM     10  C   UNL     1      53.760   6.226  10.068  0.00  0.00    +0.000 C 
ATOM     11  C   UNL     1      54.044   7.048   8.930  0.00  0.00    +0.000 C 
ATOM     12  C   UNL     1      51.249   5.428   8.186  0.00  0.00    +0.000 C 
ATOM     13  C   UNL     1      53.299   7.123   7.806  0.00  0.00    +0.000 C 
ATOM     14  C   UNL     1      52.658   5.550  10.065  0.00  0.00    +0.000 C 
ATOM     15  C   UNL     1      51.452   5.110   9.478  0.00  0.00    +0.000 C 
ATOM     16  C   UNL     1      51.586   7.136   6.169  0.00  0.00    +0.000 C 
ATOM     17  C   UNL     1      54.787   6.446  11.102  0.00  0.00    +0.000 C 
ATOM     18  C   UNL     1      52.665   7.920   5.714  0.00  0.00    +0.000 C 
ATOM     19  C   UNL     1      53.588   8.034   6.693  0.00  0.00    +0.000 C 
ATOM     20  C   UNL     1      52.068   4.939   7.061  0.00  0.00    +0.000 C 
ATOM     21  C   UNL     1      55.606   7.549  10.427  0.00  0.00    +0.000 C 
ATOM     22  C   UNL     1      54.785   8.514   6.146  0.00  0.00    +0.000 C 
ATOM     23  C   UNL     1      52.187   3.486   6.682  0.00  0.00    +0.000 C 
ATOM     24  C   UNL     1      53.203   3.269   3.673  0.00  0.00    +0.000 C 
ATOM     25  C   UNL     1      54.440   8.103   4.070  0.00  0.00    +0.000 C 
ATOM     26  C   UNL     1      51.396   2.367   7.372  0.00  0.00    +0.000 C 
ATOM     27  C   UNL     1      54.955   7.327   3.094  0.00  0.00    +0.000 C 
ATOM     28  C   UNL     1      56.431   7.341   2.762  0.00  0.00    +0.000 C 
ATOM     29  C   UNL     1      54.228   6.198   2.621  0.00  0.00    +0.000 C 
ATOM     30  C   UNL     1      53.694   5.129   2.485  0.00  0.00    +0.000 C 
ENDROOT
BRANCH  17  31
ATOM     31  O   UNL     1      54.195   6.862  12.321  0.00  0.00    +0.000 OA
ATOM     32  H   UNL     1      53.618   7.613  12.088  0.00  0.00    +0.000 HD
ENDBRANCH  17  31
BRANCH  17  33
ATOM     33  C   UNL     1      55.575   5.220  11.324  0.00  0.00    +0.000 C 
BRANCH  33  34
ATOM     34  O   UNL     1      56.280   4.104  11.502  0.00  0.00    +0.000 OA
ATOM     35  H   UNL     1      57.128   4.292  11.947  0.00  0.00    +0.000 HD
ENDBRANCH  33  34
ENDBRANCH  17  33
BRANCH  24  36
ATOM     36  C   UNL     1      52.667   2.086   3.697  0.00  0.00    +0.000 C 
BRANCH  36  37
ATOM     37  C   UNL     1      52.075   0.674   3.751  0.00  0.00    +0.000 C 
ATOM     38  C   UNL     1      51.643  -0.446   3.780  0.00  0.00    +0.000 C 
BRANCH  38  39
ATOM     39  C   UNL     1      51.117  -1.884   3.809  0.00  0.00    +0.000 C 
ATOM     40  C   UNL     1      50.713  -3.014   3.842  0.00  0.00    +0.000 C 
BRANCH  40  41
ATOM     41  C   UNL     1      50.201  -4.457   3.893  0.00  0.00    +0.000 C 
ATOM     42  C   UNL     1      49.753  -5.711   3.939  0.00  0.00    +0.000 C 
ENDBRANCH  40  41
ENDBRANCH  38  39
ENDBRANCH  36  37
ENDBRANCH  24  36
BRANCH  15  43
ATOM     43  O   UNL     1      50.403   4.628  10.269  0.00  0.00    +0.000 OA
BRANCH  43  45
ATOM     44  O   UNL     1      51.156   3.151  11.906  0.00  0.00    +0.000 OA
ATOM     45  C   UNL     1      50.780   4.253  11.530  0.00  0.00    +0.000 C 
BRANCH  45  46
ATOM     46  C   UNL     1      50.685   5.340  12.455  0.00  0.00    +0.000 C 
ATOM     47  C   UNL     1      50.601   6.246  13.233  0.00  0.00    +0.000 C 
ATOM     48  C   UNL     1      50.503   7.414  14.217  0.00  0.00    +0.000 C 
ENDBRANCH  45  46
ENDBRANCH  43  45
ENDBRANCH  15  43
TORSDOF 10
ENDMDL
MODEL 7
REMARK VINA RESULT:      -6.8      3.326      8.396
REMARK  Name = Thapsigargin.pdbqt.pdb
REMARK  10 active torsions:
REMARK  status: ('A' for Active; 'I' for Inactive)
REMARK    1  A    between atoms: O_2  and  C_24
REMARK    2  A    between atoms: C_17  and  O_43
REMARK    3  A    between atoms: C_19  and  C_24
REMARK    4  A    between atoms: C_19  and  O_47
REMARK    5  A    between atoms: C_27  and  C_35
REMARK    6  A    between atoms: C_35  and  C_36
REMARK    7  A    between atoms: C_37  and  C_38
REMARK    8  A    between atoms: C_39  and  C_40
REMARK    9  A    between atoms: C_42  and  O_43
REMARK   10  A    between atoms: C_42  and  C_44
REMARK                            x       y       z     vdW  Elec       q    Type
REMARK                         _______ _______ _______ _____ _____    ______ ____
ROOT
ATOM      1  O   UNL     1      40.479   1.109  15.986  0.00  0.00    +0.000 OA
ATOM      2  O   UNL     1      42.904  -3.914  18.349  0.00  0.00    +0.000 OA
ATOM      3  O   UNL     1      40.633  -3.762  19.516  0.00  0.00    +0.000 OA
ATOM      4  O   UNL     1      42.632  -0.252  20.571  0.00  0.00    +0.000 OA
ATOM      5  O   UNL     1      39.317   2.197  14.345  0.00  0.00    +0.000 OA
ATOM      6  O   UNL     1      40.521  -4.461  18.224  0.00  0.00    +0.000 OA
ATOM      7  O   UNL     1      41.115  -4.319  21.851  0.00  0.00    +0.000 OA
ATOM      8  O   UNL     1      40.748   1.349  20.269  0.00  0.00    +0.000 OA
ATOM      9  C   UNL     1      42.986  -1.595  17.318  0.00  0.00    +0.000 C 
ATOM     10  C   UNL     1      41.238  -0.693  14.733  0.00  0.00    +0.000 C 
ATOM     11  C   UNL     1      41.277  -0.027  16.000  0.00  0.00    +0.000 C 
ATOM     12  C   UNL     1      43.336  -2.610  16.284  0.00  0.00    +0.000 C 
ATOM     13  C   UNL     1      42.017  -0.403  17.066  0.00  0.00    +0.000 C 
ATOM     14  C   UNL     1      42.031  -1.698  14.553  0.00  0.00    +0.000 C 
ATOM     15  C   UNL     1      43.014  -2.618  14.977  0.00  0.00    +0.000 C 
ATOM     16  C   UNL     1      43.650  -1.255  18.556  0.00  0.00    +0.000 C 
ATOM     17  C   UNL     1      40.337   0.036  13.822  0.00  0.00    +0.000 C 
ATOM     18  C   UNL     1      42.921  -0.236  19.203  0.00  0.00    +0.000 C 
ATOM     19  C   UNL     1      42.083   0.351  18.322  0.00  0.00    +0.000 C 
ATOM     20  C   UNL     1      42.414  -2.970  17.378  0.00  0.00    +0.000 C 
ATOM     21  C   UNL     1      39.968   1.224  14.714  0.00  0.00    +0.000 C 
ATOM     22  C   UNL     1      41.139   1.114  19.021  0.00  0.00    +0.000 C 
ATOM     23  C   UNL     1      41.798  -4.335  17.539  0.00  0.00    +0.000 C 
ATOM     24  C   UNL     1      40.816  -4.691  20.546  0.00  0.00    +0.000 C 
ATOM     25  C   UNL     1      41.348   0.268  20.980  0.00  0.00    +0.000 C 
ATOM     26  C   UNL     1      42.136  -5.525  16.632  0.00  0.00    +0.000 C 
ATOM     27  C   UNL     1      40.608  -0.436  21.862  0.00  0.00    +0.000 C 
ATOM     28  C   UNL     1      39.237   0.028  22.298  0.00  0.00    +0.000 C 
ATOM     29  C   UNL     1      40.899  -1.809  22.103  0.00  0.00    +0.000 C 
ATOM     30  C   UNL     1      41.027  -3.003  22.036  0.00  0.00    +0.000 C 
ENDROOT
BRANCH  17  31
ATOM     31  O   UNL     1      41.020   0.421  12.641  0.00  0.00    +0.000 OA
ATOM     32  H   UNL     1      40.393   0.257  11.911  0.00  0.00    +0.000 HD
ENDBRANCH  17  31
BRANCH  17  33
ATOM     33  C   UNL     1      39.166  -0.789  13.474  0.00  0.00    +0.000 C 
BRANCH  33  34
ATOM     34  O   UNL     1      38.123  -1.549  13.147  0.00  0.00    +0.000 OA
ATOM     35  H   UNL     1      38.408  -2.450  12.902  0.00  0.00    +0.000 HD
ENDBRANCH  33  34
ENDBRANCH  17  33
BRANCH  24  36
ATOM     36  C   UNL     1      40.902  -5.964  20.303  0.00  0.00    +0.000 C 
BRANCH  36  37
ATOM     37  C   UNL     1      41.011  -7.455  19.968  0.00  0.00    +0.000 C 
ATOM     38  C   UNL     1      41.122  -8.616  19.681  0.00  0.00    +0.000 C 
BRANCH  38  39
ATOM     39  C   UNL     1      41.286 -10.090  19.299  0.00  0.00    +0.000 C 
ATOM     40  C   UNL     1      41.408 -11.249  19.012  0.00  0.00    +0.000 C 
BRANCH  40  41
ATOM     41  C   UNL     1      41.557 -12.730  18.651  0.00  0.00    +0.000 C 
ATOM     42  C   UNL     1      41.687 -14.019  18.340  0.00  0.00    +0.000 C 
ENDBRANCH  40  41
ENDBRANCH  38  39
ENDBRANCH  36  37
ENDBRANCH  24  36
BRANCH  15  43
ATOM     43  O   UNL     1      43.816  -3.290  14.047  0.00  0.00    +0.000 OA
BRANCH  43  45
ATOM     44  O   UNL     1      42.114  -4.651  13.225  0.00  0.00    +0.000 OA
ATOM     45  C   UNL     1      43.269  -4.451  13.574  0.00  0.00    +0.000 C 
BRANCH  45  46
ATOM     46  C   UNL     1      44.233  -5.507  13.521  0.00  0.00    +0.000 C 
ATOM     47  C   UNL     1      45.040  -6.390  13.470  0.00  0.00    +0.000 C 
ATOM     48  C   UNL     1      46.069  -7.522  13.421  0.00  0.00    +0.000 C 
ENDBRANCH  45  46
ENDBRANCH  43  45
ENDBRANCH  15  43
TORSDOF 10
ENDMDL
MODEL 8
REMARK VINA RESULT:      -6.5      2.650      6.730
REMARK  Name = Thapsigargin.pdbqt.pdb
REMARK  10 active torsions:
REMARK  status: ('A' for Active; 'I' for Inactive)
REMARK    1  A    between atoms: O_2  and  C_24
REMARK    2  A    between atoms: C_17  and  O_43
REMARK    3  A    between atoms: C_19  and  C_24
REMARK    4  A    between atoms: C_19  and  O_47
REMARK    5  A    between atoms: C_27  and  C_35
REMARK    6  A    between atoms: C_35  and  C_36
REMARK    7  A    between atoms: C_37  and  C_38
REMARK    8  A    between atoms: C_39  and  C_40
REMARK    9  A    between atoms: C_42  and  O_43
REMARK   10  A    between atoms: C_42  and  C_44
REMARK                            x       y       z     vdW  Elec       q    Type
REMARK                         _______ _______ _______ _____ _____    ______ ____
ROOT
ATOM      1  O   UNL     1      42.253  -7.123  14.891  0.00  0.00    +0.000 OA
ATOM      2  O   UNL     1      44.107  -1.978  17.497  0.00  0.00    +0.000 OA
ATOM      3  O   UNL     1      41.640  -1.520  16.999  0.00  0.00    +0.000 OA
ATOM      4  O   UNL     1      43.379  -2.262  13.276  0.00  0.00    +0.000 OA
ATOM      5  O   UNL     1      41.470  -9.268  15.016  0.00  0.00    +0.000 OA
ATOM      6  O   UNL     1      41.804  -2.199  18.296  0.00  0.00    +0.000 OA
ATOM      7  O   UNL     1      41.613   0.770  16.135  0.00  0.00    +0.000 OA
ATOM      8  O   UNL     1      41.607  -3.734  12.330  0.00  0.00    +0.000 OA
ATOM      9  C   UNL     1      44.412  -4.091  16.122  0.00  0.00    +0.000 C 
ATOM     10  C   UNL     1      43.256  -7.002  16.983  0.00  0.00    +0.000 C 
ATOM     11  C   UNL     1      43.027  -6.337  15.735  0.00  0.00    +0.000 C 
ATOM     12  C   UNL     1      44.971  -4.303  17.488  0.00  0.00    +0.000 C 
ATOM     13  C   UNL     1      43.522  -5.132  15.382  0.00  0.00    +0.000 C 
ATOM     14  C   UNL     1      44.067  -6.447  17.823  0.00  0.00    +0.000 C 
ATOM     15  C   UNL     1      44.935  -5.417  18.243  0.00  0.00    +0.000 C 
ATOM     16  C   UNL     1      44.799  -3.157  15.089  0.00  0.00    +0.000 C 
ATOM     17  C   UNL     1      42.572  -8.308  16.978  0.00  0.00    +0.000 C 
ATOM     18  C   UNL     1      43.952  -3.330  13.975  0.00  0.00    +0.000 C 
ATOM     19  C   UNL     1      43.322  -4.521  14.063  0.00  0.00    +0.000 C 
ATOM     20  C   UNL     1      43.837  -3.379  17.298  0.00  0.00    +0.000 C 
ATOM     21  C   UNL     1      42.025  -8.311  15.548  0.00  0.00    +0.000 C 
ATOM     22  C   UNL     1      42.253  -4.546  13.159  0.00  0.00    +0.000 C 
ATOM     23  C   UNL     1      43.197  -2.598  18.416  0.00  0.00    +0.000 C 
ATOM     24  C   UNL     1      41.597  -0.135  17.189  0.00  0.00    +0.000 C 
ATOM     25  C   UNL     1      42.039  -2.448  12.771  0.00  0.00    +0.000 C 
ATOM     26  C   UNL     1      43.717  -2.612  19.859  0.00  0.00    +0.000 C 
ATOM     27  C   UNL     1      41.126  -1.472  12.962  0.00  0.00    +0.000 C 
ATOM     28  C   UNL     1      39.695  -1.621  12.498  0.00  0.00    +0.000 C 
ATOM     29  C   UNL     1      41.356  -0.461  13.938  0.00  0.00    +0.000 C 
ATOM     30  C   UNL     1      41.491   0.172  14.951  0.00  0.00    +0.000 C 
ENDROOT
BRANCH  17  31
ATOM     31  O   UNL     1      43.491  -9.359  17.221  0.00  0.00    +0.000 OA
ATOM     32  H   UNL     1      43.324  -9.645  18.139  0.00  0.00    +0.000 HD
ENDBRANCH  17  31
BRANCH  17  33
ATOM     33  C   UNL     1      41.500  -8.340  17.988  0.00  0.00    +0.000 C 
BRANCH  33  34
ATOM     34  O   UNL     1      40.524  -8.391  18.894  0.00  0.00    +0.000 OA
ATOM     35  H   UNL     1      40.229  -9.310  19.040  0.00  0.00    +0.000 HD
ENDBRANCH  33  34
ENDBRANCH  17  33
BRANCH  24  36
ATOM     36  C   UNL     1      41.729   0.392  18.369  0.00  0.00    +0.000 C 
BRANCH  36  37
ATOM     37  C   UNL     1      41.926   1.039  19.744  0.00  0.00    +0.000 C 
ATOM     38  C   UNL     1      42.068   1.578  20.807  0.00  0.00    +0.000 C 
BRANCH  38  39
ATOM     39  C   UNL     1      42.238   2.288  22.154  0.00  0.00    +0.000 C 
ATOM     40  C   UNL     1      42.358   2.851  23.207  0.00  0.00    +0.000 C 
BRANCH  40  41
ATOM     41  C   UNL     1      42.503   3.569  24.552  0.00  0.00    +0.000 C 
ATOM     42  C   UNL     1      42.628   4.197  25.721  0.00  0.00    +0.000 C 
ENDBRANCH  40  41
ENDBRANCH  38  39
ENDBRANCH  36  37
ENDBRANCH  24  36
BRANCH  15  43
ATOM     43  O   UNL     1      45.914  -5.654  19.215  0.00  0.00    +0.000 OA
BRANCH  43  45
ATOM     44  O   UNL     1      47.632  -4.266  18.475  0.00  0.00    +0.000 OA
ATOM     45  C   UNL     1      46.845  -4.657  19.325  0.00  0.00    +0.000 C 
BRANCH  45  46
ATOM     46  C   UNL     1      46.829  -4.061  20.626  0.00  0.00    +0.000 C 
ATOM     47  C   UNL     1      46.814  -3.557  21.711  0.00  0.00    +0.000 C 
ATOM     48  C   UNL     1      46.803  -2.925  23.105  0.00  0.00    +0.000 C 
ENDBRANCH  45  46
ENDBRANCH  43  45
ENDBRANCH  15  43
TORSDOF 10
ENDMDL
MODEL 9
REMARK VINA RESULT:      -6.4     15.267     17.787
REMARK  Name = Thapsigargin.pdbqt.pdb
REMARK  10 active torsions:
REMARK  status: ('A' for Active; 'I' for Inactive)
REMARK    1  A    between atoms: O_2  and  C_24
REMARK    2  A    between atoms: C_17  and  O_43
REMARK    3  A    between atoms: C_19  and  C_24
REMARK    4  A    between atoms: C_19  and  O_47
REMARK    5  A    between atoms: C_27  and  C_35
REMARK    6  A    between atoms: C_35  and  C_36
REMARK    7  A    between atoms: C_37  and  C_38
REMARK    8  A    between atoms: C_39  and  C_40
REMARK    9  A    between atoms: C_42  and  O_43
REMARK   10  A    between atoms: C_42  and  C_44
REMARK                            x       y       z     vdW  Elec       q    Type
REMARK                         _______ _______ _______ _____ _____    ______ ____
ROOT
ATOM      1  O   UNL     1      51.221   3.267  11.926  0.00  0.00    +0.000 OA
ATOM      2  O   UNL     1      54.227   7.747   9.171  0.00  0.00    +0.000 OA
ATOM      3  O   UNL     1      56.045   6.590  10.549  0.00  0.00    +0.000 OA
ATOM      4  O   UNL     1      53.233   7.898  13.344  0.00  0.00    +0.000 OA
ATOM      5  O   UNL     1      50.346   1.155  11.951  0.00  0.00    +0.000 OA
ATOM      6  O   UNL     1      55.876   5.940   9.238  0.00  0.00    +0.000 OA
ATOM      7  O   UNL     1      57.337   8.433  11.513  0.00  0.00    +0.000 OA
ATOM      8  O   UNL     1      53.149   5.854  14.765  0.00  0.00    +0.000 OA
ATOM      9  C   UNL     1      52.180   6.656  10.205  0.00  0.00    +0.000 C 
ATOM     10  C   UNL     1      51.267   3.592   9.627  0.00  0.00    +0.000 C 
ATOM     11  C   UNL     1      51.486   4.180  10.914  0.00  0.00    +0.000 C 
ATOM     12  C   UNL     1      52.079   6.592   8.718  0.00  0.00    +0.000 C 
ATOM     13  C   UNL     1      51.854   5.460  11.145  0.00  0.00    +0.000 C 
ATOM     14  C   UNL     1      51.351   4.360   8.590  0.00  0.00    +0.000 C 
ATOM     15  C   UNL     1      51.586   5.598   7.955  0.00  0.00    +0.000 C 
ATOM     16  C   UNL     1      52.230   7.798  11.089  0.00  0.00    +0.000 C 
ATOM     17  C   UNL     1      50.850   2.189   9.792  0.00  0.00    +0.000 C 
ATOM     18  C   UNL     1      52.343   7.343  12.419  0.00  0.00    +0.000 C 
ATOM     19  C   UNL     1      51.995   6.041  12.484  0.00  0.00    +0.000 C 
ATOM     20  C   UNL     1      53.406   6.578   9.362  0.00  0.00    +0.000 C 
ATOM     21  C   UNL     1      50.779   2.114  11.319  0.00  0.00    +0.000 C 
ATOM     22  C   UNL     1      52.422   5.509  13.708  0.00  0.00    +0.000 C 
ATOM     23  C   UNL     1      54.705   6.521   8.601  0.00  0.00    +0.000 C 
ATOM     24  C   UNL     1      57.063   7.547  10.478  0.00  0.00    +0.000 C 
ATOM     25  C   UNL     1      53.857   6.995  14.283  0.00  0.00    +0.000 C 
ATOM     26  C   UNL     1      54.788   6.563   7.070  0.00  0.00    +0.000 C 
ATOM     27  C   UNL     1      55.186   7.088  14.496  0.00  0.00    +0.000 C 
ATOM     28  C   UNL     1      55.909   6.146  15.432  0.00  0.00    +0.000 C 
ATOM     29  C   UNL     1      56.010   7.791  13.571  0.00  0.00    +0.000 C 
ATOM     30  C   UNL     1      56.654   8.146  12.620  0.00  0.00    +0.000 C 
ENDROOT
BRANCH  17  31
ATOM     31  O   UNL     1      49.598   1.958   9.167  0.00  0.00    +0.000 OA
ATOM     32  H   UNL     1      48.974   1.773   9.893  0.00  0.00    +0.000 HD
ENDBRANCH  17  31
BRANCH  17  33
ATOM     33  C   UNL     1      51.861   1.273   9.233  0.00  0.00    +0.000 C 
BRANCH  33  34
ATOM     34  O   UNL     1      52.777   0.461   8.708  0.00  0.00    +0.000 OA
ATOM     35  H   UNL     1      52.962  -0.290   9.303  0.00  0.00    +0.000 HD
ENDBRANCH  33  34
ENDBRANCH  17  33
BRANCH  24  36
ATOM     36  C   UNL     1      57.690   7.789   9.366  0.00  0.00    +0.000 C 
BRANCH  36  37
ATOM     37  C   UNL     1      58.461   8.105   8.080  0.00  0.00    +0.000 C 
ATOM     38  C   UNL     1      59.033   8.357   7.056  0.00  0.00    +0.000 C 
BRANCH  38  39
ATOM     39  C   UNL     1      59.739   8.687   5.737  0.00  0.00    +0.000 C 
ATOM     40  C   UNL     1      60.304   8.950   4.711  0.00  0.00    +0.000 C 
BRANCH  40  41
ATOM     41  C   UNL     1      61.032   9.286   3.406  0.00  0.00    +0.000 C 
ATOM     42  C   UNL     1      61.663   9.579   2.269  0.00  0.00    +0.000 C 
ENDBRANCH  40  41
ENDBRANCH  38  39
ENDBRANCH  36  37
ENDBRANCH  24  36
BRANCH  15  43
ATOM     43  O   UNL     1      51.065   5.864   6.684  0.00  0.00    +0.000 OA
BRANCH  43  45
ATOM     44  O   UNL     1      49.782   7.788   6.966  0.00  0.00    +0.000 OA
ATOM     45  C   UNL     1      50.723   7.174   6.483  0.00  0.00    +0.000 C 
BRANCH  45  46
ATOM     46  C   UNL     1      51.625   7.823   5.582  0.00  0.00    +0.000 C 
ATOM     47  C   UNL     1      52.375   8.365   4.823  0.00  0.00    +0.000 C 
ATOM     48  C   UNL     1      53.346   9.058   3.864  0.00  0.00    +0.000 C 
ENDBRANCH  45  46
ENDBRANCH  43  45
ENDBRANCH  15  43
TORSDOF 10
ENDMDL
