MODEL 1
REMARK VINA RESULT:      -5.4      0.000      0.000
REMARK  Name = Thioguanosine.pdbqt.pdb
REMARK  5 active torsions:
REMARK  status: ('A' for Active; 'I' for Inactive)
REMARK    1  A    between atoms: N_2  and  C1*_12
REMARK    2  A    between atoms: C4*_14  and  C5*_17
REMARK    3  A    between atoms: C3*_15  and  O3*_20
REMARK    4  A    between atoms: C2*_16  and  O2*_22
REMARK    5  A    between atoms: C5*_17  and  O5*_18
REMARK                            x       y       z     vdW  Elec       q    Type
REMARK                         _______ _______ _______ _____ _____    ______ ____
ROOT
ATOM      1  S   UNL     1      44.930  -0.275  -9.472  0.00  0.00    +0.000 S 
ATOM      2  N   UNL     1      41.163   2.650  -8.353  0.00  0.00    +0.000 N 
ATOM      3  N   UNL     1      40.592   0.267  -8.588  0.00  0.00    +0.000 N 
ATOM      4  N   UNL     1      43.378   2.419  -8.759  0.00  0.00    +0.000 NA
ATOM      5  N   UNL     1      42.378  -1.191  -9.174  0.00  0.00    +0.000 NA
ATOM      6  C   UNL     1      41.425   1.323  -8.585  0.00  0.00    +0.000 A 
ATOM      7  C   UNL     1      42.405   3.256  -8.456  0.00  0.00    +0.000 A 
ATOM      8  C   UNL     1      42.765   1.193  -8.850  0.00  0.00    +0.000 A 
ATOM      9  C   UNL     1      43.293  -0.136  -9.163  0.00  0.00    +0.000 A 
ATOM     10  C   UNL     1      41.129  -0.954  -8.893  0.00  0.00    +0.000 A 
ATOM     11  H   UNL     1      39.591   0.353  -8.432  0.00  0.00    +0.000 HD
ATOM     12  N   UNL     1      40.223  -1.961  -8.891  0.00  0.00    +0.000 N 
ATOM     13  H   UNL     1      39.616  -1.974  -8.081  0.00  0.00    +0.000 HD
ATOM     14  H   UNL     1      40.688  -2.859  -9.004  0.00  0.00    +0.000 HD
ENDROOT
BRANCH   2  15
ATOM     15  C1* UNL     1      39.974   3.304  -8.096  0.00  0.00    +0.000 A 
ATOM     16  O4* UNL     1      39.726   4.617  -8.565  0.00  0.00    +0.000 OA
ATOM     17  C4* UNL     1      38.451   5.027  -8.141  0.00  0.00    +0.000 A 
ATOM     18  C3* UNL     1      37.862   3.955  -7.391  0.00  0.00    +0.000 A 
ATOM     19  C2* UNL     1      38.803   2.878  -7.370  0.00  0.00    +0.000 A 
BRANCH  18  20
ATOM     20  O3* UNL     1      37.010   4.148  -6.337  0.00  0.00    +0.000 OA
ATOM     21  H3* UNL     1      37.283   4.907  -5.790  0.00  0.00    +0.000 HD
ENDBRANCH  18  20
BRANCH  19  22
ATOM     22  O2* UNL     1      38.856   2.016  -6.309  0.00  0.00    +0.000 OA
ATOM     23  H2* UNL     1      38.073   1.429  -6.329  0.00  0.00    +0.000 HD
ENDBRANCH  19  22
BRANCH  17  24
ATOM     24  C5* UNL     1      38.010   6.360  -8.230  0.00  0.00    +0.000 C 
BRANCH  24  25
ATOM     25  O5* UNL     1      37.600   7.619  -8.337  0.00  0.00    +0.000 OA
ATOM     26  H5* UNL     1      36.918   7.815  -7.670  0.00  0.00    +0.000 HD
ENDBRANCH  24  25
ENDBRANCH  17  24
ENDBRANCH   2  15
TORSDOF 5
ENDMDL
MODEL 2
REMARK VINA RESULT:      -5.4     14.201     16.022
REMARK  Name = Thioguanosine.pdbqt.pdb
REMARK  5 active torsions:
REMARK  status: ('A' for Active; 'I' for Inactive)
REMARK    1  A    between atoms: N_2  and  C1*_12
REMARK    2  A    between atoms: C4*_14  and  C5*_17
REMARK    3  A    between atoms: C3*_15  and  O3*_20
REMARK    4  A    between atoms: C2*_16  and  O2*_22
REMARK    5  A    between atoms: C5*_17  and  O5*_18
REMARK                            x       y       z     vdW  Elec       q    Type
REMARK                         _______ _______ _______ _____ _____    ______ ____
ROOT
ATOM      1  S   UNL     1      38.498 -13.864  -1.628  0.00  0.00    +0.000 S 
ATOM      2  N   UNL     1      42.638 -11.260  -1.896  0.00  0.00    +0.000 N 
ATOM      3  N   UNL     1      41.306 -10.885   0.140  0.00  0.00    +0.000 N 
ATOM      4  N   UNL     1      41.262 -12.805  -2.815  0.00  0.00    +0.000 NA
ATOM      5  N   UNL     1      39.263 -12.092   0.300  0.00  0.00    +0.000 NA
ATOM      6  C   UNL     1      41.576 -11.454  -1.049  0.00  0.00    +0.000 A 
ATOM      7  C   UNL     1      42.389 -12.133  -2.943  0.00  0.00    +0.000 A 
ATOM      8  C   UNL     1      40.736 -12.375  -1.621  0.00  0.00    +0.000 A 
ATOM      9  C   UNL     1      39.502 -12.731  -0.919  0.00  0.00    +0.000 A 
ATOM     10  C   UNL     1      40.138 -11.243   0.756  0.00  0.00    +0.000 A 
ATOM     11  H   UNL     1      41.899 -10.172   0.558  0.00  0.00    +0.000 HD
ATOM     12  N   UNL     1      39.933 -10.614   1.938  0.00  0.00    +0.000 N 
ATOM     13  H   UNL     1      40.735 -10.616   2.556  0.00  0.00    +0.000 HD
ATOM     14  H   UNL     1      39.119 -11.000   2.410  0.00  0.00    +0.000 HD
ENDROOT
BRANCH   2  15
ATOM     15  C1* UNL     1      43.720 -10.406  -1.808  0.00  0.00    +0.000 A 
ATOM     16  O4* UNL     1      44.913 -10.776  -1.142  0.00  0.00    +0.000 OA
ATOM     17  C4* UNL     1      45.827  -9.711  -1.200  0.00  0.00    +0.000 A 
ATOM     18  C3* UNL     1      45.213  -8.634  -1.925  0.00  0.00    +0.000 A 
ATOM     19  C2* UNL     1      43.907  -9.068  -2.313  0.00  0.00    +0.000 A 
BRANCH  18  20
ATOM     20  O3* UNL     1      45.452  -7.313  -1.661  0.00  0.00    +0.000 OA
ATOM     21  H3* UNL     1      46.133  -6.946  -2.255  0.00  0.00    +0.000 HD
ENDBRANCH  18  20
BRANCH  19  22
ATOM     22  O2* UNL     1      42.882  -8.171  -2.444  0.00  0.00    +0.000 OA
ATOM     23  H2* UNL     1      42.040  -8.601  -2.190  0.00  0.00    +0.000 HD
ENDBRANCH  19  22
BRANCH  17  24
ATOM     24  C5* UNL     1      47.000  -9.669  -0.425  0.00  0.00    +0.000 C 
BRANCH  24  25
ATOM     25  O5* UNL     1      48.121  -9.623   0.288  0.00  0.00    +0.000 OA
ATOM     26  H5* UNL     1      47.920  -9.598   1.240  0.00  0.00    +0.000 HD
ENDBRANCH  24  25
ENDBRANCH  17  24
ENDBRANCH   2  15
TORSDOF 5
ENDMDL
MODEL 3
REMARK VINA RESULT:      -5.2     25.422     26.387
REMARK  Name = Thioguanosine.pdbqt.pdb
REMARK  5 active torsions:
REMARK  status: ('A' for Active; 'I' for Inactive)
REMARK    1  A    between atoms: N_2  and  C1*_12
REMARK    2  A    between atoms: C4*_14  and  C5*_17
REMARK    3  A    between atoms: C3*_15  and  O3*_20
REMARK    4  A    between atoms: C2*_16  and  O2*_22
REMARK    5  A    between atoms: C5*_17  and  O5*_18
REMARK                            x       y       z     vdW  Elec       q    Type
REMARK                         _______ _______ _______ _____ _____    ______ ____
ROOT
ATOM      1  S   UNL     1      56.113  20.309   6.546  0.00  0.00    +0.000 S 
ATOM      2  N   UNL     1      52.075  18.904   8.937  0.00  0.00    +0.000 N 
ATOM      3  N   UNL     1      53.719  17.116   8.537  0.00  0.00    +0.000 N 
ATOM      4  N   UNL     1      53.270  20.565   7.970  0.00  0.00    +0.000 NA
ATOM      5  N   UNL     1      55.679  17.735   7.341  0.00  0.00    +0.000 NA
ATOM      6  C   UNL     1      53.254  18.377   8.475  0.00  0.00    +0.000 A 
ATOM      7  C   UNL     1      52.163  20.248   8.611  0.00  0.00    +0.000 A 
ATOM      8  C   UNL     1      53.964  19.384   7.872  0.00  0.00    +0.000 A 
ATOM      9  C   UNL     1      55.258  19.065   7.265  0.00  0.00    +0.000 A 
ATOM     10  C   UNL     1      54.928  16.863   7.950  0.00  0.00    +0.000 A 
ATOM     11  H   UNL     1      53.187  16.351   8.946  0.00  0.00    +0.000 HD
ATOM     12  N   UNL     1      55.316  15.569   8.043  0.00  0.00    +0.000 N 
ATOM     13  H   UNL     1      55.223  15.171   8.968  0.00  0.00    +0.000 HD
ATOM     14  H   UNL     1      56.268  15.457   7.701  0.00  0.00    +0.000 HD
ENDROOT
BRANCH   2  15
ATOM     15  C1* UNL     1      51.000  18.303   9.564  0.00  0.00    +0.000 A 
ATOM     16  O4* UNL     1      51.148  17.579  10.772  0.00  0.00    +0.000 OA
ATOM     17  C4* UNL     1      49.899  17.073  11.165  0.00  0.00    +0.000 A 
ATOM     18  C3* UNL     1      48.924  17.484  10.195  0.00  0.00    +0.000 A 
ATOM     19  C2* UNL     1      49.605  18.258   9.204  0.00  0.00    +0.000 A 
BRANCH  18  20
ATOM     20  O3* UNL     1      47.832  16.732   9.854  0.00  0.00    +0.000 OA
ATOM     21  H3* UNL     1      47.779  16.593   8.891  0.00  0.00    +0.000 HD
ENDBRANCH  18  20
BRANCH  19  22
ATOM     22  O2* UNL     1      49.168  18.274   7.907  0.00  0.00    +0.000 OA
ATOM     23  H2* UNL     1      48.199  18.408   7.894  0.00  0.00    +0.000 HD
ENDBRANCH  19  22
BRANCH  17  24
ATOM     24  C5* UNL     1      49.752  16.109  12.180  0.00  0.00    +0.000 C 
BRANCH  24  25
ATOM     25  O5* UNL     1      49.599  15.214  13.150  0.00  0.00    +0.000 OA
ATOM     26  H5* UNL     1      48.664  15.149  13.412  0.00  0.00    +0.000 HD
ENDBRANCH  24  25
ENDBRANCH  17  24
ENDBRANCH   2  15
TORSDOF 5
ENDMDL
MODEL 4
REMARK VINA RESULT:      -5.1     25.362     26.482
REMARK  Name = Thioguanosine.pdbqt.pdb
REMARK  5 active torsions:
REMARK  status: ('A' for Active; 'I' for Inactive)
REMARK    1  A    between atoms: N_2  and  C1*_12
REMARK    2  A    between atoms: C4*_14  and  C5*_17
REMARK    3  A    between atoms: C3*_15  and  O3*_20
REMARK    4  A    between atoms: C2*_16  and  O2*_22
REMARK    5  A    between atoms: C5*_17  and  O5*_18
REMARK                            x       y       z     vdW  Elec       q    Type
REMARK                         _______ _______ _______ _____ _____    ______ ____
ROOT
ATOM      1  S   UNL     1      38.654   2.066  22.556  0.00  0.00    +0.000 S 
ATOM      2  N   UNL     1      39.633   0.843  17.915  0.00  0.00    +0.000 N 
ATOM      3  N   UNL     1      39.658   3.261  18.379  0.00  0.00    +0.000 N 
ATOM      4  N   UNL     1      39.161   0.187  20.030  0.00  0.00    +0.000 NA
ATOM      5  N   UNL     1      39.147   3.911  20.608  0.00  0.00    +0.000 NA
ATOM      6  C   UNL     1      39.523   1.962  18.702  0.00  0.00    +0.000 A 
ATOM      7  C   UNL     1      39.419  -0.204  18.798  0.00  0.00    +0.000 A 
ATOM      8  C   UNL     1      39.217   1.558  19.977  0.00  0.00    +0.000 A 
ATOM      9  C   UNL     1      39.015   2.579  21.007  0.00  0.00    +0.000 A 
ATOM     10  C   UNL     1      39.453   4.179  19.372  0.00  0.00    +0.000 A 
ATOM     11  H   UNL     1      39.847   3.577  17.430  0.00  0.00    +0.000 HD
ATOM     12  N   UNL     1      39.593   5.462  18.961  0.00  0.00    +0.000 N 
ATOM     13  H   UNL     1      40.424   5.637  18.412  0.00  0.00    +0.000 HD
ATOM     14  H   UNL     1      39.550   6.097  19.756  0.00  0.00    +0.000 HD
ENDROOT
BRANCH   2  15
ATOM     15  C1* UNL     1      39.873   0.711  16.561  0.00  0.00    +0.000 A 
ATOM     16  O4* UNL     1      40.785  -0.245  16.054  0.00  0.00    +0.000 OA
ATOM     17  C4* UNL     1      40.835  -0.141  14.654  0.00  0.00    +0.000 A 
ATOM     18  C3* UNL     1      39.931   0.898  14.250  0.00  0.00    +0.000 A 
ATOM     19  C2* UNL     1      39.323   1.422  15.434  0.00  0.00    +0.000 A 
BRANCH  18  20
ATOM     20  O3* UNL     1      40.144   1.707  13.166  0.00  0.00    +0.000 OA
ATOM     21  H3* UNL     1      39.917   1.255  12.332  0.00  0.00    +0.000 HD
ENDBRANCH  18  20
BRANCH  19  22
ATOM     22  O2* UNL     1      38.931   2.731  15.497  0.00  0.00    +0.000 OA
ATOM     23  H2* UNL     1      37.972   2.792  15.309  0.00  0.00    +0.000 HD
ENDBRANCH  19  22
BRANCH  17  24
ATOM     24  C5* UNL     1      41.821  -0.775  13.876  0.00  0.00    +0.000 C 
BRANCH  24  25
ATOM     25  O5* UNL     1      42.766  -1.355  13.143  0.00  0.00    +0.000 OA
ATOM     26  H5* UNL     1      43.323  -1.931  13.696  0.00  0.00    +0.000 HD
ENDBRANCH  24  25
ENDBRANCH  17  24
ENDBRANCH   2  15
TORSDOF 5
ENDMDL
MODEL 5
REMARK VINA RESULT:      -5.0     24.262     25.853
REMARK  Name = Thioguanosine.pdbqt.pdb
REMARK  5 active torsions:
REMARK  status: ('A' for Active; 'I' for Inactive)
REMARK    1  A    between atoms: N_2  and  C1*_12
REMARK    2  A    between atoms: C4*_14  and  C5*_17
REMARK    3  A    between atoms: C3*_15  and  O3*_20
REMARK    4  A    between atoms: C2*_16  and  O2*_22
REMARK    5  A    between atoms: C5*_17  and  O5*_18
REMARK                            x       y       z     vdW  Elec       q    Type
REMARK                         _______ _______ _______ _____ _____    ______ ____
ROOT
ATOM      1  S   UNL     1      25.506  -0.792  16.516  0.00  0.00    +0.000 S 
ATOM      2  N   UNL     1      28.945  -3.178  13.971  0.00  0.00    +0.000 N 
ATOM      3  N   UNL     1      28.927  -0.736  13.656  0.00  0.00    +0.000 N 
ATOM      4  N   UNL     1      27.237  -3.252  15.455  0.00  0.00    +0.000 NA
ATOM      5  N   UNL     1      27.248   0.466  14.836  0.00  0.00    +0.000 NA
ATOM      6  C   UNL     1      28.497  -1.898  14.181  0.00  0.00    +0.000 A 
ATOM      7  C   UNL     1      28.143  -3.948  14.798  0.00  0.00    +0.000 A 
ATOM      8  C   UNL     1      27.450  -1.952  15.065  0.00  0.00    +0.000 A 
ATOM      9  C   UNL     1      26.772  -0.706  15.429  0.00  0.00    +0.000 A 
ATOM     10  C   UNL     1      28.260   0.401  14.019  0.00  0.00    +0.000 A 
ATOM     11  H   UNL     1      29.677  -0.685  12.970  0.00  0.00    +0.000 HD
ATOM     12  N   UNL     1      28.744   1.524  13.435  0.00  0.00    +0.000 N 
ATOM     13  H   UNL     1      29.751   1.614  13.475  0.00  0.00    +0.000 HD
ATOM     14  H   UNL     1      28.296   2.350  13.826  0.00  0.00    +0.000 HD
ENDROOT
BRANCH   2  15
ATOM     15  C1* UNL     1      29.935  -3.664  13.139  0.00  0.00    +0.000 A 
ATOM     16  O4* UNL     1      30.913  -4.579  13.596  0.00  0.00    +0.000 OA
ATOM     17  C4* UNL     1      31.791  -4.883  12.542  0.00  0.00    +0.000 A 
ATOM     18  C3* UNL     1      31.365  -4.156  11.381  0.00  0.00    +0.000 A 
ATOM     19  C2* UNL     1      30.205  -3.404  11.746  0.00  0.00    +0.000 A 
BRANCH  18  20
ATOM     20  O3* UNL     1      32.227  -3.678  10.430  0.00  0.00    +0.000 OA
ATOM     21  H3* UNL     1      32.213  -4.227   9.625  0.00  0.00    +0.000 HD
ENDBRANCH  18  20
BRANCH  19  22
ATOM     22  O2* UNL     1      29.927  -2.208  11.143  0.00  0.00    +0.000 OA
ATOM     23  H2* UNL     1      30.716  -1.903  10.651  0.00  0.00    +0.000 HD
ENDBRANCH  19  22
BRANCH  17  24
ATOM     24  C5* UNL     1      33.008  -5.563  12.736  0.00  0.00    +0.000 C 
BRANCH  24  25
ATOM     25  O5* UNL     1      34.146  -6.224  12.917  0.00  0.00    +0.000 OA
ATOM     26  H5* UNL     1      34.726  -6.126  12.142  0.00  0.00    +0.000 HD
ENDBRANCH  24  25
ENDBRANCH  17  24
ENDBRANCH   2  15
TORSDOF 5
ENDMDL
MODEL 6
REMARK VINA RESULT:      -4.9     18.664     19.657
REMARK  Name = Thioguanosine.pdbqt.pdb
REMARK  5 active torsions:
REMARK  status: ('A' for Active; 'I' for Inactive)
REMARK    1  A    between atoms: N_2  and  C1*_12
REMARK    2  A    between atoms: C4*_14  and  C5*_17
REMARK    3  A    between atoms: C3*_15  and  O3*_20
REMARK    4  A    between atoms: C2*_16  and  O2*_22
REMARK    5  A    between atoms: C5*_17  and  O5*_18
REMARK                            x       y       z     vdW  Elec       q    Type
REMARK                         _______ _______ _______ _____ _____    ______ ____
ROOT
ATOM      1  S   UNL     1      55.566   7.913   1.138  0.00  0.00    +0.000 S 
ATOM      2  N   UNL     1      52.929   6.986   5.161  0.00  0.00    +0.000 N 
ATOM      3  N   UNL     1      52.764   9.294   4.321  0.00  0.00    +0.000 N 
ATOM      4  N   UNL     1      54.322   6.230   3.544  0.00  0.00    +0.000 NA
ATOM      5  N   UNL     1      54.060   9.809   2.395  0.00  0.00    +0.000 NA
ATOM      6  C   UNL     1      53.199   8.021   4.302  0.00  0.00    +0.000 A 
ATOM      7  C   UNL     1      53.632   5.919   4.624  0.00  0.00    +0.000 A 
ATOM      8  C   UNL     1      54.059   7.562   3.337  0.00  0.00    +0.000 A 
ATOM      9  C   UNL     1      54.528   8.496   2.311  0.00  0.00    +0.000 A 
ATOM     10  C   UNL     1      53.234  10.132   3.347  0.00  0.00    +0.000 A 
ATOM     11  H   UNL     1      52.157   9.659   5.052  0.00  0.00    +0.000 HD
ATOM     12  N   UNL     1      52.761  11.398   3.447  0.00  0.00    +0.000 N 
ATOM     13  H   UNL     1      51.761  11.460   3.588  0.00  0.00    +0.000 HD
ATOM     14  H   UNL     1      53.042  11.947   2.637  0.00  0.00    +0.000 HD
ENDROOT
BRANCH   2  15
ATOM     15  C1* UNL     1      52.169   6.943   6.314  0.00  0.00    +0.000 A 
ATOM     16  O4* UNL     1      52.404   7.822   7.398  0.00  0.00    +0.000 OA
ATOM     17  C4* UNL     1      51.494   7.539   8.430  0.00  0.00    +0.000 A 
ATOM     18  C3* UNL     1      50.651   6.460   8.000  0.00  0.00    +0.000 A 
ATOM     19  C2* UNL     1      51.062   6.095   6.680  0.00  0.00    +0.000 A 
BRANCH  18  20
ATOM     20  O3* UNL     1      50.136   5.518   8.849  0.00  0.00    +0.000 OA
ATOM     21  H3* UNL     1      49.162   5.493   8.809  0.00  0.00    +0.000 HD
ENDBRANCH  18  20
BRANCH  19  22
ATOM     22  O2* UNL     1      50.931   4.806   6.239  0.00  0.00    +0.000 OA
ATOM     23  H2* UNL     1      50.281   4.336   6.800  0.00  0.00    +0.000 HD
ENDBRANCH  19  22
BRANCH  17  24
ATOM     24  C5* UNL     1      51.627   8.064   9.728  0.00  0.00    +0.000 C 
BRANCH  24  25
ATOM     25  O5* UNL     1      51.766   8.542  10.960  0.00  0.00    +0.000 OA
ATOM     26  H5* UNL     1      52.006   7.830  11.579  0.00  0.00    +0.000 HD
ENDBRANCH  24  25
ENDBRANCH  17  24
ENDBRANCH   2  15
TORSDOF 5
ENDMDL
MODEL 7
REMARK VINA RESULT:      -4.9     17.135     18.304
REMARK  Name = Thioguanosine.pdbqt.pdb
REMARK  5 active torsions:
REMARK  status: ('A' for Active; 'I' for Inactive)
REMARK    1  A    between atoms: N_2  and  C1*_12
REMARK    2  A    between atoms: C4*_14  and  C5*_17
REMARK    3  A    between atoms: C3*_15  and  O3*_20
REMARK    4  A    between atoms: C2*_16  and  O2*_22
REMARK    5  A    between atoms: C5*_17  and  O5*_18
REMARK                            x       y       z     vdW  Elec       q    Type
REMARK                         _______ _______ _______ _____ _____    ______ ____
ROOT
ATOM      1  S   UNL     1      51.982  -1.909   1.910  0.00  0.00    +0.000 S 
ATOM      2  N   UNL     1      50.695   0.029   6.221  0.00  0.00    +0.000 N 
ATOM      3  N   UNL     1      51.428   1.659   4.529  0.00  0.00    +0.000 N 
ATOM      4  N   UNL     1      50.925  -1.808   4.918  0.00  0.00    +0.000 NA
ATOM      5  N   UNL     1      52.106   0.766   2.431  0.00  0.00    +0.000 NA
ATOM      6  C   UNL     1      51.146   0.426   4.988  0.00  0.00    +0.000 A 
ATOM      7  C   UNL     1      50.564  -1.346   6.098  0.00  0.00    +0.000 A 
ATOM      8  C   UNL     1      51.303  -0.693   4.210  0.00  0.00    +0.000 A 
ATOM      9  C   UNL     1      51.810  -0.534   2.846  0.00  0.00    +0.000 A 
ATOM     10  C   UNL     1      51.906   1.758   3.250  0.00  0.00    +0.000 A 
ATOM     11  H   UNL     1      51.354   2.493   5.106  0.00  0.00    +0.000 HD
ATOM     12  N   UNL     1      52.179   3.029   2.871  0.00  0.00    +0.000 N 
ATOM     13  H   UNL     1      51.448   3.694   3.084  0.00  0.00    +0.000 HD
ATOM     14  H   UNL     1      52.415   3.061   1.881  0.00  0.00    +0.000 HD
ENDROOT
BRANCH   2  15
ATOM     15  C1* UNL     1      50.433   0.757   7.366  0.00  0.00    +0.000 A 
ATOM     16  O4* UNL     1      49.941   0.147   8.544  0.00  0.00    +0.000 OA
ATOM     17  C4* UNL     1      49.757   1.128   9.532  0.00  0.00    +0.000 A 
ATOM     18  C3* UNL     1      50.145   2.396   8.982  0.00  0.00    +0.000 A 
ATOM     19  C2* UNL     1      50.576   2.166   7.638  0.00  0.00    +0.000 A 
BRANCH  18  20
ATOM     20  O3* UNL     1      49.554   3.582   9.325  0.00  0.00    +0.000 OA
ATOM     21  H3* UNL     1      48.583   3.499   9.369  0.00  0.00    +0.000 HD
ENDBRANCH  18  20
BRANCH  19  22
ATOM     22  O2* UNL     1      50.422   3.130   6.679  0.00  0.00    +0.000 OA
ATOM     23  H2* UNL     1      50.634   2.752   5.802  0.00  0.00    +0.000 HD
ENDBRANCH  19  22
BRANCH  17  24
ATOM     24  C5* UNL     1      49.050   0.886  10.725  0.00  0.00    +0.000 C 
BRANCH  24  25
ATOM     25  O5* UNL     1      48.366   0.671  11.843  0.00  0.00    +0.000 OA
ATOM     26  H5* UNL     1      48.938   0.277  12.524  0.00  0.00    +0.000 HD
ENDBRANCH  24  25
ENDBRANCH  17  24
ENDBRANCH   2  15
TORSDOF 5
ENDMDL
MODEL 8
REMARK VINA RESULT:      -4.8     24.119     25.041
REMARK  Name = Thioguanosine.pdbqt.pdb
REMARK  5 active torsions:
REMARK  status: ('A' for Active; 'I' for Inactive)
REMARK    1  A    between atoms: N_2  and  C1*_12
REMARK    2  A    between atoms: C4*_14  and  C5*_17
REMARK    3  A    between atoms: C3*_15  and  O3*_20
REMARK    4  A    between atoms: C2*_16  and  O2*_22
REMARK    5  A    between atoms: C5*_17  and  O5*_18
REMARK                            x       y       z     vdW  Elec       q    Type
REMARK                         _______ _______ _______ _____ _____    ______ ____
ROOT
ATOM      1  S   UNL     1      51.639   1.960   8.116  0.00  0.00    +0.000 S 
ATOM      2  N   UNL     1      52.823   1.421  12.838  0.00  0.00    +0.000 N 
ATOM      3  N   UNL     1      50.448   1.044  12.315  0.00  0.00    +0.000 N 
ATOM      4  N   UNL     1      53.482   1.856  10.716  0.00  0.00    +0.000 NA
ATOM      5  N   UNL     1      49.811   1.336  10.042  0.00  0.00    +0.000 NA
ATOM      6  C   UNL     1      51.728   1.334  12.017  0.00  0.00    +0.000 A 
ATOM      7  C   UNL     1      53.862   1.723  11.972  0.00  0.00    +0.000 A 
ATOM      8  C   UNL     1      52.130   1.619  10.737  0.00  0.00    +0.000 A 
ATOM      9  C   UNL     1      51.127   1.623   9.671  0.00  0.00    +0.000 A 
ATOM     10  C   UNL     1      49.545   1.067  11.287  0.00  0.00    +0.000 A 
ATOM     11  H   UNL     1      50.128   0.869  13.264  0.00  0.00    +0.000 HD
ATOM     12  N   UNL     1      48.278   0.780  11.673  0.00  0.00    +0.000 N 
ATOM     13  H   UNL     1      48.197  -0.035  12.267  0.00  0.00    +0.000 HD
ATOM     14  H   UNL     1      47.671   0.692  10.861  0.00  0.00    +0.000 HD
ENDROOT
BRANCH   2  15
ATOM     15  C1* UNL     1      52.941   1.278  14.207  0.00  0.00    +0.000 A 
ATOM     16  O4* UNL     1      53.178   2.385  15.057  0.00  0.00    +0.000 OA
ATOM     17  C4* UNL     1      53.265   1.939  16.386  0.00  0.00    +0.000 A 
ATOM     18  C3* UNL     1      53.073   0.517  16.394  0.00  0.00    +0.000 A 
ATOM     19  C2* UNL     1      52.861   0.105  15.041  0.00  0.00    +0.000 A 
BRANCH  18  20
ATOM     20  O3* UNL     1      53.685  -0.324  17.285  0.00  0.00    +0.000 OA
ATOM     21  H3* UNL     1      53.353  -0.188  18.192  0.00  0.00    +0.000 HD
ENDBRANCH  18  20
BRANCH  19  22
ATOM     22  O2* UNL     1      53.248  -1.138  14.620  0.00  0.00    +0.000 OA
ATOM     23  H2* UNL     1      52.670  -1.813  15.028  0.00  0.00    +0.000 HD
ENDBRANCH  19  22
BRANCH  17  24
ATOM     24  C5* UNL     1      53.737   2.751  17.434  0.00  0.00    +0.000 C 
BRANCH  24  25
ATOM     25  O5* UNL     1      54.163   3.527  18.425  0.00  0.00    +0.000 OA
ATOM     26  H5* UNL     1      55.078   3.818  18.263  0.00  0.00    +0.000 HD
ENDBRANCH  24  25
ENDBRANCH  17  24
ENDBRANCH   2  15
TORSDOF 5
ENDMDL
MODEL 9
REMARK VINA RESULT:      -4.8     21.117     22.101
REMARK  Name = Thioguanosine.pdbqt.pdb
REMARK  5 active torsions:
REMARK  status: ('A' for Active; 'I' for Inactive)
REMARK    1  A    between atoms: N_2  and  C1*_12
REMARK    2  A    between atoms: C4*_14  and  C5*_17
REMARK    3  A    between atoms: C3*_15  and  O3*_20
REMARK    4  A    between atoms: C2*_16  and  O2*_22
REMARK    5  A    between atoms: C5*_17  and  O5*_18
REMARK                            x       y       z     vdW  Elec       q    Type
REMARK                         _______ _______ _______ _____ _____    ______ ____
ROOT
ATOM      1  S   UNL     1      53.752   4.806  14.305  0.00  0.00    +0.000 S 
ATOM      2  N   UNL     1      51.296   3.067  10.440  0.00  0.00    +0.000 N 
ATOM      3  N   UNL     1      51.603   1.463  12.281  0.00  0.00    +0.000 N 
ATOM      4  N   UNL     1      52.346   4.805  11.443  0.00  0.00    +0.000 NA
ATOM      5  N   UNL     1      52.828   2.244  14.165  0.00  0.00    +0.000 NA
ATOM      6  C   UNL     1      51.730   2.658  11.675  0.00  0.00    +0.000 A 
ATOM      7  C   UNL     1      51.689   4.395  10.375  0.00  0.00    +0.000 A 
ATOM      8  C   UNL     1      52.382   3.708  12.268  0.00  0.00    +0.000 A 
ATOM      9  C   UNL     1      52.972   3.510  13.594  0.00  0.00    +0.000 A 
ATOM     10  C   UNL     1      52.176   1.323  13.516  0.00  0.00    +0.000 A 
ATOM     11  H   UNL     1      51.156   0.664  11.838  0.00  0.00    +0.000 HD
ATOM     12  N   UNL     1      52.017   0.088  14.050  0.00  0.00    +0.000 N 
ATOM     13  H   UNL     1      51.073  -0.271  13.997  0.00  0.00    +0.000 HD
ATOM     14  H   UNL     1      52.353   0.070  15.010  0.00  0.00    +0.000 HD
ENDROOT
BRANCH   2  15
ATOM     15  C1* UNL     1      50.640   2.379   9.438  0.00  0.00    +0.000 A 
ATOM     16  O4* UNL     1      51.341   1.656   8.444  0.00  0.00    +0.000 OA
ATOM     17  C4* UNL     1      50.420   1.074   7.557  0.00  0.00    +0.000 A 
ATOM     18  C3* UNL     1      49.098   1.424   7.992  0.00  0.00    +0.000 A 
ATOM     19  C2* UNL     1      49.231   2.227   9.168  0.00  0.00    +0.000 A 
BRANCH  18  20
ATOM     20  O3* UNL     1      48.047   1.621   7.137  0.00  0.00    +0.000 OA
ATOM     21  H3* UNL     1      47.243   1.895   7.614  0.00  0.00    +0.000 HD
ENDBRANCH  18  20
BRANCH  19  22
ATOM     22  O2* UNL     1      48.306   3.189   9.466  0.00  0.00    +0.000 OA
ATOM     23  H2* UNL     1      47.849   2.953  10.299  0.00  0.00    +0.000 HD
ENDBRANCH  19  22
BRANCH  17  24
ATOM     24  C5* UNL     1      50.800   0.505   6.328  0.00  0.00    +0.000 C 
BRANCH  24  25
ATOM     25  O5* UNL     1      51.181  -0.039   5.177  0.00  0.00    +0.000 OA
ATOM     26  H5* UNL     1      51.133  -1.010   5.224  0.00  0.00    +0.000 HD
ENDBRANCH  24  25
ENDBRANCH  17  24
ENDBRANCH   2  15
TORSDOF 5
ENDMDL
