MODEL 1
REMARK VINA RESULT:      -6.1      0.000      0.000
REMARK  Name = Trichostatin_A.pdbqt.pdb
REMARK  6 active torsions:
REMARK  status: ('A' for Active; 'I' for Inactive)
REMARK    1  A    between atoms: C_1  and  C_15
REMARK    2  A    between atoms: C_4  and  C_6
REMARK    3  A    between atoms: C_7  and  C_10
REMARK    4  A    between atoms: N_9  and  O_12
REMARK    5  A    between atoms: C_15  and  C_16
REMARK    6  A    between atoms: C_17  and  N_22
REMARK                            x       y       z     vdW  Elec       q    Type
REMARK                         _______ _______ _______ _____ _____    ______ ____
ROOT
ATOM      1  C   UNL     1      50.062   1.912   9.623  0.00  0.00    +0.000 C 
ATOM      2  C   UNL     1      48.652   1.359   9.592  0.00  0.00    +0.000 C 
ATOM      3  C   UNL     1      50.196   3.240  10.096  0.00  0.00    +0.000 C 
ATOM      4  C   UNL     1      50.371   4.450  10.513  0.00  0.00    +0.000 C 
ATOM      5  C   UNL     1      50.769   4.688  11.938  0.00  0.00    +0.000 C 
ENDROOT
BRANCH   4   6
ATOM      6  C   UNL     1      50.386   5.523   9.593  0.00  0.00    +0.000 C 
ATOM      7  C   UNL     1      50.398   6.433   8.808  0.00  0.00    +0.000 C 
BRANCH   7  10
ATOM      8  O   UNL     1      50.391   7.301   6.665  0.00  0.00    +0.000 OA
ATOM      9  N   UNL     1      50.431   8.780   8.409  0.00  0.00    +0.000 N 
ATOM     10  C   UNL     1      50.406   7.524   7.870  0.00  0.00    +0.000 C 
ATOM     11  H   UNL     1      50.451   8.982   9.401  0.00  0.00    +0.000 HD
BRANCH   9  12
ATOM     12  O   UNL     1      50.449   9.874   7.518  0.00  0.00    +0.000 OA
ATOM     13  H   UNL     1      49.624   9.749   7.002  0.00  0.00    +0.000 HD
ENDBRANCH   9  12
ENDBRANCH   7  10
ENDBRANCH   4   6
BRANCH   1  15
ATOM     14  O   UNL     1      52.340   1.255   9.470  0.00  0.00    +0.000 OA
ATOM     15  C   UNL     1      51.223   1.252   8.952  0.00  0.00    +0.000 C 
BRANCH  15  16
ATOM     16  C   UNL     1      51.045   0.571   7.654  0.00  0.00    +0.000 A 
ATOM     17  C   UNL     1      50.545  -0.804   5.231  0.00  0.00    +0.000 A 
ATOM     18  C   UNL     1      50.892   1.280   6.466  0.00  0.00    +0.000 A 
ATOM     19  C   UNL     1      50.922  -0.816   7.648  0.00  0.00    +0.000 A 
ATOM     20  C   UNL     1      50.658   0.595   5.274  0.00  0.00    +0.000 A 
ATOM     21  C   UNL     1      50.689  -1.489   6.448  0.00  0.00    +0.000 A 
BRANCH  17  22
ATOM     22  N   UNL     1      50.326  -1.494   4.013  0.00  0.00    +0.000 N 
ATOM     23  C   UNL     1      50.021  -0.771   2.789  0.00  0.00    +0.000 C 
ATOM     24  C   UNL     1      49.966  -2.902   4.003  0.00  0.00    +0.000 C 
ENDBRANCH  17  22
ENDBRANCH  15  16
ENDBRANCH   1  15
TORSDOF 6
ENDMDL
MODEL 2
REMARK VINA RESULT:      -5.7     14.853     16.787
REMARK  Name = Trichostatin_A.pdbqt.pdb
REMARK  6 active torsions:
REMARK  status: ('A' for Active; 'I' for Inactive)
REMARK    1  A    between atoms: C_1  and  C_15
REMARK    2  A    between atoms: C_4  and  C_6
REMARK    3  A    between atoms: C_7  and  C_10
REMARK    4  A    between atoms: N_9  and  O_12
REMARK    5  A    between atoms: C_15  and  C_16
REMARK    6  A    between atoms: C_17  and  N_22
REMARK                            x       y       z     vdW  Elec       q    Type
REMARK                         _______ _______ _______ _____ _____    ______ ____
ROOT
ATOM      1  C   UNL     1      53.580  16.159  15.330  0.00  0.00    +0.000 C 
ATOM      2  C   UNL     1      54.710  15.641  16.197  0.00  0.00    +0.000 C 
ATOM      3  C   UNL     1      52.930  17.328  15.794  0.00  0.00    +0.000 C 
ATOM      4  C   UNL     1      52.300  18.389  16.176  0.00  0.00    +0.000 C 
ATOM      5  C   UNL     1      52.690  19.722  15.613  0.00  0.00    +0.000 C 
ENDROOT
BRANCH   4   6
ATOM      6  C   UNL     1      51.129  18.276  16.960  0.00  0.00    +0.000 C 
ATOM      7  C   UNL     1      50.134  18.182  17.628  0.00  0.00    +0.000 C 
BRANCH   7  10
ATOM      8  O   UNL     1      48.016  18.861  18.259  0.00  0.00    +0.000 OA
ATOM      9  N   UNL     1      48.917  17.058  19.339  0.00  0.00    +0.000 N 
ATOM     10  C   UNL     1      48.939  18.072  18.423  0.00  0.00    +0.000 C 
ATOM     11  H   UNL     1      49.673  16.402  19.493  0.00  0.00    +0.000 HD
BRANCH   9  12
ATOM     12  O   UNL     1      47.764  16.927  20.142  0.00  0.00    +0.000 OA
ATOM     13  H   UNL     1      47.102  17.470  19.663  0.00  0.00    +0.000 HD
ENDBRANCH   9  12
ENDBRANCH   7  10
ENDBRANCH   4   6
BRANCH   1  15
ATOM     14  O   UNL     1      53.269  14.195  14.031  0.00  0.00    +0.000 OA
ATOM     15  C   UNL     1      52.971  15.376  14.213  0.00  0.00    +0.000 C 
BRANCH  15  16
ATOM     16  C   UNL     1      51.986  16.006  13.311  0.00  0.00    +0.000 A 
ATOM     17  C   UNL     1      50.190  17.140  11.440  0.00  0.00    +0.000 A 
ATOM     18  C   UNL     1      50.636  15.672  13.347  0.00  0.00    +0.000 A 
ATOM     19  C   UNL     1      52.453  16.879  12.331  0.00  0.00    +0.000 A 
ATOM     20  C   UNL     1      49.754  16.244  12.430  0.00  0.00    +0.000 A 
ATOM     21  C   UNL     1      51.560  17.445  11.420  0.00  0.00    +0.000 A 
BRANCH  17  22
ATOM     22  N   UNL     1      49.285  17.730  10.524  0.00  0.00    +0.000 N 
ATOM     23  C   UNL     1      48.241  16.941   9.890  0.00  0.00    +0.000 C 
ATOM     24  C   UNL     1      49.605  18.981   9.854  0.00  0.00    +0.000 C 
ENDBRANCH  17  22
ENDBRANCH  15  16
ENDBRANCH   1  15
TORSDOF 6
ENDMDL
MODEL 3
REMARK VINA RESULT:      -5.7      5.510      8.018
REMARK  Name = Trichostatin_A.pdbqt.pdb
REMARK  6 active torsions:
REMARK  status: ('A' for Active; 'I' for Inactive)
REMARK    1  A    between atoms: C_1  and  C_15
REMARK    2  A    between atoms: C_4  and  C_6
REMARK    3  A    between atoms: C_7  and  C_10
REMARK    4  A    between atoms: N_9  and  O_12
REMARK    5  A    between atoms: C_15  and  C_16
REMARK    6  A    between atoms: C_17  and  N_22
REMARK                            x       y       z     vdW  Elec       q    Type
REMARK                         _______ _______ _______ _____ _____    ______ ____
ROOT
ATOM      1  C   UNL     1      51.027   6.800  12.687  0.00  0.00    +0.000 C 
ATOM      2  C   UNL     1      50.395   7.294  13.973  0.00  0.00    +0.000 C 
ATOM      3  C   UNL     1      50.563   5.551  12.210  0.00  0.00    +0.000 C 
ATOM      4  C   UNL     1      50.179   4.412  11.735  0.00  0.00    +0.000 C 
ATOM      5  C   UNL     1      49.134   4.374  10.663  0.00  0.00    +0.000 C 
ENDROOT
BRANCH   4   6
ATOM      6  C   UNL     1      50.876   3.230  12.076  0.00  0.00    +0.000 C 
ATOM      7  C   UNL     1      51.466   2.223  12.367  0.00  0.00    +0.000 C 
BRANCH   7  10
ATOM      8  O   UNL     1      52.861   0.449  11.868  0.00  0.00    +0.000 OA
ATOM      9  N   UNL     1      52.022   0.573  13.992  0.00  0.00    +0.000 N 
ATOM     10  C   UNL     1      52.173   1.018  12.708  0.00  0.00    +0.000 C 
ATOM     11  H   UNL     1      51.452   1.026  14.696  0.00  0.00    +0.000 HD
BRANCH   9  12
ATOM     12  O   UNL     1      52.694  -0.612  14.358  0.00  0.00    +0.000 OA
ATOM     13  H   UNL     1      51.956  -1.233  14.543  0.00  0.00    +0.000 HD
ENDBRANCH   9  12
ENDBRANCH   7  10
ENDBRANCH   4   6
BRANCH   1  15
ATOM     14  O   UNL     1      53.140   7.880  12.789  0.00  0.00    +0.000 OA
ATOM     15  C   UNL     1      52.249   7.409  12.081  0.00  0.00    +0.000 C 
BRANCH  15  16
ATOM     16  C   UNL     1      52.415   7.445  10.614  0.00  0.00    +0.000 A 
ATOM     17  C   UNL     1      52.731   7.696   7.813  0.00  0.00    +0.000 A 
ATOM     18  C   UNL     1      53.550   6.937   9.990  0.00  0.00    +0.000 A 
ATOM     19  C   UNL     1      51.450   8.103   9.856  0.00  0.00    +0.000 A 
ATOM     20  C   UNL     1      53.694   7.053   8.607  0.00  0.00    +0.000 A 
ATOM     21  C   UNL     1      51.605   8.212   8.474  0.00  0.00    +0.000 A 
BRANCH  17  22
ATOM     22  N   UNL     1      52.876   7.795   6.407  0.00  0.00    +0.000 N 
ATOM     23  C   UNL     1      51.749   8.159   5.563  0.00  0.00    +0.000 C 
ATOM     24  C   UNL     1      53.975   7.139   5.718  0.00  0.00    +0.000 C 
ENDBRANCH  17  22
ENDBRANCH  15  16
ENDBRANCH   1  15
TORSDOF 6
ENDMDL
MODEL 4
REMARK VINA RESULT:      -5.6      5.238      8.928
REMARK  Name = Trichostatin_A.pdbqt.pdb
REMARK  6 active torsions:
REMARK  status: ('A' for Active; 'I' for Inactive)
REMARK    1  A    between atoms: C_1  and  C_15
REMARK    2  A    between atoms: C_4  and  C_6
REMARK    3  A    between atoms: C_7  and  C_10
REMARK    4  A    between atoms: N_9  and  O_12
REMARK    5  A    between atoms: C_15  and  C_16
REMARK    6  A    between atoms: C_17  and  N_22
REMARK                            x       y       z     vdW  Elec       q    Type
REMARK                         _______ _______ _______ _____ _____    ______ ____
ROOT
ATOM      1  C   UNL     1      52.373   7.378  14.116  0.00  0.00    +0.000 C 
ATOM      2  C   UNL     1      51.457   7.947  15.181  0.00  0.00    +0.000 C 
ATOM      3  C   UNL     1      51.801   7.215  12.831  0.00  0.00    +0.000 C 
ATOM      4  C   UNL     1      51.326   7.040  11.642  0.00  0.00    +0.000 C 
ATOM      5  C   UNL     1      51.561   8.084  10.594  0.00  0.00    +0.000 C 
ENDROOT
BRANCH   4   6
ATOM      6  C   UNL     1      50.767   5.794  11.278  0.00  0.00    +0.000 C 
ATOM      7  C   UNL     1      50.292   4.735  10.964  0.00  0.00    +0.000 C 
BRANCH   7  10
ATOM      8  O   UNL     1      50.117   2.436  11.135  0.00  0.00    +0.000 OA
ATOM      9  N   UNL     1      48.765   3.493   9.623  0.00  0.00    +0.000 N 
ATOM     10  C   UNL     1      49.729   3.464  10.592  0.00  0.00    +0.000 C 
ATOM     11  H   UNL     1      48.438   4.332   9.159  0.00  0.00    +0.000 HD
BRANCH   9  12
ATOM     12  O   UNL     1      48.198   2.263   9.228  0.00  0.00    +0.000 OA
ATOM     13  H   UNL     1      47.800   2.476   8.356  0.00  0.00    +0.000 HD
ENDBRANCH   9  12
ENDBRANCH   7  10
ENDBRANCH   4   6
BRANCH   1  15
ATOM     14  O   UNL     1      54.746   7.370  14.216  0.00  0.00    +0.000 OA
ATOM     15  C   UNL     1      53.698   6.755  14.413  0.00  0.00    +0.000 C 
BRANCH  15  16
ATOM     16  C   UNL     1      53.772   5.386  14.964  0.00  0.00    +0.000 A 
ATOM     17  C   UNL     1      54.049   2.730  15.901  0.00  0.00    +0.000 A 
ATOM     18  C   UNL     1      54.120   5.145  16.290  0.00  0.00    +0.000 A 
ATOM     19  C   UNL     1      53.589   4.314  14.095  0.00  0.00    +0.000 A 
ATOM     20  C   UNL     1      54.243   3.833  16.748  0.00  0.00    +0.000 A 
ATOM     21  C   UNL     1      53.714   3.007  14.566  0.00  0.00    +0.000 A 
BRANCH  17  22
ATOM     22  N   UNL     1      54.158   1.400  16.378  0.00  0.00    +0.000 N 
ATOM     23  C   UNL     1      53.087   0.440  16.167  0.00  0.00    +0.000 C 
ATOM     24  C   UNL     1      55.092   1.059  17.438  0.00  0.00    +0.000 C 
ENDBRANCH  17  22
ENDBRANCH  15  16
ENDBRANCH   1  15
TORSDOF 6
ENDMDL
MODEL 5
REMARK VINA RESULT:      -5.6      3.771      8.570
REMARK  Name = Trichostatin_A.pdbqt.pdb
REMARK  6 active torsions:
REMARK  status: ('A' for Active; 'I' for Inactive)
REMARK    1  A    between atoms: C_1  and  C_15
REMARK    2  A    between atoms: C_4  and  C_6
REMARK    3  A    between atoms: C_7  and  C_10
REMARK    4  A    between atoms: N_9  and  O_12
REMARK    5  A    between atoms: C_15  and  C_16
REMARK    6  A    between atoms: C_17  and  N_22
REMARK                            x       y       z     vdW  Elec       q    Type
REMARK                         _______ _______ _______ _____ _____    ______ ____
ROOT
ATOM      1  C   UNL     1      51.679   6.500   7.167  0.00  0.00    +0.000 C 
ATOM      2  C   UNL     1      50.506   7.170   6.478  0.00  0.00    +0.000 C 
ATOM      3  C   UNL     1      51.618   5.089   7.259  0.00  0.00    +0.000 C 
ATOM      4  C   UNL     1      51.608   3.802   7.374  0.00  0.00    +0.000 C 
ATOM      5  C   UNL     1      52.346   2.966   6.374  0.00  0.00    +0.000 C 
ENDROOT
BRANCH   4   6
ATOM      6  C   UNL     1      51.079   3.199   8.538  0.00  0.00    +0.000 C 
ATOM      7  C   UNL     1      50.629   2.689   9.530  0.00  0.00    +0.000 C 
BRANCH   7  10
ATOM      8  O   UNL     1      50.743   2.037  11.745  0.00  0.00    +0.000 OA
ATOM      9  N   UNL     1      48.824   1.558  10.596  0.00  0.00    +0.000 N 
ATOM     10  C   UNL     1      50.084   2.076  10.712  0.00  0.00    +0.000 C 
ATOM     11  H   UNL     1      48.269   1.575   9.748  0.00  0.00    +0.000 HD
BRANCH   9  12
ATOM     12  O   UNL     1      48.263   0.941  11.733  0.00  0.00    +0.000 OA
ATOM     13  H   UNL     1      47.637   0.292  11.343  0.00  0.00    +0.000 HD
ENDBRANCH   9  12
ENDBRANCH   7  10
ENDBRANCH   4   6
BRANCH   1  15
ATOM     14  O   UNL     1      53.586   7.898   7.394  0.00  0.00    +0.000 OA
ATOM     15  C   UNL     1      52.707   7.243   7.956  0.00  0.00    +0.000 C 
BRANCH  15  16
ATOM     16  C   UNL     1      52.678   7.214   9.432  0.00  0.00    +0.000 A 
ATOM     17  C   UNL     1      52.733   7.304  12.260  0.00  0.00    +0.000 A 
ATOM     18  C   UNL     1      51.501   7.406  10.149  0.00  0.00    +0.000 A 
ATOM     19  C   UNL     1      53.887   7.095  10.114  0.00  0.00    +0.000 A 
ATOM     20  C   UNL     1      51.534   7.438  11.543  0.00  0.00    +0.000 A 
ATOM     21  C   UNL     1      53.906   7.127  11.509  0.00  0.00    +0.000 A 
BRANCH  17  22
ATOM     22  N   UNL     1      52.756   7.319  13.677  0.00  0.00    +0.000 N 
ATOM     23  C   UNL     1      51.571   7.676  14.440  0.00  0.00    +0.000 C 
ATOM     24  C   UNL     1      54.010   7.414  14.406  0.00  0.00    +0.000 C 
ENDBRANCH  17  22
ENDBRANCH  15  16
ENDBRANCH   1  15
TORSDOF 6
ENDMDL
MODEL 6
REMARK VINA RESULT:      -5.3     22.691     23.973
REMARK  Name = Trichostatin_A.pdbqt.pdb
REMARK  6 active torsions:
REMARK  status: ('A' for Active; 'I' for Inactive)
REMARK    1  A    between atoms: C_1  and  C_15
REMARK    2  A    between atoms: C_4  and  C_6
REMARK    3  A    between atoms: C_7  and  C_10
REMARK    4  A    between atoms: N_9  and  O_12
REMARK    5  A    between atoms: C_15  and  C_16
REMARK    6  A    between atoms: C_17  and  N_22
REMARK                            x       y       z     vdW  Elec       q    Type
REMARK                         _______ _______ _______ _____ _____    ______ ____
ROOT
ATOM      1  C   UNL     1      32.743  17.428   3.212  0.00  0.00    +0.000 C 
ATOM      2  C   UNL     1      33.540  18.676   2.889  0.00  0.00    +0.000 C 
ATOM      3  C   UNL     1      31.580  17.622   3.995  0.00  0.00    +0.000 C 
ATOM      4  C   UNL     1      30.513  17.744   4.713  0.00  0.00    +0.000 C 
ATOM      5  C   UNL     1      29.177  17.832   4.040  0.00  0.00    +0.000 C 
ENDROOT
BRANCH   4   6
ATOM      6  C   UNL     1      30.581  17.595   6.118  0.00  0.00    +0.000 C 
ATOM      7  C   UNL     1      30.642  17.472   7.312  0.00  0.00    +0.000 C 
BRANCH   7  10
ATOM      8  O   UNL     1      31.787  17.152   9.294  0.00  0.00    +0.000 OA
ATOM      9  N   UNL     1      29.516  17.390   9.409  0.00  0.00    +0.000 N 
ATOM     10  C   UNL     1      30.707  17.325   8.742  0.00  0.00    +0.000 C 
ATOM     11  H   UNL     1      28.614  17.525   8.967  0.00  0.00    +0.000 HD
BRANCH   9  12
ATOM     12  O   UNL     1      29.541  17.241  10.811  0.00  0.00    +0.000 OA
ATOM     13  H   UNL     1      28.796  17.808  11.105  0.00  0.00    +0.000 HD
ENDBRANCH   9  12
ENDBRANCH   7  10
ENDBRANCH   4   6
BRANCH   1  15
ATOM     14  O   UNL     1      34.366  15.702   3.391  0.00  0.00    +0.000 OA
ATOM     15  C   UNL     1      33.253  16.041   2.988  0.00  0.00    +0.000 C 
BRANCH  15  16
ATOM     16  C   UNL     1      32.419  15.045   2.285  0.00  0.00    +0.000 A 
ATOM     17  C   UNL     1      30.678  13.194   1.040  0.00  0.00    +0.000 A 
ATOM     18  C   UNL     1      32.189  15.114   0.914  0.00  0.00    +0.000 A 
ATOM     19  C   UNL     1      31.764  14.079   3.044  0.00  0.00    +0.000 A 
ATOM     20  C   UNL     1      31.339  14.191   0.305  0.00  0.00    +0.000 A 
ATOM     21  C   UNL     1      30.917  13.161   2.423  0.00  0.00    +0.000 A 
BRANCH  17  22
ATOM     22  N   UNL     1      29.830  12.249   0.411  0.00  0.00    +0.000 N 
ATOM     23  C   UNL     1      28.828  11.520   1.172  0.00  0.00    +0.000 C 
ATOM     24  C   UNL     1      30.189  11.653  -0.866  0.00  0.00    +0.000 C 
ENDBRANCH  17  22
ENDBRANCH  15  16
ENDBRANCH   1  15
TORSDOF 6
ENDMDL
MODEL 7
REMARK VINA RESULT:      -5.2     14.922     18.676
REMARK  Name = Trichostatin_A.pdbqt.pdb
REMARK  6 active torsions:
REMARK  status: ('A' for Active; 'I' for Inactive)
REMARK    1  A    between atoms: C_1  and  C_15
REMARK    2  A    between atoms: C_4  and  C_6
REMARK    3  A    between atoms: C_7  and  C_10
REMARK    4  A    between atoms: N_9  and  O_12
REMARK    5  A    between atoms: C_15  and  C_16
REMARK    6  A    between atoms: C_17  and  N_22
REMARK                            x       y       z     vdW  Elec       q    Type
REMARK                         _______ _______ _______ _____ _____    ______ ____
ROOT
ATOM      1  C   UNL     1      52.382  18.055  14.638  0.00  0.00    +0.000 C 
ATOM      2  C   UNL     1      53.859  17.719  14.588  0.00  0.00    +0.000 C 
ATOM      3  C   UNL     1      51.551  17.322  13.757  0.00  0.00    +0.000 C 
ATOM      4  C   UNL     1      50.750  16.685  12.967  0.00  0.00    +0.000 C 
ATOM      5  C   UNL     1      49.998  15.496  13.482  0.00  0.00    +0.000 C 
ENDROOT
BRANCH   4   6
ATOM      6  C   UNL     1      50.432  17.220  11.697  0.00  0.00    +0.000 C 
ATOM      7  C   UNL     1      50.161  17.677  10.619  0.00  0.00    +0.000 C 
BRANCH   7  10
ATOM      8  O   UNL     1      49.021  19.126   9.225  0.00  0.00    +0.000 OA
ATOM      9  N   UNL     1      50.506  17.678   8.263  0.00  0.00    +0.000 N 
ATOM     10  C   UNL     1      49.844  18.224   9.327  0.00  0.00    +0.000 C 
ATOM     11  H   UNL     1      51.184  16.928   8.328  0.00  0.00    +0.000 HD
BRANCH   9  12
ATOM     12  O   UNL     1      50.213  18.184   6.979  0.00  0.00    +0.000 OA
ATOM     13  H   UNL     1      49.313  17.832   6.807  0.00  0.00    +0.000 HD
ENDBRANCH   9  12
ENDBRANCH   7  10
ENDBRANCH   4   6
BRANCH   1  15
ATOM     14  O   UNL     1      52.026  20.388  14.902  0.00  0.00    +0.000 OA
ATOM     15  C   UNL     1      51.830  19.254  15.338  0.00  0.00    +0.000 C 
BRANCH  15  16
ATOM     16  C   UNL     1      51.026  19.095  16.567  0.00  0.00    +0.000 A 
ATOM     17  C   UNL     1      49.396  18.945  18.876  0.00  0.00    +0.000 A 
ATOM     18  C   UNL     1      50.184  18.005  16.758  0.00  0.00    +0.000 A 
ATOM     19  C   UNL     1      51.041  20.126  17.504  0.00  0.00    +0.000 A 
ATOM     20  C   UNL     1      49.392  17.931  17.904  0.00  0.00    +0.000 A 
ATOM     21  C   UNL     1      50.245  20.039  18.646  0.00  0.00    +0.000 A 
BRANCH  17  22
ATOM     22  N   UNL     1      48.602  18.855  20.046  0.00  0.00    +0.000 N 
ATOM     23  C   UNL     1      48.661  19.885  21.070  0.00  0.00    +0.000 C 
ATOM     24  C   UNL     1      48.053  17.581  20.482  0.00  0.00    +0.000 C 
ENDBRANCH  17  22
ENDBRANCH  15  16
ENDBRANCH   1  15
TORSDOF 6
ENDMDL
MODEL 8
REMARK VINA RESULT:      -5.1      3.577      5.743
REMARK  Name = Trichostatin_A.pdbqt.pdb
REMARK  6 active torsions:
REMARK  status: ('A' for Active; 'I' for Inactive)
REMARK    1  A    between atoms: C_1  and  C_15
REMARK    2  A    between atoms: C_4  and  C_6
REMARK    3  A    between atoms: C_7  and  C_10
REMARK    4  A    between atoms: N_9  and  O_12
REMARK    5  A    between atoms: C_15  and  C_16
REMARK    6  A    between atoms: C_17  and  N_22
REMARK                            x       y       z     vdW  Elec       q    Type
REMARK                         _______ _______ _______ _____ _____    ______ ____
ROOT
ATOM      1  C   UNL     1      50.124   3.258   9.696  0.00  0.00    +0.000 C 
ATOM      2  C   UNL     1      49.668   4.624  10.166  0.00  0.00    +0.000 C 
ATOM      3  C   UNL     1      50.000   2.207  10.636  0.00  0.00    +0.000 C 
ATOM      4  C   UNL     1      49.913   1.214  11.458  0.00  0.00    +0.000 C 
ATOM      5  C   UNL     1      48.727   0.301  11.391  0.00  0.00    +0.000 C 
ENDROOT
BRANCH   4   6
ATOM      6  C   UNL     1      51.015   0.872  12.277  0.00  0.00    +0.000 C 
ATOM      7  C   UNL     1      51.953   0.583  12.969  0.00  0.00    +0.000 C 
BRANCH   7  10
ATOM      8  O   UNL     1      54.199   0.635  13.515  0.00  0.00    +0.000 OA
ATOM      9  N   UNL     1      52.798  -0.526  14.900  0.00  0.00    +0.000 N 
ATOM     10  C   UNL     1      53.075   0.242  13.804  0.00  0.00    +0.000 C 
ATOM     11  H   UNL     1      51.877  -0.865  15.149  0.00  0.00    +0.000 HD
BRANCH   9  12
ATOM     12  O   UNL     1      53.876  -0.887  15.735  0.00  0.00    +0.000 OA
ATOM     13  H   UNL     1      53.439  -1.406  16.444  0.00  0.00    +0.000 HD
ENDBRANCH   9  12
ENDBRANCH   7  10
ENDBRANCH   4   6
BRANCH   1  15
ATOM     14  O   UNL     1      51.617   3.931   7.975  0.00  0.00    +0.000 OA
ATOM     15  C   UNL     1      50.915   3.036   8.448  0.00  0.00    +0.000 C 
BRANCH  15  16
ATOM     16  C   UNL     1      50.878   1.727   7.765  0.00  0.00    +0.000 A 
ATOM     17  C   UNL     1      50.866  -0.696   6.304  0.00  0.00    +0.000 A 
ATOM     18  C   UNL     1      51.685   0.666   8.164  0.00  0.00    +0.000 A 
ATOM     19  C   UNL     1      50.087   1.600   6.626  0.00  0.00    +0.000 A 
ATOM     20  C   UNL     1      51.665  -0.530   7.447  0.00  0.00    +0.000 A 
ATOM     21  C   UNL     1      50.076   0.398   5.917  0.00  0.00    +0.000 A 
BRANCH  17  22
ATOM     22  N   UNL     1      50.838  -1.921   5.590  0.00  0.00    +0.000 N 
ATOM     23  C   UNL     1      51.607  -3.068   6.044  0.00  0.00    +0.000 C 
ATOM     24  C   UNL     1      50.424  -1.967   4.197  0.00  0.00    +0.000 C 
ENDBRANCH  17  22
ENDBRANCH  15  16
ENDBRANCH   1  15
TORSDOF 6
ENDMDL
MODEL 9
REMARK VINA RESULT:      -5.0      4.705      7.500
REMARK  Name = Trichostatin_A.pdbqt.pdb
REMARK  6 active torsions:
REMARK  status: ('A' for Active; 'I' for Inactive)
REMARK    1  A    between atoms: C_1  and  C_15
REMARK    2  A    between atoms: C_4  and  C_6
REMARK    3  A    between atoms: C_7  and  C_10
REMARK    4  A    between atoms: N_9  and  O_12
REMARK    5  A    between atoms: C_15  and  C_16
REMARK    6  A    between atoms: C_17  and  N_22
REMARK                            x       y       z     vdW  Elec       q    Type
REMARK                         _______ _______ _______ _____ _____    ______ ____
ROOT
ATOM      1  C   UNL     1      51.776   7.098  13.751  0.00  0.00    +0.000 C 
ATOM      2  C   UNL     1      50.652   7.553  14.659  0.00  0.00    +0.000 C 
ATOM      3  C   UNL     1      51.464   7.020  12.372  0.00  0.00    +0.000 C 
ATOM      4  C   UNL     1      51.230   6.925  11.105  0.00  0.00    +0.000 C 
ATOM      5  C   UNL     1      51.610   8.055  10.198  0.00  0.00    +0.000 C 
ENDROOT
BRANCH   4   6
ATOM      6  C   UNL     1      50.806   5.694  10.552  0.00  0.00    +0.000 C 
ATOM      7  C   UNL     1      50.450   4.647  10.083  0.00  0.00    +0.000 C 
BRANCH   7  10
ATOM      8  O   UNL     1      50.812   2.678   8.927  0.00  0.00    +0.000 OA
ATOM      9  N   UNL     1      48.700   3.074   9.711  0.00  0.00    +0.000 N 
ATOM     10  C   UNL     1      50.017   3.392   9.526  0.00  0.00    +0.000 C 
ATOM     11  H   UNL     1      48.029   3.656  10.197  0.00  0.00    +0.000 HD
BRANCH   9  12
ATOM     12  O   UNL     1      48.240   1.855   9.170  0.00  0.00    +0.000 OA
ATOM     13  H   UNL     1      47.505   1.612   9.774  0.00  0.00    +0.000 HD
ENDBRANCH   9  12
ENDBRANCH   7  10
ENDBRANCH   4   6
BRANCH   1  15
ATOM     14  O   UNL     1      53.606   6.936  15.256  0.00  0.00    +0.000 OA
ATOM     15  C   UNL     1      53.049   6.495  14.251  0.00  0.00    +0.000 C 
BRANCH  15  16
ATOM     16  C   UNL     1      53.655   5.346  13.549  0.00  0.00    +0.000 A 
ATOM     17  C   UNL     1      54.967   3.167  12.307  0.00  0.00    +0.000 A 
ATOM     18  C   UNL     1      53.117   4.066  13.634  0.00  0.00    +0.000 A 
ATOM     19  C   UNL     1      54.857   5.544  12.874  0.00  0.00    +0.000 A 
ATOM     20  C   UNL     1      53.762   2.998  13.009  0.00  0.00    +0.000 A 
ATOM     21  C   UNL     1      55.492   4.468  12.253  0.00  0.00    +0.000 A 
BRANCH  17  22
ATOM     22  N   UNL     1      55.607   2.081  11.660  0.00  0.00    +0.000 N 
ATOM     23  C   UNL     1      54.837   1.080  10.940  0.00  0.00    +0.000 C 
ATOM     24  C   UNL     1      56.952   1.673  12.034  0.00  0.00    +0.000 C 
ENDBRANCH  17  22
ENDBRANCH  15  16
ENDBRANCH   1  15
TORSDOF 6
ENDMDL
