MODEL 1
REMARK VINA RESULT:      -6.7      0.000      0.000
REMARK  Name = Trifluridine.pdbqt.pdb
REMARK  5 active torsions:
REMARK  status: ('A' for Active; 'I' for Inactive)
REMARK    1  A    between atoms: N_3  and  C1*_10
REMARK    2  A    between atoms: C_7  and  C_20
REMARK    3  A    between atoms: C4*_12  and  C5*_15
REMARK    4  A    between atoms: C3*_13  and  O3*_18
REMARK    5  A    between atoms: C5*_15  and  O5*_16
REMARK                            x       y       z     vdW  Elec       q    Type
REMARK                         _______ _______ _______ _____ _____    ______ ____
ROOT
ATOM      1  O   UNL     1      35.126  17.336  23.132  0.00  0.00    +0.000 OA
ATOM      2  O   UNL     1      34.018  12.885  23.288  0.00  0.00    +0.000 OA
ATOM      3  N   UNL     1      36.079  15.894  21.513  0.00  0.00    +0.000 N 
ATOM      4  N   UNL     1      34.603  15.101  23.153  0.00  0.00    +0.000 N 
ATOM      5  C   UNL     1      36.087  14.600  21.137  0.00  0.00    +0.000 A 
ATOM      6  C   UNL     1      35.274  16.230  22.626  0.00  0.00    +0.000 A 
ATOM      7  C   UNL     1      35.522  13.514  21.551  0.00  0.00    +0.000 A 
ATOM      8  C   UNL     1      34.651  13.768  22.726  0.00  0.00    +0.000 A 
ATOM      9  H   UNL     1      34.015  15.288  23.953  0.00  0.00    +0.000 HD
ENDROOT
BRANCH   3  10
ATOM     10  C1* UNL     1      36.838  16.793  20.820  0.00  0.00    +0.000 A 
ATOM     11  O4* UNL     1      36.335  18.035  20.417  0.00  0.00    +0.000 OA
ATOM     12  C4* UNL     1      37.361  18.681  19.715  0.00  0.00    +0.000 A 
ATOM     13  C3* UNL     1      38.522  17.828  19.686  0.00  0.00    +0.000 A 
ATOM     14  C2* UNL     1      38.166  16.653  20.373  0.00  0.00    +0.000 A 
BRANCH  13  15
ATOM     15  O3* UNL     1      39.397  17.867  18.638  0.00  0.00    +0.000 OA
ATOM     16  H3* UNL     1      39.899  17.036  18.570  0.00  0.00    +0.000 HD
ENDBRANCH  13  15
BRANCH  12  17
ATOM     17  C5* UNL     1      37.146  19.866  18.984  0.00  0.00    +0.000 C 
BRANCH  17  18
ATOM     18  O5* UNL     1      36.944  20.981  18.290  0.00  0.00    +0.000 OA
ATOM     19  H5* UNL     1      36.449  20.786  17.477  0.00  0.00    +0.000 HD
ENDBRANCH  17  18
ENDBRANCH  12  17
ENDBRANCH   3  10
BRANCH   7  20
ATOM     20  C   UNL     1      35.642  12.137  21.054  0.00  0.00    +0.000 C 
ATOM     21  F   UNL     1      34.445  11.602  20.706  0.00  0.00    +0.000 F 
ATOM     22  F   UNL     1      36.422  12.070  19.940  0.00  0.00    +0.000 F 
ATOM     23  F   UNL     1      36.211  11.305  21.962  0.00  0.00    +0.000 F 
ENDBRANCH   7  20
TORSDOF 5
ENDMDL
MODEL 2
REMARK VINA RESULT:      -5.5     24.624     26.336
REMARK  Name = Trifluridine.pdbqt.pdb
REMARK  5 active torsions:
REMARK  status: ('A' for Active; 'I' for Inactive)
REMARK    1  A    between atoms: N_3  and  C1*_10
REMARK    2  A    between atoms: C_7  and  C_20
REMARK    3  A    between atoms: C4*_12  and  C5*_15
REMARK    4  A    between atoms: C3*_13  and  O3*_18
REMARK    5  A    between atoms: C5*_15  and  O5*_16
REMARK                            x       y       z     vdW  Elec       q    Type
REMARK                         _______ _______ _______ _____ _____    ______ ____
ROOT
ATOM      1  O   UNL     1      50.254  -2.772   7.581  0.00  0.00    +0.000 OA
ATOM      2  O   UNL     1      50.931  -2.919   3.044  0.00  0.00    +0.000 OA
ATOM      3  N   UNL     1      50.210  -0.730   6.382  0.00  0.00    +0.000 N 
ATOM      4  N   UNL     1      50.578  -2.782   5.308  0.00  0.00    +0.000 N 
ATOM      5  C   UNL     1      50.339  -0.246   5.130  0.00  0.00    +0.000 A 
ATOM      6  C   UNL     1      50.333  -2.129   6.540  0.00  0.00    +0.000 A 
ATOM      7  C   UNL     1      50.563  -0.752   3.963  0.00  0.00    +0.000 A 
ATOM      8  C   UNL     1      50.710  -2.228   4.029  0.00  0.00    +0.000 A 
ATOM      9  H   UNL     1      50.676  -3.786   5.368  0.00  0.00    +0.000 HD
ENDROOT
BRANCH   3  10
ATOM     10  C1* UNL     1      49.978   0.138   7.410  0.00  0.00    +0.000 A 
ATOM     11  O4* UNL     1      50.474  -0.089   8.699  0.00  0.00    +0.000 OA
ATOM     12  C4* UNL     1      50.030   0.972   9.498  0.00  0.00    +0.000 A 
ATOM     13  C3* UNL     1      49.248   1.875   8.691  0.00  0.00    +0.000 A 
ATOM     14  C2* UNL     1      49.224   1.327   7.396  0.00  0.00    +0.000 A 
BRANCH  13  15
ATOM     15  O3* UNL     1      48.227   2.600   9.236  0.00  0.00    +0.000 OA
ATOM     16  H3* UNL     1      47.598   2.022   9.703  0.00  0.00    +0.000 HD
ENDBRANCH  13  15
BRANCH  12  17
ATOM     17  C5* UNL     1      50.164   0.969  10.901  0.00  0.00    +0.000 C 
BRANCH  17  18
ATOM     18  O5* UNL     1      50.287   0.962  12.224  0.00  0.00    +0.000 OA
ATOM     19  H5* UNL     1      50.148   0.065  12.569  0.00  0.00    +0.000 HD
ENDBRANCH  17  18
ENDBRANCH  12  17
ENDBRANCH   3  10
BRANCH   7  20
ATOM     20  C   UNL     1      50.710  -0.092   2.659  0.00  0.00    +0.000 C 
ATOM     21  F   UNL     1      50.675   1.260   2.752  0.00  0.00    +0.000 F 
ATOM     22  F   UNL     1      51.900  -0.399   2.072  0.00  0.00    +0.000 F 
ATOM     23  F   UNL     1      49.749  -0.465   1.777  0.00  0.00    +0.000 F 
ENDBRANCH   7  20
TORSDOF 5
ENDMDL
MODEL 3
REMARK VINA RESULT:      -5.2     18.457     20.801
REMARK  Name = Trifluridine.pdbqt.pdb
REMARK  5 active torsions:
REMARK  status: ('A' for Active; 'I' for Inactive)
REMARK    1  A    between atoms: N_3  and  C1*_10
REMARK    2  A    between atoms: C_7  and  C_20
REMARK    3  A    between atoms: C4*_12  and  C5*_15
REMARK    4  A    between atoms: C3*_13  and  O3*_18
REMARK    5  A    between atoms: C5*_15  and  O5*_16
REMARK                            x       y       z     vdW  Elec       q    Type
REMARK                         _______ _______ _______ _____ _____    ______ ____
ROOT
ATOM      1  O   UNL     1      28.142  -3.903  13.475  0.00  0.00    +0.000 OA
ATOM      2  O   UNL     1      28.643  -3.337   8.948  0.00  0.00    +0.000 OA
ATOM      3  N   UNL     1      28.558  -1.716  12.665  0.00  0.00    +0.000 N 
ATOM      4  N   UNL     1      28.393  -3.555  11.219  0.00  0.00    +0.000 N 
ATOM      5  C   UNL     1      28.766  -1.046  11.514  0.00  0.00    +0.000 A 
ATOM      6  C   UNL     1      28.345  -3.110  12.562  0.00  0.00    +0.000 A 
ATOM      7  C   UNL     1      28.831  -1.359  10.263  0.00  0.00    +0.000 A 
ATOM      8  C   UNL     1      28.620  -2.813  10.053  0.00  0.00    +0.000 A 
ATOM      9  H   UNL     1      28.249  -4.546  11.092  0.00  0.00    +0.000 HD
ENDROOT
BRANCH   3  10
ATOM     10  C1* UNL     1      28.569  -1.030  13.846  0.00  0.00    +0.000 A 
ATOM     11  O4* UNL     1      27.523  -0.180  14.221  0.00  0.00    +0.000 OA
ATOM     12  C4* UNL     1      27.872   0.373  15.460  0.00  0.00    +0.000 A 
ATOM     13  C3* UNL     1      29.155  -0.146  15.863  0.00  0.00    +0.000 A 
ATOM     14  C2* UNL     1      29.572  -1.011  14.835  0.00  0.00    +0.000 A 
BRANCH  13  15
ATOM     15  O3* UNL     1      30.006   0.599  16.630  0.00  0.00    +0.000 OA
ATOM     16  H3* UNL     1      30.925   0.299  16.523  0.00  0.00    +0.000 HD
ENDBRANCH  13  15
BRANCH  12  17
ATOM     17  C5* UNL     1      27.152   1.433  16.044  0.00  0.00    +0.000 C 
BRANCH  17  18
ATOM     18  O5* UNL     1      26.473   2.436  16.591  0.00  0.00    +0.000 OA
ATOM     19  H5* UNL     1      27.034   3.228  16.653  0.00  0.00    +0.000 HD
ENDBRANCH  17  18
ENDBRANCH  12  17
ENDBRANCH   3  10
BRANCH   7  20
ATOM     20  C   UNL     1      29.097  -0.515   9.090  0.00  0.00    +0.000 C 
ATOM     21  F   UNL     1      27.996  -0.332   8.319  0.00  0.00    +0.000 F 
ATOM     22  F   UNL     1      29.515   0.730   9.450  0.00  0.00    +0.000 F 
ATOM     23  F   UNL     1      30.071  -1.023   8.295  0.00  0.00    +0.000 F 
ENDBRANCH   7  20
TORSDOF 5
ENDMDL
MODEL 4
REMARK VINA RESULT:      -5.2     20.900     22.481
REMARK  Name = Trifluridine.pdbqt.pdb
REMARK  5 active torsions:
REMARK  status: ('A' for Active; 'I' for Inactive)
REMARK    1  A    between atoms: N_3  and  C1*_10
REMARK    2  A    between atoms: C_7  and  C_20
REMARK    3  A    between atoms: C4*_12  and  C5*_15
REMARK    4  A    between atoms: C3*_13  and  O3*_18
REMARK    5  A    between atoms: C5*_15  and  O5*_16
REMARK                            x       y       z     vdW  Elec       q    Type
REMARK                         _______ _______ _______ _____ _____    ______ ____
ROOT
ATOM      1  O   UNL     1      53.182   4.818   8.381  0.00  0.00    +0.000 OA
ATOM      2  O   UNL     1      50.752   1.889   5.817  0.00  0.00    +0.000 OA
ATOM      3  N   UNL     1      51.390   3.660   9.410  0.00  0.00    +0.000 N 
ATOM      4  N   UNL     1      51.935   3.333   7.152  0.00  0.00    +0.000 N 
ATOM      5  C   UNL     1      50.431   2.755   9.133  0.00  0.00    +0.000 A 
ATOM      6  C   UNL     1      52.253   4.019   8.349  0.00  0.00    +0.000 A 
ATOM      7  C   UNL     1      50.064   2.087   8.090  0.00  0.00    +0.000 A 
ATOM      8  C   UNL     1      50.917   2.400   6.916  0.00  0.00    +0.000 A 
ATOM      9  H   UNL     1      52.523   3.556   6.362  0.00  0.00    +0.000 HD
ENDROOT
BRANCH   3  10
ATOM     10  C1* UNL     1      51.472   4.178  10.670  0.00  0.00    +0.000 A 
ATOM     11  O4* UNL     1      50.838   5.374  11.025  0.00  0.00    +0.000 OA
ATOM     12  C4* UNL     1      51.152   5.619  12.368  0.00  0.00    +0.000 A 
ATOM     13  C3* UNL     1      51.994   4.555  12.856  0.00  0.00    +0.000 A 
ATOM     14  C2* UNL     1      52.186   3.675  11.776  0.00  0.00    +0.000 A 
BRANCH  13  15
ATOM     15  O3* UNL     1      52.921   4.784  13.833  0.00  0.00    +0.000 OA
ATOM     16  H3* UNL     1      53.016   4.008  14.413  0.00  0.00    +0.000 HD
ENDBRANCH  13  15
BRANCH  12  17
ATOM     17  C5* UNL     1      50.856   6.841  13.003  0.00  0.00    +0.000 C 
BRANCH  17  18
ATOM     18  O5* UNL     1      50.582   7.996  13.600  0.00  0.00    +0.000 OA
ATOM     19  H5* UNL     1      50.393   8.681  12.936  0.00  0.00    +0.000 HD
ENDBRANCH  17  18
ENDBRANCH  12  17
ENDBRANCH   3  10
BRANCH   7  20
ATOM     20  C   UNL     1      48.960   1.133   7.917  0.00  0.00    +0.000 C 
ATOM     21  F   UNL     1      48.215   0.990   9.041  0.00  0.00    +0.000 F 
ATOM     22  F   UNL     1      48.098   1.534   6.942  0.00  0.00    +0.000 F 
ATOM     23  F   UNL     1      49.391  -0.100   7.553  0.00  0.00    +0.000 F 
ENDBRANCH   7  20
TORSDOF 5
ENDMDL
MODEL 5
REMARK VINA RESULT:      -5.1      2.083      2.355
REMARK  Name = Trifluridine.pdbqt.pdb
REMARK  5 active torsions:
REMARK  status: ('A' for Active; 'I' for Inactive)
REMARK    1  A    between atoms: N_3  and  C1*_10
REMARK    2  A    between atoms: C_7  and  C_20
REMARK    3  A    between atoms: C4*_12  and  C5*_15
REMARK    4  A    between atoms: C3*_13  and  O3*_18
REMARK    5  A    between atoms: C5*_15  and  O5*_16
REMARK                            x       y       z     vdW  Elec       q    Type
REMARK                         _______ _______ _______ _____ _____    ______ ____
ROOT
ATOM      1  O   UNL     1      32.632  17.301  22.283  0.00  0.00    +0.000 OA
ATOM      2  O   UNL     1      33.536  12.802  22.314  0.00  0.00    +0.000 OA
ATOM      3  N   UNL     1      34.485  16.529  21.027  0.00  0.00    +0.000 N 
ATOM      4  N   UNL     1      33.129  15.060  22.253  0.00  0.00    +0.000 N 
ATOM      5  C   UNL     1      35.141  15.394  20.716  0.00  0.00    +0.000 A 
ATOM      6  C   UNL     1      33.362  16.405  21.876  0.00  0.00    +0.000 A 
ATOM      7  C   UNL     1      35.011  14.143  21.008  0.00  0.00    +0.000 A 
ATOM      8  C   UNL     1      33.850  13.911  21.904  0.00  0.00    +0.000 A 
ATOM      9  H   UNL     1      32.337  14.917  22.862  0.00  0.00    +0.000 HD
ENDROOT
BRANCH   3  10
ATOM     10  C1* UNL     1      34.934  17.716  20.523  0.00  0.00    +0.000 A 
ATOM     11  O4* UNL     1      35.663  18.625  21.299  0.00  0.00    +0.000 OA
ATOM     12  C4* UNL     1      35.934  19.731  20.484  0.00  0.00    +0.000 A 
ATOM     13  C3* UNL     1      35.366  19.505  19.178  0.00  0.00    +0.000 A 
ATOM     14  C2* UNL     1      34.740  18.246  19.233  0.00  0.00    +0.000 A 
BRANCH  13  15
ATOM     15  O3* UNL     1      34.926  20.547  18.413  0.00  0.00    +0.000 OA
ATOM     16  H3* UNL     1      35.572  21.275  18.410  0.00  0.00    +0.000 HD
ENDBRANCH  13  15
BRANCH  12  17
ATOM     17  C5* UNL     1      36.471  20.930  20.991  0.00  0.00    +0.000 C 
BRANCH  17  18
ATOM     18  O5* UNL     1      36.982  22.061  21.468  0.00  0.00    +0.000 OA
ATOM     19  H5* UNL     1      37.856  21.895  21.861  0.00  0.00    +0.000 HD
ENDBRANCH  17  18
ENDBRANCH  12  17
ENDBRANCH   3  10
BRANCH   7  20
ATOM     20  C   UNL     1      35.830  12.988  20.614  0.00  0.00    +0.000 C 
ATOM     21  F   UNL     1      35.209  12.194  19.707  0.00  0.00    +0.000 F 
ATOM     22  F   UNL     1      37.000  13.377  20.035  0.00  0.00    +0.000 F 
ATOM     23  F   UNL     1      36.174  12.210  21.670  0.00  0.00    +0.000 F 
ENDBRANCH   7  20
TORSDOF 5
ENDMDL
MODEL 6
REMARK VINA RESULT:      -4.7     18.551     21.038
REMARK  Name = Trifluridine.pdbqt.pdb
REMARK  5 active torsions:
REMARK  status: ('A' for Active; 'I' for Inactive)
REMARK    1  A    between atoms: N_3  and  C1*_10
REMARK    2  A    between atoms: C_7  and  C_20
REMARK    3  A    between atoms: C4*_12  and  C5*_15
REMARK    4  A    between atoms: C3*_13  and  O3*_18
REMARK    5  A    between atoms: C5*_15  and  O5*_16
REMARK                            x       y       z     vdW  Elec       q    Type
REMARK                         _______ _______ _______ _____ _____    ______ ____
ROOT
ATOM      1  O   UNL     1      54.938  18.356  11.170  0.00  0.00    +0.000 OA
ATOM      2  O   UNL     1      50.457  19.004  11.919  0.00  0.00    +0.000 OA
ATOM      3  N   UNL     1      53.404  17.399   9.640  0.00  0.00    +0.000 N 
ATOM      4  N   UNL     1      52.684  18.653  11.487  0.00  0.00    +0.000 N 
ATOM      5  C   UNL     1      52.080  17.295   9.411  0.00  0.00    +0.000 A 
ATOM      6  C   UNL     1      53.797  18.141  10.778  0.00  0.00    +0.000 A 
ATOM      7  C   UNL     1      51.006  17.715   9.992  0.00  0.00    +0.000 A 
ATOM      8  C   UNL     1      51.319  18.508  11.207  0.00  0.00    +0.000 A 
ATOM      9  H   UNL     1      52.912  19.190  12.311  0.00  0.00    +0.000 HD
ENDROOT
BRANCH   3  10
ATOM     10  C1* UNL     1      54.277  16.791   8.785  0.00  0.00    +0.000 A 
ATOM     11  O4* UNL     1      54.485  15.407   8.795  0.00  0.00    +0.000 OA
ATOM     12  C4* UNL     1      55.453  15.134   7.820  0.00  0.00    +0.000 A 
ATOM     13  C3* UNL     1      55.851  16.369   7.192  0.00  0.00    +0.000 A 
ATOM     14  C2* UNL     1      55.110  17.387   7.818  0.00  0.00    +0.000 A 
BRANCH  13  15
ATOM     15  O3* UNL     1      57.115  16.532   6.700  0.00  0.00    +0.000 OA
ATOM     16  H3* UNL     1      57.258  17.447   6.403  0.00  0.00    +0.000 HD
ENDBRANCH  13  15
BRANCH  12  17
ATOM     17  C5* UNL     1      56.062  13.870   7.694  0.00  0.00    +0.000 C 
BRANCH  17  18
ATOM     18  O5* UNL     1      56.632  12.675   7.573  0.00  0.00    +0.000 OA
ATOM     19  H5* UNL     1      57.599  12.765   7.549  0.00  0.00    +0.000 HD
ENDBRANCH  17  18
ENDBRANCH  12  17
ENDBRANCH   3  10
BRANCH   7  20
ATOM     20  C   UNL     1      49.595  17.500   9.643  0.00  0.00    +0.000 C 
ATOM     21  F   UNL     1      49.444  16.847   8.463  0.00  0.00    +0.000 F 
ATOM     22  F   UNL     1      48.956  16.742  10.576  0.00  0.00    +0.000 F 
ATOM     23  F   UNL     1      48.897  18.660   9.559  0.00  0.00    +0.000 F 
ENDBRANCH   7  20
TORSDOF 5
ENDMDL
MODEL 7
REMARK VINA RESULT:      -4.7      4.214      5.019
REMARK  Name = Trifluridine.pdbqt.pdb
REMARK  5 active torsions:
REMARK  status: ('A' for Active; 'I' for Inactive)
REMARK    1  A    between atoms: N_3  and  C1*_10
REMARK    2  A    between atoms: C_7  and  C_20
REMARK    3  A    between atoms: C4*_12  and  C5*_15
REMARK    4  A    between atoms: C3*_13  and  O3*_18
REMARK    5  A    between atoms: C5*_15  and  O5*_16
REMARK                            x       y       z     vdW  Elec       q    Type
REMARK                         _______ _______ _______ _____ _____    ______ ____
ROOT
ATOM      1  O   UNL     1      32.294  15.942  20.830  0.00  0.00    +0.000 OA
ATOM      2  O   UNL     1      36.582  14.554  21.694  0.00  0.00    +0.000 OA
ATOM      3  N   UNL     1      34.064  17.005  19.669  0.00  0.00    +0.000 N 
ATOM      4  N   UNL     1      34.460  15.285  21.213  0.00  0.00    +0.000 N 
ATOM      5  C   UNL     1      35.407  16.982  19.557  0.00  0.00    +0.000 A 
ATOM      6  C   UNL     1      33.484  16.086  20.574  0.00  0.00    +0.000 A 
ATOM      7  C   UNL     1      36.367  16.303  20.091  0.00  0.00    +0.000 A 
ATOM      8  C   UNL     1      35.853  15.306  21.064  0.00  0.00    +0.000 A 
ATOM      9  H   UNL     1      34.097  14.612  21.872  0.00  0.00    +0.000 HD
ENDROOT
BRANCH   3  10
ATOM     10  C1* UNL     1      33.349  17.900  18.926  0.00  0.00    +0.000 A 
ATOM     11  O4* UNL     1      32.457  17.492  17.928  0.00  0.00    +0.000 OA
ATOM     12  C4* UNL     1      31.925  18.655  17.357  0.00  0.00    +0.000 A 
ATOM     13  C3* UNL     1      32.494  19.805  18.013  0.00  0.00    +0.000 A 
ATOM     14  C2* UNL     1      33.386  19.307  18.980  0.00  0.00    +0.000 A 
BRANCH  13  15
ATOM     15  O3* UNL     1      32.670  20.982  17.342  0.00  0.00    +0.000 OA
ATOM     16  H3* UNL     1      31.879  21.210  16.824  0.00  0.00    +0.000 HD
ENDBRANCH  13  15
BRANCH  12  17
ATOM     17  C5* UNL     1      31.149  18.632  16.182  0.00  0.00    +0.000 C 
BRANCH  17  18
ATOM     18  O5* UNL     1      30.415  18.606  15.074  0.00  0.00    +0.000 OA
ATOM     19  H5* UNL     1      30.080  19.496  14.872  0.00  0.00    +0.000 HD
ENDBRANCH  17  18
ENDBRANCH  12  17
ENDBRANCH   3  10
BRANCH   7  20
ATOM     20  C   UNL     1      37.820  16.402  19.894  0.00  0.00    +0.000 C 
ATOM     21  F   UNL     1      38.350  15.275  19.355  0.00  0.00    +0.000 F 
ATOM     22  F   UNL     1      38.143  17.414  19.043  0.00  0.00    +0.000 F 
ATOM     23  F   UNL     1      38.485  16.654  21.048  0.00  0.00    +0.000 F 
ENDBRANCH   7  20
TORSDOF 5
ENDMDL
MODEL 8
REMARK VINA RESULT:      -4.6     21.417     23.363
REMARK  Name = Trifluridine.pdbqt.pdb
REMARK  5 active torsions:
REMARK  status: ('A' for Active; 'I' for Inactive)
REMARK    1  A    between atoms: N_3  and  C1*_10
REMARK    2  A    between atoms: C_7  and  C_20
REMARK    3  A    between atoms: C4*_12  and  C5*_15
REMARK    4  A    between atoms: C3*_13  and  O3*_18
REMARK    5  A    between atoms: C5*_15  and  O5*_16
REMARK                            x       y       z     vdW  Elec       q    Type
REMARK                         _______ _______ _______ _____ _____    ______ ____
ROOT
ATOM      1  O   UNL     1      51.592   2.480   6.895  0.00  0.00    +0.000 OA
ATOM      2  O   UNL     1      53.170   6.182   4.690  0.00  0.00    +0.000 OA
ATOM      3  N   UNL     1      51.286   4.597   7.913  0.00  0.00    +0.000 N 
ATOM      4  N   UNL     1      52.352   4.370   5.836  0.00  0.00    +0.000 N 
ATOM      5  C   UNL     1      51.538   5.905   7.707  0.00  0.00    +0.000 A 
ATOM      6  C   UNL     1      51.715   3.699   6.908  0.00  0.00    +0.000 A 
ATOM      7  C   UNL     1      52.107   6.601   6.780  0.00  0.00    +0.000 A 
ATOM      8  C   UNL     1      52.595   5.740   5.674  0.00  0.00    +0.000 A 
ATOM      9  H   UNL     1      52.680   3.772   5.091  0.00  0.00    +0.000 HD
ENDROOT
BRANCH   3  10
ATOM     10  C1* UNL     1      50.650   4.213   9.058  0.00  0.00    +0.000 A 
ATOM     11  O4* UNL     1      50.684   2.893   9.521  0.00  0.00    +0.000 OA
ATOM     12  C4* UNL     1      49.914   2.851  10.690  0.00  0.00    +0.000 A 
ATOM     13  C3* UNL     1      49.395   4.168  10.960  0.00  0.00    +0.000 A 
ATOM     14  C2* UNL     1      49.860   4.996   9.923  0.00  0.00    +0.000 A 
BRANCH  13  15
ATOM     15  O3* UNL     1      48.197   4.335  11.595  0.00  0.00    +0.000 OA
ATOM     16  H3* UNL     1      47.454   4.182  10.986  0.00  0.00    +0.000 HD
ENDBRANCH  13  15
BRANCH  12  17
ATOM     17  C5* UNL     1      49.554   1.641  11.315  0.00  0.00    +0.000 C 
BRANCH  17  18
ATOM     18  O5* UNL     1      49.218   0.500  11.909  0.00  0.00    +0.000 OA
ATOM     19  H5* UNL     1      49.784  -0.223  11.592  0.00  0.00    +0.000 HD
ENDBRANCH  17  18
ENDBRANCH  12  17
ENDBRANCH   3  10
BRANCH   7  20
ATOM     20  C   UNL     1      52.343   8.049   6.695  0.00  0.00    +0.000 C 
ATOM     21  F   UNL     1      51.782   8.604   5.592  0.00  0.00    +0.000 F 
ATOM     22  F   UNL     1      51.810   8.709   7.761  0.00  0.00    +0.000 F 
ATOM     23  F   UNL     1      53.663   8.360   6.682  0.00  0.00    +0.000 F 
ENDBRANCH   7  20
TORSDOF 5
ENDMDL
MODEL 9
REMARK VINA RESULT:      -4.5     18.999     19.718
REMARK  Name = Trifluridine.pdbqt.pdb
REMARK  5 active torsions:
REMARK  status: ('A' for Active; 'I' for Inactive)
REMARK    1  A    between atoms: N_3  and  C1*_10
REMARK    2  A    between atoms: C_7  and  C_20
REMARK    3  A    between atoms: C4*_12  and  C5*_15
REMARK    4  A    between atoms: C3*_13  and  O3*_18
REMARK    5  A    between atoms: C5*_15  and  O5*_16
REMARK                            x       y       z     vdW  Elec       q    Type
REMARK                         _______ _______ _______ _____ _____    ______ ____
ROOT
ATOM      1  O   UNL     1      28.781  11.534   0.345  0.00  0.00    +0.000 OA
ATOM      2  O   UNL     1      27.120   7.909   2.619  0.00  0.00    +0.000 OA
ATOM      3  N   UNL     1      29.150  11.420   2.682  0.00  0.00    +0.000 N 
ATOM      4  N   UNL     1      27.982   9.741   1.536  0.00  0.00    +0.000 N 
ATOM      5  C   UNL     1      28.897  10.633   3.746  0.00  0.00    +0.000 A 
ATOM      6  C   UNL     1      28.666  10.975   1.430  0.00  0.00    +0.000 A 
ATOM      7  C   UNL     1      28.288   9.511   3.941  0.00  0.00    +0.000 A 
ATOM      8  C   UNL     1      27.740   8.962   2.675  0.00  0.00    +0.000 A 
ATOM      9  H   UNL     1      27.614   9.380   0.667  0.00  0.00    +0.000 HD
ENDROOT
BRANCH   3  10
ATOM     10  C1* UNL     1      29.840  12.585   2.864  0.00  0.00    +0.000 A 
ATOM     11  O4* UNL     1      30.861  12.987   1.996  0.00  0.00    +0.000 OA
ATOM     12  C4* UNL     1      31.362  14.198   2.491  0.00  0.00    +0.000 A 
ATOM     13  C3* UNL     1      30.639  14.555   3.685  0.00  0.00    +0.000 A 
ATOM     14  C2* UNL     1      29.702  13.528   3.901  0.00  0.00    +0.000 A 
BRANCH  13  15
ATOM     15  O3* UNL     1      31.238  15.268   4.684  0.00  0.00    +0.000 OA
ATOM     16  H3* UNL     1      31.341  14.727   5.486  0.00  0.00    +0.000 HD
ENDBRANCH  13  15
BRANCH  12  17
ATOM     17  C5* UNL     1      32.537  14.791   1.988  0.00  0.00    +0.000 C 
BRANCH  17  18
ATOM     18  O5* UNL     1      33.646  15.346   1.510  0.00  0.00    +0.000 OA
ATOM     19  H5* UNL     1      34.230  14.664   1.138  0.00  0.00    +0.000 HD
ENDBRANCH  17  18
ENDBRANCH  12  17
ENDBRANCH   3  10
BRANCH   7  20
ATOM     20  C   UNL     1      28.057   8.763   5.184  0.00  0.00    +0.000 C 
ATOM     21  F   UNL     1      26.883   9.090   5.779  0.00  0.00    +0.000 F 
ATOM     22  F   UNL     1      28.006   7.421   4.961  0.00  0.00    +0.000 F 
ATOM     23  F   UNL     1      29.043   8.954   6.096  0.00  0.00    +0.000 F 
ENDBRANCH   7  20
TORSDOF 5
ENDMDL
