MODEL 1
REMARK VINA RESULT:      -7.6      0.000      0.000
REMARK  Name = Troglitazone.pdbqt.pdb
REMARK  4 active torsions:
REMARK  status: ('A' for Active; 'I' for Inactive)
REMARK    1  A    between atoms: C_1  and  O_2
REMARK    2  A    between atoms: C_1  and  C_18
REMARK    3  A    between atoms: O_2  and  C_3
REMARK    4  A    between atoms: C_26  and  O_32
REMARK                            x       y       z     vdW  Elec       q    Type
REMARK                         _______ _______ _______ _____ _____    ______ ____
ROOT
ATOM      1  C   UNL     1      33.999  13.865  21.357  0.00  0.00    +0.000 C 
ENDROOT
BRANCH   1   2
ATOM      2  C   UNL     1      34.887  15.007  21.635  0.00  0.00    +0.000 C 
ATOM      3  O   UNL     1      34.396  16.143  20.836  0.00  0.00    +0.000 OA
ATOM      4  C   UNL     1      35.233  17.122  20.287  0.00  0.00    +0.000 A 
ATOM      5  C   UNL     1      36.627  16.938  20.053  0.00  0.00    +0.000 A 
ATOM      6  C   UNL     1      34.624  18.333  19.897  0.00  0.00    +0.000 A 
ATOM      7  C   UNL     1      37.129  15.677  20.468  0.00  0.00    +0.000 C 
ATOM      8  C   UNL     1      37.410  17.943  19.471  0.00  0.00    +0.000 A 
ATOM      9  C   UNL     1      36.263  14.737  21.236  0.00  0.00    +0.000 C 
ATOM     10  C   UNL     1      36.797  19.151  19.104  0.00  0.00    +0.000 A 
ATOM     11  C   UNL     1      38.889  17.721  19.234  0.00  0.00    +0.000 C 
ATOM     12  C   UNL     1      35.416  19.347  19.313  0.00  0.00    +0.000 A 
ATOM     13  C   UNL     1      34.856  20.695  18.859  0.00  0.00    +0.000 C 
ATOM     14  C   UNL     1      33.124  18.502  20.105  0.00  0.00    +0.000 C 
ATOM     15  C   UNL     1      34.812  15.439  23.120  0.00  0.00    +0.000 C 
BRANCH  10  16
ATOM     16  O   UNL     1      37.549  20.160  18.525  0.00  0.00    +0.000 OA
ATOM     17  H   UNL     1      36.983  20.960  18.452  0.00  0.00    +0.000 HD
ENDBRANCH  10  16
ENDBRANCH   1   2
BRANCH   1  18
ATOM     18  O   UNL     1      33.191  12.837  21.097  0.00  0.00    +0.000 OA
BRANCH  18  19
ATOM     19  C   UNL     1      33.605  11.636  21.617  0.00  0.00    +0.000 C 
ATOM     20  C   UNL     1      32.747  10.613  22.026  0.00  0.00    +0.000 C 
ATOM     21  C   UNL     1      33.263   9.425  22.536  0.00  0.00    +0.000 C 
ATOM     22  C   UNL     1      34.642   9.257  22.639  0.00  0.00    +0.000 C 
ATOM     23  C   UNL     1      35.504  10.274  22.234  0.00  0.00    +0.000 C 
ATOM     24  C   UNL     1      34.985  11.462  21.722  0.00  0.00    +0.000 C 
ATOM     25  C   UNL     1      35.172   8.043  23.160  0.00  0.00    +0.000 C 
ATOM     26  C   UNL     1      35.706   6.843  23.683  0.00  0.00    +0.000 C 
ATOM     27  S   UNL     1      35.089   5.268  23.359  0.00  0.00    +0.000 S 
ATOM     28  C   UNL     1      36.315   4.510  24.357  0.00  0.00    +0.000 C 
ATOM     29  O   UNL     1      36.413   3.307  24.529  0.00  0.00    +0.000 OA
ATOM     30  N   UNL     1      37.125   5.458  24.891  0.00  0.00    +0.000 N 
ATOM     31  C   UNL     1      36.879   6.762  24.577  0.00  0.00    +0.000 C 
ATOM     32  H   UNL     1      37.893   5.202  25.491  0.00  0.00    +0.000 HD
ATOM     33  O   UNL     1      37.535   7.711  24.973  0.00  0.00    +0.000 OA
ENDBRANCH  18  19
ENDBRANCH   1  18
TORSDOF 4
ENDMDL
MODEL 2
REMARK VINA RESULT:      -7.4     22.626     24.501
REMARK  Name = Troglitazone.pdbqt.pdb
REMARK  4 active torsions:
REMARK  status: ('A' for Active; 'I' for Inactive)
REMARK    1  A    between atoms: C_1  and  O_2
REMARK    2  A    between atoms: C_1  and  C_18
REMARK    3  A    between atoms: O_2  and  C_3
REMARK    4  A    between atoms: C_26  and  O_32
REMARK                            x       y       z     vdW  Elec       q    Type
REMARK                         _______ _______ _______ _____ _____    ______ ____
ROOT
ATOM      1  C   UNL     1      49.941   0.921  10.732  0.00  0.00    +0.000 C 
ENDROOT
BRANCH   1   2
ATOM      2  C   UNL     1      50.963   1.365  11.696  0.00  0.00    +0.000 C 
ATOM      3  O   UNL     1      50.876   2.833  11.774  0.00  0.00    +0.000 OA
ATOM      4  C   UNL     1      51.984   3.662  11.992  0.00  0.00    +0.000 A 
ATOM      5  C   UNL     1      53.332   3.273  11.741  0.00  0.00    +0.000 A 
ATOM      6  C   UNL     1      51.717   4.976  12.432  0.00  0.00    +0.000 A 
ATOM      7  C   UNL     1      53.481   1.937  11.286  0.00  0.00    +0.000 C 
ATOM      8  C   UNL     1      54.399   4.156  11.947  0.00  0.00    +0.000 A 
ATOM      9  C   UNL     1      52.309   1.014  11.262  0.00  0.00    +0.000 C 
ATOM     10  C   UNL     1      54.124   5.455  12.403  0.00  0.00    +0.000 A 
ATOM     11  C   UNL     1      55.821   3.717  11.672  0.00  0.00    +0.000 C 
ATOM     12  C   UNL     1      52.795   5.865  12.642  0.00  0.00    +0.000 A 
ATOM     13  C   UNL     1      52.616   7.306  13.120  0.00  0.00    +0.000 C 
ATOM     14  C   UNL     1      50.270   5.399  12.650  0.00  0.00    +0.000 C 
ATOM     15  C   UNL     1      50.677   0.824  13.119  0.00  0.00    +0.000 C 
BRANCH  10  16
ATOM     16  O   UNL     1      55.161   6.349  12.613  0.00  0.00    +0.000 OA
ATOM     17  H   UNL     1      55.348   6.380  13.576  0.00  0.00    +0.000 HD
ENDBRANCH  10  16
ENDBRANCH   1   2
BRANCH   1  18
ATOM     18  O   UNL     1      49.008   0.525   9.865  0.00  0.00    +0.000 OA
BRANCH  18  19
ATOM     19  C   UNL     1      49.457   0.353   8.579  0.00  0.00    +0.000 C 
ATOM     20  C   UNL     1      50.302  -0.680   8.168  0.00  0.00    +0.000 C 
ATOM     21  C   UNL     1      50.698  -0.775   6.836  0.00  0.00    +0.000 C 
ATOM     22  C   UNL     1      50.250   0.165   5.912  0.00  0.00    +0.000 C 
ATOM     23  C   UNL     1      49.407   1.198   6.315  0.00  0.00    +0.000 C 
ATOM     24  C   UNL     1      49.011   1.291   7.648  0.00  0.00    +0.000 C 
ATOM     25  C   UNL     1      50.653   0.069   4.550  0.00  0.00    +0.000 C 
ATOM     26  C   UNL     1      51.056  -0.016   3.198  0.00  0.00    +0.000 C 
ATOM     27  S   UNL     1      51.207  -1.481   2.305  0.00  0.00    +0.000 S 
ATOM     28  C   UNL     1      51.702  -0.626   0.857  0.00  0.00    +0.000 C 
ATOM     29  O   UNL     1      51.966  -1.167  -0.203  0.00  0.00    +0.000 OA
ATOM     30  N   UNL     1      51.740   0.708   1.100  0.00  0.00    +0.000 N 
ATOM     31  C   UNL     1      51.396   1.142   2.346  0.00  0.00    +0.000 C 
ATOM     32  H   UNL     1      52.001   1.357   0.375  0.00  0.00    +0.000 HD
ATOM     33  O   UNL     1      51.372   2.310   2.696  0.00  0.00    +0.000 OA
ENDBRANCH  18  19
ENDBRANCH   1  18
TORSDOF 4
ENDMDL
MODEL 3
REMARK VINA RESULT:      -7.1     10.099     16.202
REMARK  Name = Troglitazone.pdbqt.pdb
REMARK  4 active torsions:
REMARK  status: ('A' for Active; 'I' for Inactive)
REMARK    1  A    between atoms: C_1  and  O_2
REMARK    2  A    between atoms: C_1  and  C_18
REMARK    3  A    between atoms: O_2  and  C_3
REMARK    4  A    between atoms: C_26  and  O_32
REMARK                            x       y       z     vdW  Elec       q    Type
REMARK                         _______ _______ _______ _____ _____    ______ ____
ROOT
ATOM      1  C   UNL     1      42.303  -0.224  18.600  0.00  0.00    +0.000 C 
ENDROOT
BRANCH   1   2
ATOM      2  C   UNL     1      41.241  -0.766  17.736  0.00  0.00    +0.000 C 
ATOM      3  O   UNL     1      41.902  -1.547  16.675  0.00  0.00    +0.000 OA
ATOM      4  C   UNL     1      41.408  -1.650  15.369  0.00  0.00    +0.000 A 
ATOM      5  C   UNL     1      40.501  -0.717  14.785  0.00  0.00    +0.000 A 
ATOM      6  C   UNL     1      41.898  -2.716  14.586  0.00  0.00    +0.000 A 
ATOM      7  C   UNL     1      40.088   0.323  15.657  0.00  0.00    +0.000 C 
ATOM      8  C   UNL     1      40.065  -0.853  13.461  0.00  0.00    +0.000 A 
ATOM      9  C   UNL     1      40.464   0.290  17.100  0.00  0.00    +0.000 C 
ATOM     10  C   UNL     1      40.545  -1.928  12.697  0.00  0.00    +0.000 A 
ATOM     11  C   UNL     1      39.102   0.152  12.865  0.00  0.00    +0.000 C 
ATOM     12  C   UNL     1      41.455  -2.853  13.252  0.00  0.00    +0.000 A 
ATOM     13  C   UNL     1      41.921  -3.972  12.321  0.00  0.00    +0.000 C 
ATOM     14  C   UNL     1      42.905  -3.678  15.203  0.00  0.00    +0.000 C 
ATOM     15  C   UNL     1      40.323  -1.747  18.507  0.00  0.00    +0.000 C 
BRANCH  10  16
ATOM     16  O   UNL     1      40.131  -2.083  11.384  0.00  0.00    +0.000 OA
ATOM     17  H   UNL     1      40.868  -2.486  10.876  0.00  0.00    +0.000 HD
ENDBRANCH  10  16
ENDBRANCH   1   2
BRANCH   1  18
ATOM     18  O   UNL     1      43.273   0.261  19.377  0.00  0.00    +0.000 OA
BRANCH  18  19
ATOM     19  C   UNL     1      42.859   1.196  20.293  0.00  0.00    +0.000 C 
ATOM     20  C   UNL     1      43.703   1.844  21.197  0.00  0.00    +0.000 C 
ATOM     21  C   UNL     1      43.190   2.786  22.086  0.00  0.00    +0.000 C 
ATOM     22  C   UNL     1      41.829   3.081  22.072  0.00  0.00    +0.000 C 
ATOM     23  C   UNL     1      40.982   2.437  21.172  0.00  0.00    +0.000 C 
ATOM     24  C   UNL     1      41.498   1.497  20.283  0.00  0.00    +0.000 C 
ATOM     25  C   UNL     1      41.302   4.044  22.978  0.00  0.00    +0.000 C 
ATOM     26  C   UNL     1      40.771   4.993  23.881  0.00  0.00    +0.000 C 
ATOM     27  S   UNL     1      41.541   6.468  24.326  0.00  0.00    +0.000 S 
ATOM     28  C   UNL     1      40.218   6.919  25.382  0.00  0.00    +0.000 C 
ATOM     29  O   UNL     1      40.175   7.953  26.027  0.00  0.00    +0.000 OA
ATOM     30  N   UNL     1      39.264   5.953  25.364  0.00  0.00    +0.000 N 
ATOM     31  C   UNL     1      39.469   4.865  24.569  0.00  0.00    +0.000 C 
ATOM     32  H   UNL     1      38.424   6.047  25.912  0.00  0.00    +0.000 HD
ATOM     33  O   UNL     1      38.692   3.934  24.446  0.00  0.00    +0.000 OA
ENDBRANCH  18  19
ENDBRANCH   1  18
TORSDOF 4
ENDMDL
MODEL 4
REMARK VINA RESULT:      -7.0     17.250     22.156
REMARK  Name = Troglitazone.pdbqt.pdb
REMARK  4 active torsions:
REMARK  status: ('A' for Active; 'I' for Inactive)
REMARK    1  A    between atoms: C_1  and  O_2
REMARK    2  A    between atoms: C_1  and  C_18
REMARK    3  A    between atoms: O_2  and  C_3
REMARK    4  A    between atoms: C_26  and  O_32
REMARK                            x       y       z     vdW  Elec       q    Type
REMARK                         _______ _______ _______ _____ _____    ______ ____
ROOT
ATOM      1  C   UNL     1      42.682  -5.002  14.363  0.00  0.00    +0.000 C 
ENDROOT
BRANCH   1   2
ATOM      2  C   UNL     1      42.765  -3.540  14.202  0.00  0.00    +0.000 C 
ATOM      3  O   UNL     1      42.210  -2.938  15.427  0.00  0.00    +0.000 OA
ATOM      4  C   UNL     1      41.507  -1.727  15.443  0.00  0.00    +0.000 A 
ATOM      5  C   UNL     1      40.874  -1.158  14.299  0.00  0.00    +0.000 A 
ATOM      6  C   UNL     1      41.382  -1.080  16.691  0.00  0.00    +0.000 A 
ATOM      7  C   UNL     1      41.050  -1.901  13.102  0.00  0.00    +0.000 C 
ATOM      8  C   UNL     1      40.156   0.041  14.381  0.00  0.00    +0.000 A 
ATOM      9  C   UNL     1      41.975  -3.072  13.071  0.00  0.00    +0.000 C 
ATOM     10  C   UNL     1      40.054   0.685  15.623  0.00  0.00    +0.000 A 
ATOM     11  C   UNL     1      39.494   0.623  13.150  0.00  0.00    +0.000 C 
ATOM     12  C   UNL     1      40.660   0.131  16.771  0.00  0.00    +0.000 A 
ATOM     13  C   UNL     1      40.468   0.912  18.071  0.00  0.00    +0.000 C 
ATOM     14  C   UNL     1      42.019  -1.721  17.917  0.00  0.00    +0.000 C 
ATOM     15  C   UNL     1      44.234  -3.061  14.094  0.00  0.00    +0.000 C 
BRANCH  10  16
ATOM     16  O   UNL     1      39.348   1.872  15.732  0.00  0.00    +0.000 OA
ATOM     17  H   UNL     1      38.525   1.788  15.203  0.00  0.00    +0.000 HD
ENDBRANCH  10  16
ENDBRANCH   1   2
BRANCH   1  18
ATOM     18  O   UNL     1      42.599  -6.325  14.516  0.00  0.00    +0.000 OA
BRANCH  18  19
ATOM     19  C   UNL     1      43.607  -7.036  13.913  0.00  0.00    +0.000 C 
ATOM     20  C   UNL     1      44.873  -6.523  13.625  0.00  0.00    +0.000 C 
ATOM     21  C   UNL     1      45.834  -7.326  13.016  0.00  0.00    +0.000 C 
ATOM     22  C   UNL     1      45.530  -8.646  12.694  0.00  0.00    +0.000 C 
ATOM     23  C   UNL     1      44.268  -9.164  12.979  0.00  0.00    +0.000 C 
ATOM     24  C   UNL     1      43.308  -8.359  13.589  0.00  0.00    +0.000 C 
ATOM     25  C   UNL     1      46.511  -9.470  12.073  0.00  0.00    +0.000 C 
ATOM     26  C   UNL     1      47.478 -10.290  11.449  0.00  0.00    +0.000 C 
ATOM     27  S   UNL     1      49.157 -10.302  11.835  0.00  0.00    +0.000 S 
ATOM     28  C   UNL     1      49.490 -11.542  10.642  0.00  0.00    +0.000 C 
ATOM     29  O   UNL     1      50.595 -12.014  10.432  0.00  0.00    +0.000 OA
ATOM     30  N   UNL     1      48.344 -11.889  10.005  0.00  0.00    +0.000 N 
ATOM     31  C   UNL     1      47.189 -11.268  10.380  0.00  0.00    +0.000 C 
ATOM     32  H   UNL     1      48.346 -12.596   9.287  0.00  0.00    +0.000 HD
ATOM     33  O   UNL     1      46.089 -11.493   9.904  0.00  0.00    +0.000 OA
ENDBRANCH  18  19
ENDBRANCH   1  18
TORSDOF 4
ENDMDL
MODEL 5
REMARK VINA RESULT:      -6.9     17.499     22.431
REMARK  Name = Troglitazone.pdbqt.pdb
REMARK  4 active torsions:
REMARK  status: ('A' for Active; 'I' for Inactive)
REMARK    1  A    between atoms: C_1  and  O_2
REMARK    2  A    between atoms: C_1  and  C_18
REMARK    3  A    between atoms: O_2  and  C_3
REMARK    4  A    between atoms: C_26  and  O_32
REMARK                            x       y       z     vdW  Elec       q    Type
REMARK                         _______ _______ _______ _____ _____    ______ ____
ROOT
ATOM      1  C   UNL     1      43.718  -5.227  15.263  0.00  0.00    +0.000 C 
ENDROOT
BRANCH   1   2
ATOM      2  C   UNL     1      43.705  -3.763  15.102  0.00  0.00    +0.000 C 
ATOM      3  O   UNL     1      42.555  -3.253  15.868  0.00  0.00    +0.000 OA
ATOM      4  C   UNL     1      41.805  -2.135  15.485  0.00  0.00    +0.000 A 
ATOM      5  C   UNL     1      41.760  -1.623  14.154  0.00  0.00    +0.000 A 
ATOM      6  C   UNL     1      41.009  -1.530  16.481  0.00  0.00    +0.000 A 
ATOM      7  C   UNL     1      42.585  -2.318  13.232  0.00  0.00    +0.000 C 
ATOM      8  C   UNL     1      40.966  -0.519  13.822  0.00  0.00    +0.000 A 
ATOM      9  C   UNL     1      43.529  -3.370  13.710  0.00  0.00    +0.000 C 
ATOM     10  C   UNL     1      40.193   0.085  14.825  0.00  0.00    +0.000 A 
ATOM     11  C   UNL     1      40.937   0.003  12.401  0.00  0.00    +0.000 C 
ATOM     12  C   UNL     1      40.211  -0.415  16.144  0.00  0.00    +0.000 A 
ATOM     13  C   UNL     1      39.317   0.313  17.147  0.00  0.00    +0.000 C 
ATOM     14  C   UNL     1      41.025  -2.115  17.888  0.00  0.00    +0.000 C 
ATOM     15  C   UNL     1      44.972  -3.112  15.709  0.00  0.00    +0.000 C 
BRANCH  10  16
ATOM     16  O   UNL     1      39.397   1.178  14.522  0.00  0.00    +0.000 OA
ATOM     17  H   UNL     1      39.952   1.842  14.058  0.00  0.00    +0.000 HD
ENDBRANCH  10  16
ENDBRANCH   1   2
BRANCH   1  18
ATOM     18  O   UNL     1      43.727  -6.552  15.419  0.00  0.00    +0.000 OA
BRANCH  18  19
ATOM     19  C   UNL     1      44.388  -7.241  14.433  0.00  0.00    +0.000 C 
ATOM     20  C   UNL     1      44.039  -8.518  13.990  0.00  0.00    +0.000 C 
ATOM     21  C   UNL     1      44.769  -9.134  12.977  0.00  0.00    +0.000 C 
ATOM     22  C   UNL     1      45.851  -8.473  12.403  0.00  0.00    +0.000 C 
ATOM     23  C   UNL     1      46.206  -7.198  12.841  0.00  0.00    +0.000 C 
ATOM     24  C   UNL     1      45.473  -6.583  13.854  0.00  0.00    +0.000 C 
ATOM     25  C   UNL     1      46.598  -9.100  11.366  0.00  0.00    +0.000 C 
ATOM     26  C   UNL     1      47.348  -9.720  10.341  0.00  0.00    +0.000 C 
ATOM     27  S   UNL     1      46.681 -10.668   9.067  0.00  0.00    +0.000 S 
ATOM     28  C   UNL     1      48.261 -10.960   8.366  0.00  0.00    +0.000 C 
ATOM     29  O   UNL     1      48.454 -11.615   7.357  0.00  0.00    +0.000 OA
ATOM     30  N   UNL     1      49.215 -10.346   9.110  0.00  0.00    +0.000 N 
ATOM     31  C   UNL     1      48.817  -9.637  10.205  0.00  0.00    +0.000 C 
ATOM     32  H   UNL     1      50.187 -10.403   8.851  0.00  0.00    +0.000 HD
ATOM     33  O   UNL     1      49.565  -9.027  10.950  0.00  0.00    +0.000 OA
ENDBRANCH  18  19
ENDBRANCH   1  18
TORSDOF 4
ENDMDL
MODEL 6
REMARK VINA RESULT:      -6.9     12.183     18.988
REMARK  Name = Troglitazone.pdbqt.pdb
REMARK  4 active torsions:
REMARK  status: ('A' for Active; 'I' for Inactive)
REMARK    1  A    between atoms: C_1  and  O_2
REMARK    2  A    between atoms: C_1  and  C_18
REMARK    3  A    between atoms: O_2  and  C_3
REMARK    4  A    between atoms: C_26  and  O_32
REMARK                            x       y       z     vdW  Elec       q    Type
REMARK                         _______ _______ _______ _____ _____    ______ ____
ROOT
ATOM      1  C   UNL     1      44.815  -3.711  18.692  0.00  0.00    +0.000 C 
ENDROOT
BRANCH   1   2
ATOM      2  C   UNL     1      45.138  -4.048  17.296  0.00  0.00    +0.000 C 
ATOM      3  O   UNL     1      44.127  -3.393  16.447  0.00  0.00    +0.000 OA
ATOM      4  C   UNL     1      43.655  -3.938  15.246  0.00  0.00    +0.000 A 
ATOM      5  C   UNL     1      43.741  -5.321  14.911  0.00  0.00    +0.000 A 
ATOM      6  C   UNL     1      43.008  -3.053  14.358  0.00  0.00    +0.000 A 
ATOM      7  C   UNL     1      44.395  -6.120  15.884  0.00  0.00    +0.000 C 
ATOM      8  C   UNL     1      43.222  -5.815  13.707  0.00  0.00    +0.000 A 
ATOM      9  C   UNL     1      45.069  -5.484  17.052  0.00  0.00    +0.000 C 
ATOM     10  C   UNL     1      42.597  -4.922  12.823  0.00  0.00    +0.000 A 
ATOM     11  C   UNL     1      43.327  -7.288  13.376  0.00  0.00    +0.000 C 
ATOM     12  C   UNL     1      42.488  -3.552  13.143  0.00  0.00    +0.000 A 
ATOM     13  C   UNL     1      41.774  -2.679  12.112  0.00  0.00    +0.000 C 
ATOM     14  C   UNL     1      42.877  -1.586  14.748  0.00  0.00    +0.000 C 
ATOM     15  C   UNL     1      46.514  -3.476  16.874  0.00  0.00    +0.000 C 
BRANCH  10  16
ATOM     16  O   UNL     1      42.074  -5.385  11.627  0.00  0.00    +0.000 OA
ATOM     17  H   UNL     1      42.519  -6.233  11.405  0.00  0.00    +0.000 HD
ENDBRANCH  10  16
ENDBRANCH   1   2
BRANCH   1  18
ATOM     18  O   UNL     1      44.519  -3.397  19.954  0.00  0.00    +0.000 OA
BRANCH  18  19
ATOM     19  C   UNL     1      43.780  -2.248  20.100  0.00  0.00    +0.000 C 
ATOM     20  C   UNL     1      42.801  -1.818  19.201  0.00  0.00    +0.000 C 
ATOM     21  C   UNL     1      42.099  -0.640  19.440  0.00  0.00    +0.000 C 
ATOM     22  C   UNL     1      42.374   0.112  20.578  0.00  0.00    +0.000 C 
ATOM     23  C   UNL     1      43.350  -0.311  21.479  0.00  0.00    +0.000 C 
ATOM     24  C   UNL     1      44.051  -1.491  21.239  0.00  0.00    +0.000 C 
ATOM     25  C   UNL     1      41.656   1.317  20.825  0.00  0.00    +0.000 C 
ATOM     26  C   UNL     1      40.952   2.517  21.071  0.00  0.00    +0.000 C 
ATOM     27  S   UNL     1      39.271   2.752  20.779  0.00  0.00    +0.000 S 
ATOM     28  C   UNL     1      39.332   4.405  21.358  0.00  0.00    +0.000 C 
ATOM     29  O   UNL     1      38.369   5.151  21.410  0.00  0.00    +0.000 OA
ATOM     30  N   UNL     1      40.598   4.713  21.737  0.00  0.00    +0.000 N 
ATOM     31  C   UNL     1      41.554   3.747  21.627  0.00  0.00    +0.000 C 
ATOM     32  H   UNL     1      40.819   5.626  22.103  0.00  0.00    +0.000 HD
ATOM     33  O   UNL     1      42.723   3.883  21.944  0.00  0.00    +0.000 OA
ENDBRANCH  18  19
ENDBRANCH   1  18
TORSDOF 4
ENDMDL
MODEL 7
REMARK VINA RESULT:      -6.9     23.216     25.982
REMARK  Name = Troglitazone.pdbqt.pdb
REMARK  4 active torsions:
REMARK  status: ('A' for Active; 'I' for Inactive)
REMARK    1  A    between atoms: C_1  and  O_2
REMARK    2  A    between atoms: C_1  and  C_18
REMARK    3  A    between atoms: O_2  and  C_3
REMARK    4  A    between atoms: C_26  and  O_32
REMARK                            x       y       z     vdW  Elec       q    Type
REMARK                         _______ _______ _______ _____ _____    ______ ____
ROOT
ATOM      1  C   UNL     1      50.044   0.834  10.783  0.00  0.00    +0.000 C 
ENDROOT
BRANCH   1   2
ATOM      2  C   UNL     1      51.081   1.317  11.711  0.00  0.00    +0.000 C 
ATOM      3  O   UNL     1      52.377   0.836  11.201  0.00  0.00    +0.000 OA
ATOM      4  C   UNL     1      53.450   0.481  12.028  0.00  0.00    +0.000 A 
ATOM      5  C   UNL     1      53.313   0.127  13.403  0.00  0.00    +0.000 A 
ATOM      6  C   UNL     1      54.724   0.422  11.426  0.00  0.00    +0.000 A 
ATOM      7  C   UNL     1      51.985   0.205  13.898  0.00  0.00    +0.000 C 
ATOM      8  C   UNL     1      54.419  -0.251  14.174  0.00  0.00    +0.000 A 
ATOM      9  C   UNL     1      50.899   0.783  13.055  0.00  0.00    +0.000 C 
ATOM     10  C   UNL     1      55.685  -0.288  13.569  0.00  0.00    +0.000 A 
ATOM     11  C   UNL     1      54.245  -0.622  15.632  0.00  0.00    +0.000 C 
ATOM     12  C   UNL     1      55.839   0.044  12.207  0.00  0.00    +0.000 A 
ATOM     13  C   UNL     1      57.261  -0.048  11.653  0.00  0.00    +0.000 C 
ATOM     14  C   UNL     1      54.853   0.754   9.945  0.00  0.00    +0.000 C 
ATOM     15  C   UNL     1      51.154   2.863  11.730  0.00  0.00    +0.000 C 
BRANCH  10  16
ATOM     16  O   UNL     1      56.795  -0.660  14.310  0.00  0.00    +0.000 OA
ATOM     17  H   UNL     1      56.576  -0.559  15.262  0.00  0.00    +0.000 HD
ENDBRANCH  10  16
ENDBRANCH   1   2
BRANCH   1  18
ATOM     18  O   UNL     1      49.113   0.393   9.936  0.00  0.00    +0.000 OA
BRANCH  18  19
ATOM     19  C   UNL     1      49.541   0.246   8.639  0.00  0.00    +0.000 C 
ATOM     20  C   UNL     1      50.358  -0.793   8.190  0.00  0.00    +0.000 C 
ATOM     21  C   UNL     1      50.735  -0.861   6.851  0.00  0.00    +0.000 C 
ATOM     22  C   UNL     1      50.295   0.112   5.958  0.00  0.00    +0.000 C 
ATOM     23  C   UNL     1      49.481   1.153   6.400  0.00  0.00    +0.000 C 
ATOM     24  C   UNL     1      49.103   1.218   7.740  0.00  0.00    +0.000 C 
ATOM     25  C   UNL     1      50.678   0.044   4.588  0.00  0.00    +0.000 C 
ATOM     26  C   UNL     1      51.061  -0.013   3.229  0.00  0.00    +0.000 C 
ATOM     27  S   UNL     1      51.168  -1.456   2.295  0.00  0.00    +0.000 S 
ATOM     28  C   UNL     1      51.663  -0.574   0.864  0.00  0.00    +0.000 C 
ATOM     29  O   UNL     1      51.901  -1.091  -0.214  0.00  0.00    +0.000 OA
ATOM     30  N   UNL     1      51.733   0.752   1.142  0.00  0.00    +0.000 N 
ATOM     31  C   UNL     1      51.415   1.161   2.404  0.00  0.00    +0.000 C 
ATOM     32  H   UNL     1      51.999   1.415   0.431  0.00  0.00    +0.000 HD
ATOM     33  O   UNL     1      51.421   2.319   2.785  0.00  0.00    +0.000 OA
ENDBRANCH  18  19
ENDBRANCH   1  18
TORSDOF 4
ENDMDL
MODEL 8
REMARK VINA RESULT:      -6.8      7.483     12.354
REMARK  Name = Troglitazone.pdbqt.pdb
REMARK  4 active torsions:
REMARK  status: ('A' for Active; 'I' for Inactive)
REMARK    1  A    between atoms: C_1  and  O_2
REMARK    2  A    between atoms: C_1  and  C_18
REMARK    3  A    between atoms: O_2  and  C_3
REMARK    4  A    between atoms: C_26  and  O_32
REMARK                            x       y       z     vdW  Elec       q    Type
REMARK                         _______ _______ _______ _____ _____    ______ ____
ROOT
ATOM      1  C   UNL     1      35.922  22.446  20.418  0.00  0.00    +0.000 C 
ENDROOT
BRANCH   1   2
ATOM      2  C   UNL     1      35.713  21.141  19.769  0.00  0.00    +0.000 C 
ATOM      3  O   UNL     1      35.419  20.169  20.836  0.00  0.00    +0.000 OA
ATOM      4  C   UNL     1      35.805  18.823  20.785  0.00  0.00    +0.000 A 
ATOM      5  C   UNL     1      36.857  18.328  19.960  0.00  0.00    +0.000 A 
ATOM      6  C   UNL     1      35.136  17.936  21.654  0.00  0.00    +0.000 A 
ATOM      7  C   UNL     1      37.471  19.310  19.140  0.00  0.00    +0.000 C 
ATOM      8  C   UNL     1      37.221  16.976  19.973  0.00  0.00    +0.000 A 
ATOM      9  C   UNL     1      36.904  20.688  19.062  0.00  0.00    +0.000 C 
ATOM     10  C   UNL     1      36.536  16.099  20.828  0.00  0.00    +0.000 A 
ATOM     11  C   UNL     1      38.342  16.476  19.086  0.00  0.00    +0.000 C 
ATOM     12  C   UNL     1      35.503  16.572  21.663  0.00  0.00    +0.000 A 
ATOM     13  C   UNL     1      34.840  15.529  22.563  0.00  0.00    +0.000 C 
ATOM     14  C   UNL     1      34.047  18.485  22.568  0.00  0.00    +0.000 C 
ATOM     15  C   UNL     1      34.481  21.161  18.831  0.00  0.00    +0.000 C 
BRANCH  10  16
ATOM     16  O   UNL     1      36.878  14.757  20.861  0.00  0.00    +0.000 OA
ATOM     17  H   UNL     1      37.829  14.689  21.097  0.00  0.00    +0.000 HD
ENDBRANCH  10  16
ENDBRANCH   1   2
BRANCH   1  18
ATOM     18  O   UNL     1      36.117  23.632  20.997  0.00  0.00    +0.000 OA
BRANCH  18  19
ATOM     19  C   UNL     1      37.245  23.711  21.776  0.00  0.00    +0.000 C 
ATOM     20  C   UNL     1      38.538  23.435  21.325  0.00  0.00    +0.000 C 
ATOM     21  C   UNL     1      39.623  23.551  22.190  0.00  0.00    +0.000 C 
ATOM     22  C   UNL     1      39.417  23.942  23.510  0.00  0.00    +0.000 C 
ATOM     23  C   UNL     1      38.130  24.218  23.967  0.00  0.00    +0.000 C 
ATOM     24  C   UNL     1      37.046  24.103  23.099  0.00  0.00    +0.000 C 
ATOM     25  C   UNL     1      40.525  24.061  24.397  0.00  0.00    +0.000 C 
ATOM     26  C   UNL     1      41.619  24.174  25.284  0.00  0.00    +0.000 C 
ATOM     27  S   UNL     1      43.164  24.813  24.867  0.00  0.00    +0.000 S 
ATOM     28  C   UNL     1      43.778  24.566  26.490  0.00  0.00    +0.000 C 
ATOM     29  O   UNL     1      44.907  24.857  26.848  0.00  0.00    +0.000 OA
ATOM     30  N   UNL     1      42.813  24.016  27.269  0.00  0.00    +0.000 N 
ATOM     31  C   UNL     1      41.596  23.771  26.705  0.00  0.00    +0.000 C 
ATOM     32  H   UNL     1      42.990  23.808  28.239  0.00  0.00    +0.000 HD
ATOM     33  O   UNL     1      40.639  23.295  27.291  0.00  0.00    +0.000 OA
ENDBRANCH  18  19
ENDBRANCH   1  18
TORSDOF 4
ENDMDL
MODEL 9
REMARK VINA RESULT:      -6.8     17.451     22.408
REMARK  Name = Troglitazone.pdbqt.pdb
REMARK  4 active torsions:
REMARK  status: ('A' for Active; 'I' for Inactive)
REMARK    1  A    between atoms: C_1  and  O_2
REMARK    2  A    between atoms: C_1  and  C_18
REMARK    3  A    between atoms: O_2  and  C_3
REMARK    4  A    between atoms: C_26  and  O_32
REMARK                            x       y       z     vdW  Elec       q    Type
REMARK                         _______ _______ _______ _____ _____    ______ ____
ROOT
ATOM      1  C   UNL     1      43.353  -5.464  15.613  0.00  0.00    +0.000 C 
ENDROOT
BRANCH   1   2
ATOM      2  C   UNL     1      43.586  -4.096  15.118  0.00  0.00    +0.000 C 
ATOM      3  O   UNL     1      42.479  -3.261  15.615  0.00  0.00    +0.000 OA
ATOM      4  C   UNL     1      41.948  -2.178  14.904  0.00  0.00    +0.000 A 
ATOM      5  C   UNL     1      42.082  -2.007  13.494  0.00  0.00    +0.000 A 
ATOM      6  C   UNL     1      41.188  -1.245  15.640  0.00  0.00    +0.000 A 
ATOM      7  C   UNL     1      42.852  -3.013  12.854  0.00  0.00    +0.000 C 
ATOM      8  C   UNL     1      41.502  -0.920  12.831  0.00  0.00    +0.000 A 
ATOM      9  C   UNL     1      43.577  -4.036  13.662  0.00  0.00    +0.000 C 
ATOM     10  C   UNL     1      40.764   0.013  13.577  0.00  0.00    +0.000 A 
ATOM     11  C   UNL     1      41.660  -0.762  11.333  0.00  0.00    +0.000 C 
ATOM     12  C   UNL     1      40.605  -0.147  14.970  0.00  0.00    +0.000 A 
ATOM     13  C   UNL     1      39.768   0.921  15.673  0.00  0.00    +0.000 C 
ATOM     14  C   UNL     1      41.008  -1.463  17.137  0.00  0.00    +0.000 C 
ATOM     15  C   UNL     1      44.893  -3.496  15.693  0.00  0.00    +0.000 C 
BRANCH  10  16
ATOM     16  O   UNL     1      40.177   1.096  12.944  0.00  0.00    +0.000 OA
ATOM     17  H   UNL     1      40.182   0.926  11.977  0.00  0.00    +0.000 HD
ENDBRANCH  10  16
ENDBRANCH   1   2
BRANCH   1  18
ATOM     18  O   UNL     1      43.140  -6.698  16.071  0.00  0.00    +0.000 OA
BRANCH  18  19
ATOM     19  C   UNL     1      43.312  -7.693  15.141  0.00  0.00    +0.000 C 
ATOM     20  C   UNL     1      42.425  -8.753  14.944  0.00  0.00    +0.000 C 
ATOM     21  C   UNL     1      42.684  -9.712  13.968  0.00  0.00    +0.000 C 
ATOM     22  C   UNL     1      43.832  -9.613  13.186  0.00  0.00    +0.000 C 
ATOM     23  C   UNL     1      44.721  -8.557  13.378  0.00  0.00    +0.000 C 
ATOM     24  C   UNL     1      44.460  -7.598  14.354  0.00  0.00    +0.000 C 
ATOM     25  C   UNL     1      44.097 -10.591  12.187  0.00  0.00    +0.000 C 
ATOM     26  C   UNL     1      44.371 -11.564  11.199  0.00  0.00    +0.000 C 
ATOM     27  S   UNL     1      43.192 -12.280  10.167  0.00  0.00    +0.000 S 
ATOM     28  C   UNL     1      44.397 -13.260   9.357  0.00  0.00    +0.000 C 
ATOM     29  O   UNL     1      44.154 -14.036   8.448  0.00  0.00    +0.000 OA
ATOM     30  N   UNL     1      45.621 -13.019   9.890  0.00  0.00    +0.000 N 
ATOM     31  C   UNL     1      45.713 -12.103  10.896  0.00  0.00    +0.000 C 
ATOM     32  H   UNL     1      46.439 -13.494   9.542  0.00  0.00    +0.000 HD
ATOM     33  O   UNL     1      46.748 -11.779  11.453  0.00  0.00    +0.000 OA
ENDBRANCH  18  19
ENDBRANCH   1  18
TORSDOF 4
ENDMDL
