REMARK  Name = Troglitazone.pdbqt.pdb
REMARK  4 active torsions:
REMARK  status: ('A' for Active; 'I' for Inactive)
REMARK    1  A    between atoms: C_1  and  O_2
REMARK    2  A    between atoms: C_1  and  C_18
REMARK    3  A    between atoms: O_2  and  C_3
REMARK    4  A    between atoms: C_26  and  O_32
REMARK                            x       y       z     vdW  Elec       q    Type
REMARK                         _______ _______ _______ _____ _____    ______ ____
ROOT
ATOM      1  C   UNL     1       1.164   2.413   0.759  0.00  0.00    +0.000 C 
ENDROOT
BRANCH   1   2
ATOM      2  C   UNL     1       2.462   2.024   0.182  0.00  0.00    +0.000 C 
ATOM      3  O   UNL     1       2.470   0.554   0.085  0.00  0.00    +0.000 OA
ATOM      4  C   UNL     1       3.623  -0.225   0.242  0.00  0.00    +0.000 A 
ATOM      5  C   UNL     1       4.798   0.218   0.918  0.00  0.00    +0.000 A 
ATOM      6  C   UNL     1       3.572  -1.544  -0.256  0.00  0.00    +0.000 A 
ATOM      7  C   UNL     1       4.732   1.554   1.392  0.00  0.00    +0.000 C 
ATOM      8  C   UNL     1       5.911  -0.617   1.073  0.00  0.00    +0.000 A 
ATOM      9  C   UNL     1       3.577   2.426   1.030  0.00  0.00    +0.000 C 
ATOM     10  C   UNL     1       5.856  -1.921   0.557  0.00  0.00    +0.000 A 
ATOM     11  C   UNL     1       7.146  -0.121   1.795  0.00  0.00    +0.000 C 
ATOM     12  C   UNL     1       4.697  -2.384  -0.101  0.00  0.00    +0.000 A 
ATOM     13  C   UNL     1       4.746  -3.826  -0.606  0.00  0.00    +0.000 C 
ATOM     14  C   UNL     1       2.294  -2.025  -0.932  0.00  0.00    +0.000 C 
ATOM     15  C   UNL     1       2.632   2.568  -1.258  0.00  0.00    +0.000 C 
BRANCH  10  16
ATOM     16  O   UNL     1       6.943  -2.768   0.699  0.00  0.00    +0.000 OA
ATOM     17  H   UNL     1       6.719  -3.627   0.279  0.00  0.00    +0.000 HD
ENDBRANCH  10  16
ENDBRANCH   1   2
BRANCH   1  18
ATOM     18  O   UNL     1      -0.009   2.760   1.291  0.00  0.00    +0.000 OA
BRANCH  18  19
ATOM     19  C   UNL     1      -1.080   2.026   0.845  0.00  0.00    +0.000 C 
ATOM     20  C   UNL     1      -0.993   0.980  -0.076  0.00  0.00    +0.000 C 
ATOM     21  C   UNL     1      -2.138   0.288  -0.463  0.00  0.00    +0.000 C 
ATOM     22  C   UNL     1      -3.374   0.642   0.071  0.00  0.00    +0.000 C 
ATOM     23  C   UNL     1      -3.468   1.685   0.990  0.00  0.00    +0.000 C 
ATOM     24  C   UNL     1      -2.321   2.375   1.377  0.00  0.00    +0.000 C 
ATOM     25  C   UNL     1      -4.546  -0.065  -0.322  0.00  0.00    +0.000 C 
ATOM     26  C   UNL     1      -5.714  -0.757  -0.714  0.00  0.00    +0.000 C 
ATOM     27  S   UNL     1      -5.812  -2.457  -0.973  0.00  0.00    +0.000 S 
ATOM     28  C   UNL     1      -7.514  -2.365  -1.380  0.00  0.00    +0.000 C 
ATOM     29  O   UNL     1      -8.203  -3.327  -1.674  0.00  0.00    +0.000 OA
ATOM     30  N   UNL     1      -7.935  -1.077  -1.312  0.00  0.00    +0.000 N 
ATOM     31  C   UNL     1      -7.029  -0.125  -0.949  0.00  0.00    +0.000 C 
ATOM     32  H   UNL     1      -8.893  -0.836  -1.511  0.00  0.00    +0.000 HD
ATOM     33  O   UNL     1      -7.274   1.064  -0.834  0.00  0.00    +0.000 OA
ENDBRANCH  18  19
ENDBRANCH   1  18
TORSDOF 4
