MODEL 1
REMARK VINA RESULT:      -7.0      0.000      0.000
REMARK  Name = 
REMARK  19 active torsions:
REMARK  status: ('A' for Active; 'I' for Inactive)
REMARK    1  A    between atoms: O_1  and  C_20
REMARK    2  A    between atoms: O_1  and  C_36
REMARK    3  A    between atoms: O_2  and  C_18
REMARK    4  A    between atoms: O_3  and  C_28
REMARK    5  A    between atoms: O_3  and  C_42
REMARK    6  A    between atoms: O_5  and  C_34
REMARK    7  A    between atoms: O_5  and  C_50
REMARK    8  A    between atoms: O_7  and  C_40
REMARK    9  A    between atoms: O_7  and  C_56
REMARK   10  A    between atoms: O_9  and  C_46
REMARK   11  A    between atoms: N_11  and  C_30
REMARK   12  A    between atoms: C_17  and  C_23
REMARK   13  A    between atoms: C_18  and  C_28
REMARK   14  A    between atoms: C_23  and  C_32
REMARK   15  A    between atoms: C_33  and  C_35
REMARK   16  A    between atoms: C_35  and  C_40
REMARK   17  A    between atoms: C_36  and  C_41
REMARK   18  A    between atoms: C_46  and  C_53
REMARK   19  A    between atoms: C_53  and  C_57
REMARK                            x       y       z     vdW  Elec       q    Type
REMARK                         _______ _______ _______ _____ _____    ______ ____
ROOT
ATOM      1  N   UNL     1      41.346  -2.950  17.945  0.00  0.00    +0.000 NA
ATOM      2  N   UNL     1      40.191   0.761  15.175  0.00  0.00    +0.000 N 
ATOM      3  C   UNL     1      40.760  -1.161  16.570  0.00  0.00    +0.000 C 
ATOM      4  C   UNL     1      40.292  -2.566  16.987  0.00  0.00    +0.000 C 
ATOM      5  C   UNL     1      40.060  -0.723  15.268  0.00  0.00    +0.000 C 
ATOM      6  C   UNL     1      40.030  -3.549  15.754  0.00  0.00    +0.000 C 
ATOM      7  C   UNL     1      40.370  -1.568  14.021  0.00  0.00    +0.000 C 
ATOM      8  C   UNL     1      42.299  -1.214  16.641  0.00  0.00    +0.000 C 
ATOM      9  C   UNL     1      40.703  -3.049  14.400  0.00  0.00    +0.000 C 
ATOM     10  C   UNL     1      40.329   0.028  17.407  0.00  0.00    +0.000 A 
ATOM     11  C   UNL     1      42.626  -2.482  17.426  0.00  0.00    +0.000 C 
ATOM     12  C   UNL     1      40.075   1.111  16.556  0.00  0.00    +0.000 A 
ATOM     13  C   UNL     1      40.554  -4.959  16.038  0.00  0.00    +0.000 C 
ATOM     14  C   UNL     1      41.339  -4.353  18.331  0.00  0.00    +0.000 C 
ATOM     15  C   UNL     1      41.125  -5.307  17.200  0.00  0.00    +0.000 C 
ATOM     16  C   UNL     1      40.234   0.139  18.791  0.00  0.00    +0.000 A 
ATOM     17  C   UNL     1      39.265   1.467  14.290  0.00  0.00    +0.000 C 
ATOM     18  C   UNL     1      39.757   2.343  17.096  0.00  0.00    +0.000 A 
ATOM     19  C   UNL     1      39.907   1.379  19.372  0.00  0.00    +0.000 A 
ATOM     20  C   UNL     1      39.682   2.479  18.492  0.00  0.00    +0.000 A 
ENDROOT
BRANCH  19  23
ATOM     21  N   UNL     1      39.480   2.749  25.074  0.00  0.00    +0.000 NA
ATOM     22  N   UNL     1      37.441   0.707  20.663  0.00  0.00    +0.000 N 
ATOM     23  C   UNL     1      39.810   1.569  20.939  0.00  0.00    +0.000 C 
ATOM     24  C   UNL     1      39.715   3.114  21.332  0.00  0.00    +0.000 C 
ATOM     25  C   UNL     1      38.527   0.873  21.506  0.00  0.00    +0.000 A 
ATOM     26  C   UNL     1      39.270   3.441  22.767  0.00  0.00    +0.000 C 
ATOM     27  C   UNL     1      39.044   4.926  23.048  0.00  0.00    +0.000 C 
ATOM     28  C   UNL     1      40.225   2.945  23.843  0.00  0.00    +0.000 C 
ATOM     29  C   UNL     1      38.112   0.413  22.769  0.00  0.00    +0.000 A 
ATOM     30  C   UNL     1      38.560   5.166  24.509  0.00  0.00    +0.000 C 
ATOM     31  C   UNL     1      38.892   4.020  25.550  0.00  0.00    +0.000 C 
ATOM     32  C   UNL     1      38.816   0.408  24.116  0.00  0.00    +0.000 C 
ATOM     33  C   UNL     1      38.489   1.643  25.009  0.00  0.00    +0.000 C 
ATOM     34  C   UNL     1      36.761  -0.075  22.616  0.00  0.00    +0.000 A 
ATOM     35  C   UNL     1      36.380   0.123  21.297  0.00  0.00    +0.000 A 
ATOM     36  C   UNL     1      35.821  -0.655  23.498  0.00  0.00    +0.000 A 
ATOM     37  C   UNL     1      35.120  -0.232  20.800  0.00  0.00    +0.000 A 
ATOM     38  C   UNL     1      34.555  -1.018  23.023  0.00  0.00    +0.000 A 
ATOM     39  C   UNL     1      34.212  -0.809  21.692  0.00  0.00    +0.000 A 
ATOM     40  H   UNL     1      37.430   0.965  19.684  0.00  0.00    +0.000 HD
BRANCH  23  42
ATOM     41  O   UNL     1      41.261  -0.161  22.023  0.00  0.00    +0.000 OA
ATOM     42  C   UNL     1      41.126   0.941  21.507  0.00  0.00    +0.000 C 
BRANCH  42  43
ATOM     43  O   UNL     1      42.177   1.809  21.321  0.00  0.00    +0.000 OA
ATOM     44  C   UNL     1      43.357   1.188  20.814  0.00  0.00    +0.000 C 
ENDBRANCH  42  43
ENDBRANCH  23  42
BRANCH  30  45
ATOM     45  O   UNL     1      39.255   6.360  24.950  0.00  0.00    +0.000 OA
ATOM     46  H   UNL     1      39.846   6.099  25.679  0.00  0.00    +0.000 HD
ENDBRANCH  30  45
BRANCH  30  47
ATOM     47  C   UNL     1      37.068   5.571  24.554  0.00  0.00    +0.000 C 
ATOM     48  C   UNL     1      36.368   5.732  23.215  0.00  0.00    +0.000 C 
ENDBRANCH  30  47
ENDBRANCH  19  23
BRANCH   7  49
ATOM     49  O   UNL     1      39.119  -1.618  13.262  0.00  0.00    +0.000 OA
ATOM     50  H   UNL     1      39.113  -0.815  12.700  0.00  0.00    +0.000 HD
ENDBRANCH   7  49
BRANCH   7  52
ATOM     51  O   UNL     1      42.609  -0.659  13.450  0.00  0.00    +0.000 OA
ATOM     52  C   UNL     1      41.460  -0.926  13.127  0.00  0.00    +0.000 C 
BRANCH  52  53
ATOM     53  O   UNL     1      40.972  -0.760  11.853  0.00  0.00    +0.000 OA
ATOM     54  C   UNL     1      41.863  -1.205  10.829  0.00  0.00    +0.000 C 
ENDBRANCH  52  53
ENDBRANCH   7  52
BRANCH  20  55
ATOM     55  O   UNL     1      39.324   3.675  19.061  0.00  0.00    +0.000 OA
ATOM     56  C   UNL     1      39.323   4.791  18.175  0.00  0.00    +0.000 C 
ENDBRANCH  20  55
BRANCH   6  57
ATOM     57  C   UNL     1      38.483  -3.699  15.516  0.00  0.00    +0.000 C 
ATOM     58  C   UNL     1      37.834  -4.985  16.033  0.00  0.00    +0.000 C 
ENDBRANCH   6  57
BRANCH   9  59
ATOM     59  O   UNL     1      42.129  -3.280  14.491  0.00  0.00    +0.000 OA
BRANCH  59  61
ATOM     60  O   UNL     1      42.111  -4.589  12.611  0.00  0.00    +0.000 OA
ATOM     61  C   UNL     1      42.675  -4.157  13.606  0.00  0.00    +0.000 C 
ATOM     62  C   UNL     1      44.079  -4.488  14.007  0.00  0.00    +0.000 C 
ENDBRANCH  59  61
ENDBRANCH   9  59
TORSDOF 12
ENDMDL
MODEL 2
REMARK VINA RESULT:      -6.8     13.652     20.131
REMARK  Name = 
REMARK  19 active torsions:
REMARK  status: ('A' for Active; 'I' for Inactive)
REMARK    1  A    between atoms: O_1  and  C_20
REMARK    2  A    between atoms: O_1  and  C_36
REMARK    3  A    between atoms: O_2  and  C_18
REMARK    4  A    between atoms: O_3  and  C_28
REMARK    5  A    between atoms: O_3  and  C_42
REMARK    6  A    between atoms: O_5  and  C_34
REMARK    7  A    between atoms: O_5  and  C_50
REMARK    8  A    between atoms: O_7  and  C_40
REMARK    9  A    between atoms: O_7  and  C_56
REMARK   10  A    between atoms: O_9  and  C_46
REMARK   11  A    between atoms: N_11  and  C_30
REMARK   12  A    between atoms: C_17  and  C_23
REMARK   13  A    between atoms: C_18  and  C_28
REMARK   14  A    between atoms: C_23  and  C_32
REMARK   15  A    between atoms: C_33  and  C_35
REMARK   16  A    between atoms: C_35  and  C_40
REMARK   17  A    between atoms: C_36  and  C_41
REMARK   18  A    between atoms: C_46  and  C_53
REMARK   19  A    between atoms: C_53  and  C_57
REMARK                            x       y       z     vdW  Elec       q    Type
REMARK                         _______ _______ _______ _____ _____    ______ ____
ROOT
ATOM      1  N   UNL     1      49.563   0.161   8.095  0.00  0.00    +0.000 NA
ATOM      2  N   UNL     1      53.398   2.545   6.548  0.00  0.00    +0.000 N 
ATOM      3  C   UNL     1      51.448   1.329   7.376  0.00  0.00    +0.000 C 
ATOM      4  C   UNL     1      50.917   0.509   8.564  0.00  0.00    +0.000 C 
ATOM      5  C   UNL     1      52.679   2.156   7.798  0.00  0.00    +0.000 C 
ATOM      6  C   UNL     1      51.033   1.263   9.969  0.00  0.00    +0.000 C 
ATOM      7  C   UNL     1      52.432   3.231   8.869  0.00  0.00    +0.000 C 
ATOM      8  C   UNL     1      50.208   2.032   6.789  0.00  0.00    +0.000 C 
ATOM      9  C   UNL     1      51.257   2.833   9.821  0.00  0.00    +0.000 C 
ATOM     10  C   UNL     1      52.115   0.598   6.227  0.00  0.00    +0.000 A 
ATOM     11  C   UNL     1      49.008   1.320   7.408  0.00  0.00    +0.000 C 
ATOM     12  C   UNL     1      53.186   1.372   5.759  0.00  0.00    +0.000 A 
ATOM     13  C   UNL     1      49.782   1.052  10.825  0.00  0.00    +0.000 C 
ATOM     14  C   UNL     1      48.690  -0.402   9.113  0.00  0.00    +0.000 C 
ATOM     15  C   UNL     1      48.748   0.294  10.434  0.00  0.00    +0.000 C 
ATOM     16  C   UNL     1      51.759  -0.607   5.629  0.00  0.00    +0.000 A 
ATOM     17  C   UNL     1      54.797   2.949   6.671  0.00  0.00    +0.000 C 
ATOM     18  C   UNL     1      53.893   0.956   4.647  0.00  0.00    +0.000 A 
ATOM     19  C   UNL     1      52.464  -1.061   4.496  0.00  0.00    +0.000 A 
ATOM     20  C   UNL     1      53.530  -0.245   4.015  0.00  0.00    +0.000 A 
ENDROOT
BRANCH  19  23
ATOM     21  N   UNL     1      51.701  -6.086   1.540  0.00  0.00    +0.000 NA
ATOM     22  N   UNL     1      52.274  -3.447   6.068  0.00  0.00    +0.000 N 
ATOM     23  C   UNL     1      52.086  -2.408   3.761  0.00  0.00    +0.000 C 
ATOM     24  C   UNL     1      53.307  -2.955   2.888  0.00  0.00    +0.000 C 
ATOM     25  C   UNL     1      51.727  -3.527   4.798  0.00  0.00    +0.000 A 
ATOM     26  C   UNL     1      53.217  -4.412   2.403  0.00  0.00    +0.000 C 
ATOM     27  C   UNL     1      54.473  -4.936   1.708  0.00  0.00    +0.000 C 
ATOM     28  C   UNL     1      52.061  -4.681   1.452  0.00  0.00    +0.000 C 
ATOM     29  C   UNL     1      51.013  -4.738   4.757  0.00  0.00    +0.000 A 
ATOM     30  C   UNL     1      54.314  -6.427   1.283  0.00  0.00    +0.000 C 
ATOM     31  C   UNL     1      52.828  -6.952   1.130  0.00  0.00    +0.000 C 
ATOM     32  C   UNL     1      50.268  -5.426   3.625  0.00  0.00    +0.000 C 
ATOM     33  C   UNL     1      51.119  -6.477   2.850  0.00  0.00    +0.000 C 
ATOM     34  C   UNL     1      51.122  -5.334   6.069  0.00  0.00    +0.000 A 
ATOM     35  C   UNL     1      51.909  -4.504   6.853  0.00  0.00    +0.000 A 
ATOM     36  C   UNL     1      50.628  -6.523   6.650  0.00  0.00    +0.000 A 
ATOM     37  C   UNL     1      52.228  -4.785   8.188  0.00  0.00    +0.000 A 
ATOM     38  C   UNL     1      50.932  -6.824   7.983  0.00  0.00    +0.000 A 
ATOM     39  C   UNL     1      51.722  -5.964   8.740  0.00  0.00    +0.000 A 
ATOM     40  H   UNL     1      52.860  -2.688   6.393  0.00  0.00    +0.000 HD
BRANCH  23  42
ATOM     41  O   UNL     1      49.684  -2.126   3.109  0.00  0.00    +0.000 OA
ATOM     42  C   UNL     1      50.876  -2.044   2.839  0.00  0.00    +0.000 C 
BRANCH  42  43
ATOM     43  O   UNL     1      51.333  -1.565   1.634  0.00  0.00    +0.000 OA
ATOM     44  C   UNL     1      50.878  -0.249   1.322  0.00  0.00    +0.000 C 
ENDBRANCH  42  43
ENDBRANCH  23  42
BRANCH  30  45
ATOM     45  O   UNL     1      54.937  -6.519  -0.023  0.00  0.00    +0.000 OA
ATOM     46  H   UNL     1      54.249  -6.333  -0.687  0.00  0.00    +0.000 HD
ENDBRANCH  30  45
BRANCH  30  47
ATOM     47  C   UNL     1      55.168  -7.364   2.167  0.00  0.00    +0.000 C 
ATOM     48  C   UNL     1      54.595  -7.724   3.527  0.00  0.00    +0.000 C 
ENDBRANCH  30  47
ENDBRANCH  19  23
BRANCH   7  49
ATOM     49  O   UNL     1      53.638   3.241   9.698  0.00  0.00    +0.000 OA
ATOM     50  H   UNL     1      53.894   2.302   9.812  0.00  0.00    +0.000 HD
ENDBRANCH   7  49
BRANCH   7  52
ATOM     51  O   UNL     1      51.627   4.927   7.243  0.00  0.00    +0.000 OA
ATOM     52  C   UNL     1      52.247   4.643   8.258  0.00  0.00    +0.000 C 
BRANCH  52  53
ATOM     53  O   UNL     1      52.827   5.580   9.079  0.00  0.00    +0.000 OA
ATOM     54  C   UNL     1      52.179   6.853   9.054  0.00  0.00    +0.000 C 
ENDBRANCH  52  53
ENDBRANCH   7  52
BRANCH  20  55
ATOM     55  O   UNL     1      54.239  -0.710   2.937  0.00  0.00    +0.000 OA
ATOM     56  C   UNL     1      54.639   0.284   1.999  0.00  0.00    +0.000 C 
ENDBRANCH  20  55
BRANCH   6  57
ATOM     57  C   UNL     1      52.232   0.664  10.794  0.00  0.00    +0.000 C 
ATOM     58  C   UNL     1      52.294   1.037  12.276  0.00  0.00    +0.000 C 
ENDBRANCH   6  57
BRANCH   9  59
ATOM     59  O   UNL     1      50.002   3.432   9.419  0.00  0.00    +0.000 OA
BRANCH  59  61
ATOM     60  O   UNL     1      48.143   4.414  10.329  0.00  0.00    +0.000 OA
ATOM     61  C   UNL     1      49.343   4.177  10.346  0.00  0.00    +0.000 C 
ATOM     62  C   UNL     1      50.292   4.636  11.409  0.00  0.00    +0.000 C 
ENDBRANCH  59  61
ENDBRANCH   9  59
TORSDOF 12
ENDMDL
MODEL 3
REMARK VINA RESULT:      -6.6     16.742     21.734
REMARK  Name = 
REMARK  19 active torsions:
REMARK  status: ('A' for Active; 'I' for Inactive)
REMARK    1  A    between atoms: O_1  and  C_20
REMARK    2  A    between atoms: O_1  and  C_36
REMARK    3  A    between atoms: O_2  and  C_18
REMARK    4  A    between atoms: O_3  and  C_28
REMARK    5  A    between atoms: O_3  and  C_42
REMARK    6  A    between atoms: O_5  and  C_34
REMARK    7  A    between atoms: O_5  and  C_50
REMARK    8  A    between atoms: O_7  and  C_40
REMARK    9  A    between atoms: O_7  and  C_56
REMARK   10  A    between atoms: O_9  and  C_46
REMARK   11  A    between atoms: N_11  and  C_30
REMARK   12  A    between atoms: C_17  and  C_23
REMARK   13  A    between atoms: C_18  and  C_28
REMARK   14  A    between atoms: C_23  and  C_32
REMARK   15  A    between atoms: C_33  and  C_35
REMARK   16  A    between atoms: C_35  and  C_40
REMARK   17  A    between atoms: C_36  and  C_41
REMARK   18  A    between atoms: C_46  and  C_53
REMARK   19  A    between atoms: C_53  and  C_57
REMARK                            x       y       z     vdW  Elec       q    Type
REMARK                         _______ _______ _______ _____ _____    ______ ____
ROOT
ATOM      1  N   UNL     1      54.757  10.056   3.945  0.00  0.00    +0.000 NA
ATOM      2  N   UNL     1      54.530   5.843   1.714  0.00  0.00    +0.000 N 
ATOM      3  C   UNL     1      54.684   8.001   2.845  0.00  0.00    +0.000 C 
ATOM      4  C   UNL     1      55.669   8.985   3.500  0.00  0.00    +0.000 C 
ATOM      5  C   UNL     1      55.436   7.008   1.937  0.00  0.00    +0.000 C 
ATOM      6  C   UNL     1      56.884   9.406   2.551  0.00  0.00    +0.000 C 
ATOM      7  C   UNL     1      56.159   7.621   0.726  0.00  0.00    +0.000 C 
ATOM      8  C   UNL     1      53.563   8.885   2.264  0.00  0.00    +0.000 C 
ATOM      9  C   UNL     1      56.617   9.089   1.013  0.00  0.00    +0.000 C 
ATOM     10  C   UNL     1      54.007   6.962   3.717  0.00  0.00    +0.000 A 
ATOM     11  C   UNL     1      53.751  10.256   2.909  0.00  0.00    +0.000 C 
ATOM     12  C   UNL     1      53.896   5.767   2.992  0.00  0.00    +0.000 A 
ATOM     13  C   UNL     1      57.197  10.900   2.667  0.00  0.00    +0.000 C 
ATOM     14  C   UNL     1      55.416  11.279   4.377  0.00  0.00    +0.000 C 
ATOM     15  C   UNL     1      56.541  11.722   3.498  0.00  0.00    +0.000 C 
ATOM     16  C   UNL     1      53.493   7.094   5.003  0.00  0.00    +0.000 A 
ATOM     17  C   UNL     1      55.137   4.592   1.262  0.00  0.00    +0.000 C 
ATOM     18  C   UNL     1      53.223   4.694   3.545  0.00  0.00    +0.000 A 
ATOM     19  C   UNL     1      52.807   6.016   5.597  0.00  0.00    +0.000 A 
ATOM     20  C   UNL     1      52.676   4.820   4.832  0.00  0.00    +0.000 A 
ENDROOT
BRANCH  19  23
ATOM     21  N   UNL     1      50.340   5.738  10.927  0.00  0.00    +0.000 NA
ATOM     22  N   UNL     1      54.591   6.131   7.834  0.00  0.00    +0.000 N 
ATOM     23  C   UNL     1      52.180   6.120   7.045  0.00  0.00    +0.000 C 
ATOM     24  C   UNL     1      51.534   4.731   7.498  0.00  0.00    +0.000 C 
ATOM     25  C   UNL     1      53.278   6.481   8.102  0.00  0.00    +0.000 A 
ATOM     26  C   UNL     1      51.202   4.573   8.991  0.00  0.00    +0.000 C 
ATOM     27  C   UNL     1      50.734   3.178   9.402  0.00  0.00    +0.000 C 
ATOM     28  C   UNL     1      50.147   5.544   9.501  0.00  0.00    +0.000 C 
ATOM     29  C   UNL     1      53.279   7.029   9.398  0.00  0.00    +0.000 A 
ATOM     30  C   UNL     1      50.455   3.093  10.933  0.00  0.00    +0.000 C 
ATOM     31  C   UNL     1      50.173   4.468  11.666  0.00  0.00    +0.000 C 
ATOM     32  C   UNL     1      52.142   7.519  10.281  0.00  0.00    +0.000 C 
ATOM     33  C   UNL     1      51.600   6.446  11.273  0.00  0.00    +0.000 C 
ATOM     34  C   UNL     1      54.650   7.033   9.851  0.00  0.00    +0.000 A 
ATOM     35  C   UNL     1      55.433   6.470   8.855  0.00  0.00    +0.000 A 
ATOM     36  C   UNL     1      55.290   7.455  11.039  0.00  0.00    +0.000 A 
ATOM     37  C   UNL     1      56.820   6.310   8.967  0.00  0.00    +0.000 A 
ATOM     38  C   UNL     1      56.675   7.305  11.173  0.00  0.00    +0.000 A 
ATOM     39  C   UNL     1      57.428   6.741  10.149  0.00  0.00    +0.000 A 
ATOM     40  H   UNL     1      54.904   5.694   6.976  0.00  0.00    +0.000 HD
BRANCH  23  42
ATOM     41  O   UNL     1      49.920   7.085   6.558  0.00  0.00    +0.000 OA
ATOM     42  C   UNL     1      51.078   7.224   6.933  0.00  0.00    +0.000 C 
BRANCH  42  43
ATOM     43  O   UNL     1      51.581   8.432   7.359  0.00  0.00    +0.000 OA
ATOM     44  C   UNL     1      50.598   9.460   7.474  0.00  0.00    +0.000 C 
ENDBRANCH  42  43
ENDBRANCH  23  42
BRANCH  30  45
ATOM     45  O   UNL     1      49.257   2.287  11.058  0.00  0.00    +0.000 OA
ATOM     46  H   UNL     1      48.494   2.887  10.983  0.00  0.00    +0.000 HD
ENDBRANCH  30  45
BRANCH  30  47
ATOM     47  C   UNL     1      51.537   2.263  11.661  0.00  0.00    +0.000 C 
ATOM     48  C   UNL     1      51.898   0.924  11.041  0.00  0.00    +0.000 C 
ENDBRANCH  30  47
ENDBRANCH  19  23
BRANCH   7  49
ATOM     49  O   UNL     1      57.387   6.839   0.569  0.00  0.00    +0.000 OA
ATOM     50  H   UNL     1      57.692   6.997  -0.349  0.00  0.00    +0.000 HD
ENDBRANCH   7  49
BRANCH   7  52
ATOM     51  O   UNL     1      54.125   7.654  -0.698  0.00  0.00    +0.000 OA
ATOM     52  C   UNL     1      55.333   7.501  -0.579  0.00  0.00    +0.000 C 
BRANCH  52  53
ATOM     53  O   UNL     1      56.176   7.271  -1.639  0.00  0.00    +0.000 OA
ATOM     54  C   UNL     1      55.751   7.876  -2.861  0.00  0.00    +0.000 C 
ENDBRANCH  52  53
ENDBRANCH   7  52
BRANCH  20  55
ATOM     55  O   UNL     1      52.042   3.759   5.430  0.00  0.00    +0.000 OA
ATOM     56  C   UNL     1      52.039   2.551   4.675  0.00  0.00    +0.000 C 
ENDBRANCH  20  55
BRANCH   6  57
ATOM     57  C   UNL     1      58.190   8.651   2.996  0.00  0.00    +0.000 C 
ATOM     58  C   UNL     1      58.148   7.963   4.362  0.00  0.00    +0.000 C 
ENDBRANCH   6  57
BRANCH   9  59
ATOM     59  O   UNL     1      55.672  10.062   0.508  0.00  0.00    +0.000 OA
BRANCH  59  61
ATOM     60  O   UNL     1      55.436  11.784  -0.985  0.00  0.00    +0.000 OA
ATOM     61  C   UNL     1      56.095  10.878  -0.495  0.00  0.00    +0.000 C 
ATOM     62  C   UNL     1      57.496  10.528  -0.888  0.00  0.00    +0.000 C 
ENDBRANCH  59  61
ENDBRANCH   9  59
TORSDOF 12
ENDMDL
MODEL 4
REMARK VINA RESULT:      -6.4     13.588     17.396
REMARK  Name = 
REMARK  19 active torsions:
REMARK  status: ('A' for Active; 'I' for Inactive)
REMARK    1  A    between atoms: O_1  and  C_20
REMARK    2  A    between atoms: O_1  and  C_36
REMARK    3  A    between atoms: O_2  and  C_18
REMARK    4  A    between atoms: O_3  and  C_28
REMARK    5  A    between atoms: O_3  and  C_42
REMARK    6  A    between atoms: O_5  and  C_34
REMARK    7  A    between atoms: O_5  and  C_50
REMARK    8  A    between atoms: O_7  and  C_40
REMARK    9  A    between atoms: O_7  and  C_56
REMARK   10  A    between atoms: O_9  and  C_46
REMARK   11  A    between atoms: N_11  and  C_30
REMARK   12  A    between atoms: C_17  and  C_23
REMARK   13  A    between atoms: C_18  and  C_28
REMARK   14  A    between atoms: C_23  and  C_32
REMARK   15  A    between atoms: C_33  and  C_35
REMARK   16  A    between atoms: C_35  and  C_40
REMARK   17  A    between atoms: C_36  and  C_41
REMARK   18  A    between atoms: C_46  and  C_53
REMARK   19  A    between atoms: C_53  and  C_57
REMARK                            x       y       z     vdW  Elec       q    Type
REMARK                         _______ _______ _______ _____ _____    ______ ____
ROOT
ATOM      1  N   UNL     1      50.765   0.063   6.042  0.00  0.00    +0.000 NA
ATOM      2  N   UNL     1      54.233  -1.979   8.609  0.00  0.00    +0.000 N 
ATOM      3  C   UNL     1      52.479  -0.941   7.263  0.00  0.00    +0.000 C 
ATOM      4  C   UNL     1      52.204  -0.239   5.922  0.00  0.00    +0.000 C 
ATOM      5  C   UNL     1      53.807  -1.723   7.201  0.00  0.00    +0.000 C 
ATOM      6  C   UNL     1      52.671  -1.083   4.647  0.00  0.00    +0.000 C 
ATOM      7  C   UNL     1      53.856  -2.884   6.194  0.00  0.00    +0.000 C 
ATOM      8  C   UNL     1      51.167  -1.671   7.609  0.00  0.00    +0.000 C 
ATOM      9  C   UNL     1      52.917  -2.623   4.970  0.00  0.00    +0.000 C 
ATOM     10  C   UNL     1      52.833  -0.092   8.469  0.00  0.00    +0.000 A 
ATOM     11  C   UNL     1      50.113  -1.075   6.679  0.00  0.00    +0.000 C 
ATOM     12  C   UNL     1      53.798  -0.768   9.229  0.00  0.00    +0.000 A 
ATOM     13  C   UNL     1      51.643  -1.006   3.515  0.00  0.00    +0.000 C 
ATOM     14  C   UNL     1      50.128   0.500   4.809  0.00  0.00    +0.000 C 
ATOM     15  C   UNL     1      50.517  -0.283   3.598  0.00  0.00    +0.000 C 
ATOM     16  C   UNL     1      52.302   1.129   8.870  0.00  0.00    +0.000 A 
ATOM     17  C   UNL     1      55.638  -2.310   8.840  0.00  0.00    +0.000 C 
ATOM     18  C   UNL     1      54.212  -0.235  10.434  0.00  0.00    +0.000 A 
ATOM     19  C   UNL     1      52.707   1.702  10.091  0.00  0.00    +0.000 A 
ATOM     20  C   UNL     1      53.666   0.985  10.867  0.00  0.00    +0.000 A 
ENDROOT
BRANCH  19  23
ATOM     21  N   UNL     1      50.904   6.724  12.562  0.00  0.00    +0.000 NA
ATOM     22  N   UNL     1      53.708   4.122   8.934  0.00  0.00    +0.000 N 
ATOM     23  C   UNL     1      52.117   3.074  10.608  0.00  0.00    +0.000 C 
ATOM     24  C   UNL     1      52.659   3.426  12.069  0.00  0.00    +0.000 C 
ATOM     25  C   UNL     1      52.541   4.253   9.667  0.00  0.00    +0.000 A 
ATOM     26  C   UNL     1      52.457   4.870  12.556  0.00  0.00    +0.000 C 
ATOM     27  C   UNL     1      53.128   5.199  13.889  0.00  0.00    +0.000 C 
ATOM     28  C   UNL     1      50.999   5.281  12.701  0.00  0.00    +0.000 C 
ATOM     29  C   UNL     1      52.064   5.551   9.412  0.00  0.00    +0.000 A 
ATOM     30  C   UNL     1      52.908   6.688  14.292  0.00  0.00    +0.000 C 
ATOM     31  C   UNL     1      51.670   7.414  13.622  0.00  0.00    +0.000 C 
ATOM     32  C   UNL     1      50.878   6.315   9.979  0.00  0.00    +0.000 C 
ATOM     33  C   UNL     1      51.229   7.220  11.199  0.00  0.00    +0.000 C 
ATOM     34  C   UNL     1      52.971   6.152   8.461  0.00  0.00    +0.000 A 
ATOM     35  C   UNL     1      53.975   5.236   8.188  0.00  0.00    +0.000 A 
ATOM     36  C   UNL     1      53.029   7.411   7.821  0.00  0.00    +0.000 A 
ATOM     37  C   UNL     1      55.032   5.496   7.307  0.00  0.00    +0.000 A 
ATOM     38  C   UNL     1      54.076   7.692   6.936  0.00  0.00    +0.000 A 
ATOM     39  C   UNL     1      55.063   6.746   6.683  0.00  0.00    +0.000 A 
ATOM     40  H   UNL     1      54.291   3.295   8.927  0.00  0.00    +0.000 HD
BRANCH  23  42
ATOM     41  O   UNL     1      49.736   3.355   9.881  0.00  0.00    +0.000 OA
ATOM     42  C   UNL     1      50.567   2.866  10.637  0.00  0.00    +0.000 C 
BRANCH  42  43
ATOM     43  O   UNL     1      50.230   1.996  11.647  0.00  0.00    +0.000 OA
ATOM     44  C   UNL     1      49.372   0.933  11.235  0.00  0.00    +0.000 C 
ENDBRANCH  42  43
ENDBRANCH  23  42
BRANCH  30  45
ATOM     45  O   UNL     1      52.669   6.665  15.722  0.00  0.00    +0.000 OA
ATOM     46  H   UNL     1      51.853   6.154  15.872  0.00  0.00    +0.000 HD
ENDBRANCH  30  45
BRANCH  30  47
ATOM     47  C   UNL     1      54.207   7.513  14.148  0.00  0.00    +0.000 C 
ATOM     48  C   UNL     1      54.683   7.789  12.732  0.00  0.00    +0.000 C 
ENDBRANCH  30  47
ENDBRANCH  19  23
BRANCH   7  49
ATOM     49  O   UNL     1      55.221  -2.882   5.663  0.00  0.00    +0.000 OA
ATOM     50  H   UNL     1      55.174  -2.418   4.802  0.00  0.00    +0.000 HD
ENDBRANCH   7  49
BRANCH   7  52
ATOM     51  O   UNL     1      52.778  -4.500   7.740  0.00  0.00    +0.000 OA
ATOM     52  C   UNL     1      53.592  -4.257   6.861  0.00  0.00    +0.000 C 
BRANCH  52  53
ATOM     53  O   UNL     1      54.367  -5.218   6.258  0.00  0.00    +0.000 OA
ATOM     54  C   UNL     1      53.789  -6.525   6.276  0.00  0.00    +0.000 C 
ENDBRANCH  52  53
ENDBRANCH   7  52
BRANCH  20  55
ATOM     55  O   UNL     1      54.089   1.566  12.035  0.00  0.00    +0.000 OA
ATOM     56  C   UNL     1      55.036   0.809  12.782  0.00  0.00    +0.000 C 
ENDBRANCH  20  55
BRANCH   6  57
ATOM     57  C   UNL     1      54.002  -0.475   4.069  0.00  0.00    +0.000 C 
ATOM     58  C   UNL     1      54.264   1.002   4.367  0.00  0.00    +0.000 C 
ENDBRANCH   6  57
BRANCH   9  59
ATOM     59  O   UNL     1      51.628  -3.264   5.126  0.00  0.00    +0.000 OA
BRANCH  59  61
ATOM     60  O   UNL     1      50.016  -4.184   3.784  0.00  0.00    +0.000 OA
ATOM     61  C   UNL     1      51.189  -4.035   4.095  0.00  0.00    +0.000 C 
ATOM     62  C   UNL     1      52.351  -4.646   3.376  0.00  0.00    +0.000 C 
ENDBRANCH  59  61
ENDBRANCH   9  59
TORSDOF 12
ENDMDL
MODEL 5
REMARK VINA RESULT:      -5.8     18.017     24.556
REMARK  Name = 
REMARK  19 active torsions:
REMARK  status: ('A' for Active; 'I' for Inactive)
REMARK    1  A    between atoms: O_1  and  C_20
REMARK    2  A    between atoms: O_1  and  C_36
REMARK    3  A    between atoms: O_2  and  C_18
REMARK    4  A    between atoms: O_3  and  C_28
REMARK    5  A    between atoms: O_3  and  C_42
REMARK    6  A    between atoms: O_5  and  C_34
REMARK    7  A    between atoms: O_5  and  C_50
REMARK    8  A    between atoms: O_7  and  C_40
REMARK    9  A    between atoms: O_7  and  C_56
REMARK   10  A    between atoms: O_9  and  C_46
REMARK   11  A    between atoms: N_11  and  C_30
REMARK   12  A    between atoms: C_17  and  C_23
REMARK   13  A    between atoms: C_18  and  C_28
REMARK   14  A    between atoms: C_23  and  C_32
REMARK   15  A    between atoms: C_33  and  C_35
REMARK   16  A    between atoms: C_35  and  C_40
REMARK   17  A    between atoms: C_36  and  C_41
REMARK   18  A    between atoms: C_46  and  C_53
REMARK   19  A    between atoms: C_53  and  C_57
REMARK                            x       y       z     vdW  Elec       q    Type
REMARK                         _______ _______ _______ _____ _____    ______ ____
ROOT
ATOM      1  N   UNL     1      37.808  24.007  25.290  0.00  0.00    +0.000 NA
ATOM      2  N   UNL     1      38.160  25.721  20.849  0.00  0.00    +0.000 N 
ATOM      3  C   UNL     1      38.018  24.846  23.125  0.00  0.00    +0.000 C 
ATOM      4  C   UNL     1      38.818  24.123  24.222  0.00  0.00    +0.000 C 
ATOM      5  C   UNL     1      38.970  25.454  22.075  0.00  0.00    +0.000 C 
ATOM      6  C   UNL     1      40.196  24.843  24.594  0.00  0.00    +0.000 C 
ATOM      7  C   UNL     1      39.917  26.553  22.584  0.00  0.00    +0.000 C 
ATOM      8  C   UNL     1      37.025  25.747  23.883  0.00  0.00    +0.000 C 
ATOM      9  C   UNL     1      40.268  26.354  24.096  0.00  0.00    +0.000 C 
ATOM     10  C   UNL     1      37.198  24.016  22.157  0.00  0.00    +0.000 A 
ATOM     11  C   UNL     1      37.038  25.244  25.325  0.00  0.00    +0.000 C 
ATOM     12  C   UNL     1      37.272  24.602  20.885  0.00  0.00    +0.000 A 
ATOM     13  C   UNL     1      40.441  24.841  26.105  0.00  0.00    +0.000 C 
ATOM     14  C   UNL     1      38.330  23.595  26.584  0.00  0.00    +0.000 C 
ATOM     15  C   UNL     1      39.605  24.268  26.981  0.00  0.00    +0.000 C 
ATOM     16  C   UNL     1      36.420  22.890  22.405  0.00  0.00    +0.000 A 
ATOM     17  C   UNL     1      38.879  25.885  19.587  0.00  0.00    +0.000 C 
ATOM     18  C   UNL     1      36.524  24.077  19.849  0.00  0.00    +0.000 A 
ATOM     19  C   UNL     1      35.650  22.328  21.368  0.00  0.00    +0.000 A 
ATOM     20  C   UNL     1      35.713  22.956  20.089  0.00  0.00    +0.000 A 
ENDROOT
BRANCH  19  23
ATOM     21  N   UNL     1      31.833  17.871  21.735  0.00  0.00    +0.000 NA
ATOM     22  N   UNL     1      36.528  19.809  20.326  0.00  0.00    +0.000 N 
ATOM     23  C   UNL     1      34.729  21.064  21.600  0.00  0.00    +0.000 C 
ATOM     24  C   UNL     1      33.431  21.113  20.672  0.00  0.00    +0.000 C 
ATOM     25  C   UNL     1      35.495  19.744  21.246  0.00  0.00    +0.000 A 
ATOM     26  C   UNL     1      32.629  19.809  20.528  0.00  0.00    +0.000 C 
ATOM     27  C   UNL     1      31.490  19.864  19.511  0.00  0.00    +0.000 C 
ATOM     28  C   UNL     1      32.015  19.309  21.828  0.00  0.00    +0.000 C 
ATOM     29  C   UNL     1      35.347  18.383  21.569  0.00  0.00    +0.000 A 
ATOM     30  C   UNL     1      30.754  18.495  19.399  0.00  0.00    +0.000 C 
ATOM     31  C   UNL     1      30.904  17.520  20.638  0.00  0.00    +0.000 C 
ATOM     32  C   UNL     1      34.339  17.664  22.452  0.00  0.00    +0.000 C 
ATOM     33  C   UNL     1      33.105  17.105  21.682  0.00  0.00    +0.000 C 
ATOM     34  C   UNL     1      36.368  17.665  20.842  0.00  0.00    +0.000 A 
ATOM     35  C   UNL     1      37.081  18.582  20.084  0.00  0.00    +0.000 A 
ATOM     36  C   UNL     1      36.735  16.303  20.751  0.00  0.00    +0.000 A 
ATOM     37  C   UNL     1      38.145  18.225  19.247  0.00  0.00    +0.000 A 
ATOM     38  C   UNL     1      37.797  15.923  19.922  0.00  0.00    +0.000 A 
ATOM     39  C   UNL     1      38.491  16.874  19.181  0.00  0.00    +0.000 A 
ATOM     40  H   UNL     1      36.858  20.663  19.894  0.00  0.00    +0.000 HD
BRANCH  23  42
ATOM     41  O   UNL     1      34.812  20.496  24.039  0.00  0.00    +0.000 OA
ATOM     42  C   UNL     1      34.324  21.128  23.110  0.00  0.00    +0.000 C 
BRANCH  42  43
ATOM     43  O   UNL     1      33.319  22.050  23.286  0.00  0.00    +0.000 OA
ATOM     44  C   UNL     1      33.348  22.702  24.555  0.00  0.00    +0.000 C 
ENDBRANCH  42  43
ENDBRANCH  23  42
BRANCH  30  45
ATOM     45  O   UNL     1      29.347  18.827  19.283  0.00  0.00    +0.000 OA
ATOM     46  H   UNL     1      28.842  18.008  19.433  0.00  0.00    +0.000 HD
ENDBRANCH  30  45
BRANCH  30  47
ATOM     47  C   UNL     1      31.077  17.784  18.065  0.00  0.00    +0.000 C 
ATOM     48  C   UNL     1      31.660  16.384  18.165  0.00  0.00    +0.000 C 
ENDBRANCH  30  47
ENDBRANCH  19  23
BRANCH   7  49
ATOM     49  O   UNL     1      41.170  26.358  21.850  0.00  0.00    +0.000 OA
ATOM     50  H   UNL     1      41.089  25.490  21.405  0.00  0.00    +0.000 HD
ENDBRANCH   7  49
BRANCH   7  52
ATOM     51  O   UNL     1      38.271  28.411  22.522  0.00  0.00    +0.000 OA
ATOM     52  C   UNL     1      39.389  27.977  22.281  0.00  0.00    +0.000 C 
BRANCH  52  53
ATOM     53  O   UNL     1      40.403  28.743  21.758  0.00  0.00    +0.000 OA
ATOM     54  C   UNL     1      40.496  30.050  22.328  0.00  0.00    +0.000 C 
ENDBRANCH  52  53
ENDBRANCH   7  52
BRANCH  20  55
ATOM     55  O   UNL     1      34.994  22.381  19.072  0.00  0.00    +0.000 OA
ATOM     56  C   UNL     1      34.468  23.292  18.111  0.00  0.00    +0.000 C 
ENDBRANCH  20  55
BRANCH   6  57
ATOM     57  C   UNL     1      41.396  24.050  23.957  0.00  0.00    +0.000 C 
ATOM     58  C   UNL     1      42.799  24.439  24.428  0.00  0.00    +0.000 C 
ENDBRANCH   6  57
BRANCH   9  59
ATOM     59  O   UNL     1      39.428  27.155  24.960  0.00  0.00    +0.000 OA
BRANCH  59  61
ATOM     60  O   UNL     1      39.473  28.849  26.501  0.00  0.00    +0.000 OA
ATOM     61  C   UNL     1      40.035  28.134  25.684  0.00  0.00    +0.000 C 
ATOM     62  C   UNL     1      41.496  28.184  25.361  0.00  0.00    +0.000 C 
ENDBRANCH  59  61
ENDBRANCH   9  59
TORSDOF 12
ENDMDL
MODEL 6
REMARK VINA RESULT:      -5.7     27.212     31.715
REMARK  Name = 
REMARK  19 active torsions:
REMARK  status: ('A' for Active; 'I' for Inactive)
REMARK    1  A    between atoms: O_1  and  C_20
REMARK    2  A    between atoms: O_1  and  C_36
REMARK    3  A    between atoms: O_2  and  C_18
REMARK    4  A    between atoms: O_3  and  C_28
REMARK    5  A    between atoms: O_3  and  C_42
REMARK    6  A    between atoms: O_5  and  C_34
REMARK    7  A    between atoms: O_5  and  C_50
REMARK    8  A    between atoms: O_7  and  C_40
REMARK    9  A    between atoms: O_7  and  C_56
REMARK   10  A    between atoms: O_9  and  C_46
REMARK   11  A    between atoms: N_11  and  C_30
REMARK   12  A    between atoms: C_17  and  C_23
REMARK   13  A    between atoms: C_18  and  C_28
REMARK   14  A    between atoms: C_23  and  C_32
REMARK   15  A    between atoms: C_33  and  C_35
REMARK   16  A    between atoms: C_35  and  C_40
REMARK   17  A    between atoms: C_36  and  C_41
REMARK   18  A    between atoms: C_46  and  C_53
REMARK   19  A    between atoms: C_53  and  C_57
REMARK                            x       y       z     vdW  Elec       q    Type
REMARK                         _______ _______ _______ _____ _____    ______ ____
ROOT
ATOM      1  N   UNL     1      42.867  -0.411 -10.964  0.00  0.00    +0.000 NA
ATOM      2  N   UNL     1      38.134  -0.443 -10.350  0.00  0.00    +0.000 N 
ATOM      3  C   UNL     1      40.553  -0.391 -10.680  0.00  0.00    +0.000 C 
ATOM      4  C   UNL     1      41.673   0.257 -11.514  0.00  0.00    +0.000 C 
ATOM      5  C   UNL     1      39.260   0.443 -10.773  0.00  0.00    +0.000 C 
ATOM      6  C   UNL     1      41.651   1.855 -11.487  0.00  0.00    +0.000 C 
ATOM      7  C   UNL     1      39.335   1.865 -10.192  0.00  0.00    +0.000 C 
ATOM      8  C   UNL     1      41.192  -0.680  -9.308  0.00  0.00    +0.000 C 
ATOM      9  C   UNL     1      40.782   2.450 -10.293  0.00  0.00    +0.000 C 
ATOM     10  C   UNL     1      39.953  -1.698 -11.161  0.00  0.00    +0.000 A 
ATOM     11  C   UNL     1      42.697  -0.535  -9.522  0.00  0.00    +0.000 C 
ATOM     12  C   UNL     1      38.577  -1.689 -10.890  0.00  0.00    +0.000 A 
ATOM     13  C   UNL     1      43.062   2.434 -11.366  0.00  0.00    +0.000 C 
ATOM     14  C   UNL     1      44.136   0.179 -11.365  0.00  0.00    +0.000 C 
ATOM     15  C   UNL     1      44.165   1.672 -11.326  0.00  0.00    +0.000 C 
ATOM     16  C   UNL     1      40.586  -2.800 -11.727  0.00  0.00    +0.000 A 
ATOM     17  C   UNL     1      36.783  -0.054 -10.750  0.00  0.00    +0.000 C 
ATOM     18  C   UNL     1      37.824  -2.817 -11.152  0.00  0.00    +0.000 A 
ATOM     19  C   UNL     1      39.844  -3.964 -12.011  0.00  0.00    +0.000 A 
ATOM     20  C   UNL     1      38.452  -3.948 -11.700  0.00  0.00    +0.000 A 
ENDROOT
BRANCH  19  23
ATOM     21  N   UNL     1      42.940  -8.457 -14.201  0.00  0.00    +0.000 NA
ATOM     22  N   UNL     1      40.009  -6.312 -10.381  0.00  0.00    +0.000 N 
ATOM     23  C   UNL     1      40.517  -5.254 -12.630  0.00  0.00    +0.000 C 
ATOM     24  C   UNL     1      42.102  -5.089 -12.735  0.00  0.00    +0.000 C 
ATOM     25  C   UNL     1      40.245  -6.508 -11.731  0.00  0.00    +0.000 A 
ATOM     26  C   UNL     1      42.919  -6.368 -12.984  0.00  0.00    +0.000 C 
ATOM     27  C   UNL     1      44.434  -6.185 -12.921  0.00  0.00    +0.000 C 
ATOM     28  C   UNL     1      42.627  -7.044 -14.316  0.00  0.00    +0.000 C 
ATOM     29  C   UNL     1      40.267  -7.901 -11.924  0.00  0.00    +0.000 A 
ATOM     30  C   UNL     1      45.185  -7.531 -13.147  0.00  0.00    +0.000 C 
ATOM     31  C   UNL     1      44.374  -8.663 -13.901  0.00  0.00    +0.000 C 
ATOM     32  C   UNL     1      40.559  -8.740 -13.158  0.00  0.00    +0.000 C 
ATOM     33  C   UNL     1      42.044  -9.199 -13.277  0.00  0.00    +0.000 C 
ATOM     34  C   UNL     1      39.982  -8.507 -10.643  0.00  0.00    +0.000 A 
ATOM     35  C   UNL     1      39.827  -7.491  -9.713  0.00  0.00    +0.000 A 
ATOM     36  C   UNL     1      39.861  -9.842 -10.194  0.00  0.00    +0.000 A 
ATOM     37  C   UNL     1      39.548  -7.724  -8.361  0.00  0.00    +0.000 A 
ATOM     38  C   UNL     1      39.581 -10.098  -8.847  0.00  0.00    +0.000 A 
ATOM     39  C   UNL     1      39.427  -9.052  -7.944  0.00  0.00    +0.000 A 
ATOM     40  H   UNL     1      39.954  -5.406  -9.934  0.00  0.00    +0.000 HD
BRANCH  23  42
ATOM     41  O   UNL     1      39.071  -6.232 -14.426  0.00  0.00    +0.000 OA
ATOM     42  C   UNL     1      39.887  -5.398 -14.055  0.00  0.00    +0.000 C 
BRANCH  42  43
ATOM     43  O   UNL     1      40.361  -4.404 -14.878  0.00  0.00    +0.000 OA
ATOM     44  C   UNL     1      39.999  -4.566 -16.249  0.00  0.00    +0.000 C 
ENDBRANCH  42  43
ENDBRANCH  23  42
BRANCH  30  45
ATOM     45  O   UNL     1      46.326  -7.197 -13.977  0.00  0.00    +0.000 OA
ATOM     46  H   UNL     1      47.055  -7.790 -13.721  0.00  0.00    +0.000 HD
ENDBRANCH  30  45
BRANCH  30  47
ATOM     47  C   UNL     1      45.821  -8.053 -11.837  0.00  0.00    +0.000 C 
ATOM     48  C   UNL     1      45.218  -9.316 -11.247  0.00  0.00    +0.000 C 
ENDBRANCH  30  47
ENDBRANCH  19  23
BRANCH   7  49
ATOM     49  O   UNL     1      38.504   2.689 -11.072  0.00  0.00    +0.000 OA
ATOM     50  H   UNL     1      38.271   3.487 -10.553  0.00  0.00    +0.000 HD
ENDBRANCH   7  49
BRANCH   7  52
ATOM     51  O   UNL     1      39.058   1.241  -7.805  0.00  0.00    +0.000 OA
ATOM     52  C   UNL     1      38.759   1.949  -8.756  0.00  0.00    +0.000 C 
BRANCH  52  53
ATOM     53  O   UNL     1      37.895   3.013  -8.668  0.00  0.00    +0.000 OA
ATOM     54  C   UNL     1      37.832   3.603  -7.368  0.00  0.00    +0.000 C 
ENDBRANCH  52  53
ENDBRANCH   7  52
BRANCH  20  55
ATOM     55  O   UNL     1      37.726  -5.069 -12.015  0.00  0.00    +0.000 OA
ATOM     56  C   UNL     1      36.344  -4.843 -12.275  0.00  0.00    +0.000 C 
ENDBRANCH  20  55
BRANCH   6  57
ATOM     57  C   UNL     1      41.072   2.399 -12.845  0.00  0.00    +0.000 C 
ATOM     58  C   UNL     1      40.955   1.391 -13.990  0.00  0.00    +0.000 C 
ENDBRANCH   6  57
BRANCH   9  59
ATOM     59  O   UNL     1      41.526   2.278  -9.063  0.00  0.00    +0.000 OA
BRANCH  59  61
ATOM     60  O   UNL     1      43.312   3.378  -8.143  0.00  0.00    +0.000 OA
ATOM     61  C   UNL     1      42.164   3.370  -8.564  0.00  0.00    +0.000 C 
ATOM     62  C   UNL     1      41.270   4.569  -8.636  0.00  0.00    +0.000 C 
ENDBRANCH  59  61
ENDBRANCH   9  59
TORSDOF 12
ENDMDL
MODEL 7
REMARK VINA RESULT:      -5.6     17.547     23.600
REMARK  Name = 
REMARK  19 active torsions:
REMARK  status: ('A' for Active; 'I' for Inactive)
REMARK    1  A    between atoms: O_1  and  C_20
REMARK    2  A    between atoms: O_1  and  C_36
REMARK    3  A    between atoms: O_2  and  C_18
REMARK    4  A    between atoms: O_3  and  C_28
REMARK    5  A    between atoms: O_3  and  C_42
REMARK    6  A    between atoms: O_5  and  C_34
REMARK    7  A    between atoms: O_5  and  C_50
REMARK    8  A    between atoms: O_7  and  C_40
REMARK    9  A    between atoms: O_7  and  C_56
REMARK   10  A    between atoms: O_9  and  C_46
REMARK   11  A    between atoms: N_11  and  C_30
REMARK   12  A    between atoms: C_17  and  C_23
REMARK   13  A    between atoms: C_18  and  C_28
REMARK   14  A    between atoms: C_23  and  C_32
REMARK   15  A    between atoms: C_33  and  C_35
REMARK   16  A    between atoms: C_35  and  C_40
REMARK   17  A    between atoms: C_36  and  C_41
REMARK   18  A    between atoms: C_46  and  C_53
REMARK   19  A    between atoms: C_53  and  C_57
REMARK                            x       y       z     vdW  Elec       q    Type
REMARK                         _______ _______ _______ _____ _____    ______ ____
ROOT
ATOM      1  N   UNL     1      26.018  -6.553   2.753  0.00  0.00    +0.000 NA
ATOM      2  N   UNL     1      30.387  -5.166   4.081  0.00  0.00    +0.000 N 
ATOM      3  C   UNL     1      28.160  -5.912   3.414  0.00  0.00    +0.000 C 
ATOM      4  C   UNL     1      27.337  -7.153   3.028  0.00  0.00    +0.000 C 
ATOM      5  C   UNL     1      29.450  -6.327   4.149  0.00  0.00    +0.000 C 
ATOM      6  C   UNL     1      27.395  -8.326   4.112  0.00  0.00    +0.000 C 
ATOM      7  C   UNL     1      29.255  -7.038   5.498  0.00  0.00    +0.000 C 
ATOM      8  C   UNL     1      27.154  -4.961   4.093  0.00  0.00    +0.000 C 
ATOM      9  C   UNL     1      27.911  -7.838   5.537  0.00  0.00    +0.000 C 
ATOM     10  C   UNL     1      28.834  -5.115   2.314  0.00  0.00    +0.000 A 
ATOM     11  C   UNL     1      25.774  -5.514   3.746  0.00  0.00    +0.000 C 
ATOM     12  C   UNL     1      30.078  -4.667   2.778  0.00  0.00    +0.000 A 
ATOM     13  C   UNL     1      26.023  -8.974   4.314  0.00  0.00    +0.000 C 
ATOM     14  C   UNL     1      24.929  -7.509   2.612  0.00  0.00    +0.000 C 
ATOM     15  C   UNL     1      24.933  -8.606   3.626  0.00  0.00    +0.000 C 
ATOM     16  C   UNL     1      28.354  -4.780   1.052  0.00  0.00    +0.000 A 
ATOM     17  C   UNL     1      31.807  -5.430   4.309  0.00  0.00    +0.000 C 
ATOM     18  C   UNL     1      30.843  -3.834   1.984  0.00  0.00    +0.000 A 
ATOM     19  C   UNL     1      29.112  -3.937   0.216  0.00  0.00    +0.000 A 
ATOM     20  C   UNL     1      30.361  -3.465   0.718  0.00  0.00    +0.000 A 
ENDROOT
BRANCH  19  23
ATOM     21  N   UNL     1      27.594  -1.760  -5.031  0.00  0.00    +0.000 NA
ATOM     22  N   UNL     1      30.301  -5.181  -2.072  0.00  0.00    +0.000 N 
ATOM     23  C   UNL     1      28.604  -3.502  -1.216  0.00  0.00    +0.000 C 
ATOM     24  C   UNL     1      29.133  -2.046  -1.603  0.00  0.00    +0.000 C 
ATOM     25  C   UNL     1      29.128  -4.487  -2.316  0.00  0.00    +0.000 A 
ATOM     26  C   UNL     1      29.018  -1.634  -3.080  0.00  0.00    +0.000 C 
ATOM     27  C   UNL     1      29.678  -0.301  -3.429  0.00  0.00    +0.000 C 
ATOM     28  C   UNL     1      27.588  -1.549  -3.594  0.00  0.00    +0.000 C 
ATOM     29  C   UNL     1      28.747  -4.817  -3.629  0.00  0.00    +0.000 A 
ATOM     30  C   UNL     1      29.549   0.024  -4.948  0.00  0.00    +0.000 C 
ATOM     31  C   UNL     1      28.380  -0.713  -5.721  0.00  0.00    +0.000 C 
ATOM     32  C   UNL     1      27.602  -4.319  -4.497  0.00  0.00    +0.000 C 
ATOM     33  C   UNL     1      27.984  -3.135  -5.436  0.00  0.00    +0.000 C 
ATOM     34  C   UNL     1      29.714  -5.771  -4.121  0.00  0.00    +0.000 A 
ATOM     35  C   UNL     1      30.660  -5.972  -3.127  0.00  0.00    +0.000 A 
ATOM     36  C   UNL     1      29.873  -6.468  -5.339  0.00  0.00    +0.000 A 
ATOM     37  C   UNL     1      31.753  -6.836  -3.272  0.00  0.00    +0.000 A 
ATOM     38  C   UNL     1      30.957  -7.338  -5.506  0.00  0.00    +0.000 A 
ATOM     39  C   UNL     1      31.883  -7.518  -4.484  0.00  0.00    +0.000 A 
ATOM     40  H   UNL     1      30.827  -5.133  -1.209  0.00  0.00    +0.000 HD
BRANCH  23  42
ATOM     41  O   UNL     1      26.276  -4.398  -1.455  0.00  0.00    +0.000 OA
ATOM     42  C   UNL     1      27.043  -3.506  -1.113  0.00  0.00    +0.000 C 
BRANCH  42  43
ATOM     43  O   UNL     1      26.609  -2.336  -0.533  0.00  0.00    +0.000 OA
ATOM     44  C   UNL     1      25.478  -2.498   0.322  0.00  0.00    +0.000 C 
ENDBRANCH  42  43
ENDBRANCH  23  42
BRANCH  30  45
ATOM     45  O   UNL     1      29.275   1.446  -5.012  0.00  0.00    +0.000 OA
ATOM     46  H   UNL     1      29.749   1.867  -4.273  0.00  0.00    +0.000 HD
ENDBRANCH  30  45
BRANCH  30  47
ATOM     47  C   UNL     1      30.905  -0.125  -5.677  0.00  0.00    +0.000 C 
ATOM     48  C   UNL     1      32.154   0.021  -4.825  0.00  0.00    +0.000 C 
ENDBRANCH  30  47
ENDBRANCH  19  23
BRANCH   7  49
ATOM     49  O   UNL     1      30.322  -8.039   5.568  0.00  0.00    +0.000 OA
ATOM     50  H   UNL     1      29.890  -8.874   5.844  0.00  0.00    +0.000 HD
ENDBRANCH   7  49
BRANCH   7  52
ATOM     51  O   UNL     1      28.903  -4.968   6.823  0.00  0.00    +0.000 OA
ATOM     52  C   UNL     1      29.408  -6.075   6.702  0.00  0.00    +0.000 C 
BRANCH  52  53
ATOM     53  O   UNL     1      30.148  -6.683   7.687  0.00  0.00    +0.000 OA
ATOM     54  C   UNL     1      29.741  -6.341   9.013  0.00  0.00    +0.000 C 
ENDBRANCH  52  53
ENDBRANCH   7  52
BRANCH  20  55
ATOM     55  O   UNL     1      31.115  -2.677  -0.115  0.00  0.00    +0.000 OA
ATOM     56  C   UNL     1      32.470  -3.086  -0.275  0.00  0.00    +0.000 C 
ENDBRANCH  20  55
BRANCH   6  57
ATOM     57  C   UNL     1      28.346  -9.471   3.603  0.00  0.00    +0.000 C 
ATOM     58  C   UNL     1      28.734  -9.428   2.123  0.00  0.00    +0.000 C 
ENDBRANCH   6  57
BRANCH   9  59
ATOM     59  O   UNL     1      26.849  -7.085   6.169  0.00  0.00    +0.000 OA
BRANCH  59  61
ATOM     60  O   UNL     1      26.937  -8.298   8.111  0.00  0.00    +0.000 OA
ATOM     61  C   UNL     1      26.330  -7.589   7.321  0.00  0.00    +0.000 C 
ATOM     62  C   UNL     1      24.919  -7.121   7.500  0.00  0.00    +0.000 C 
ENDBRANCH  59  61
ENDBRANCH   9  59
TORSDOF 12
ENDMDL
MODEL 8
REMARK VINA RESULT:      -5.5     26.807     29.393
REMARK  Name = 
REMARK  19 active torsions:
REMARK  status: ('A' for Active; 'I' for Inactive)
REMARK    1  A    between atoms: O_1  and  C_20
REMARK    2  A    between atoms: O_1  and  C_36
REMARK    3  A    between atoms: O_2  and  C_18
REMARK    4  A    between atoms: O_3  and  C_28
REMARK    5  A    between atoms: O_3  and  C_42
REMARK    6  A    between atoms: O_5  and  C_34
REMARK    7  A    between atoms: O_5  and  C_50
REMARK    8  A    between atoms: O_7  and  C_40
REMARK    9  A    between atoms: O_7  and  C_56
REMARK   10  A    between atoms: O_9  and  C_46
REMARK   11  A    between atoms: N_11  and  C_30
REMARK   12  A    between atoms: C_17  and  C_23
REMARK   13  A    between atoms: C_18  and  C_28
REMARK   14  A    between atoms: C_23  and  C_32
REMARK   15  A    between atoms: C_33  and  C_35
REMARK   16  A    between atoms: C_35  and  C_40
REMARK   17  A    between atoms: C_36  and  C_41
REMARK   18  A    between atoms: C_46  and  C_53
REMARK   19  A    between atoms: C_53  and  C_57
REMARK                            x       y       z     vdW  Elec       q    Type
REMARK                         _______ _______ _______ _____ _____    ______ ____
ROOT
ATOM      1  N   UNL     1      38.115   2.218  -9.527  0.00  0.00    +0.000 NA
ATOM      2  N   UNL     1      42.240   4.610  -9.310  0.00  0.00    +0.000 N 
ATOM      3  C   UNL     1      40.142   3.369  -9.453  0.00  0.00    +0.000 C 
ATOM      4  C   UNL     1      39.216   2.617 -10.425  0.00  0.00    +0.000 C 
ATOM      5  C   UNL     1      41.553   3.515 -10.057  0.00  0.00    +0.000 C 
ATOM      6  C   UNL     1      39.949   1.456 -11.243  0.00  0.00    +0.000 C 
ATOM      7  C   UNL     1      42.316   2.204 -10.307  0.00  0.00    +0.000 C 
ATOM      8  C   UNL     1      39.951   2.667  -8.095  0.00  0.00    +0.000 C 
ATOM      9  C   UNL     1      41.339   1.018 -10.602  0.00  0.00    +0.000 C 
ATOM     10  C   UNL     1      39.900   4.847  -9.215  0.00  0.00    +0.000 A 
ATOM     11  C   UNL     1      38.692   1.817  -8.250  0.00  0.00    +0.000 C 
ATOM     12  C   UNL     1      41.138   5.491  -9.083  0.00  0.00    +0.000 A 
ATOM     13  C   UNL     1      39.074   0.205 -11.350  0.00  0.00    +0.000 C 
ATOM     14  C   UNL     1      37.187   1.250 -10.091  0.00  0.00    +0.000 C 
ATOM     15  C   UNL     1      37.836   0.132 -10.841  0.00  0.00    +0.000 C 
ATOM     16  C   UNL     1      38.696   5.528  -9.073  0.00  0.00    +0.000 A 
ATOM     17  C   UNL     1      43.398   5.237  -9.944  0.00  0.00    +0.000 C 
ATOM     18  C   UNL     1      41.176   6.835  -8.763  0.00  0.00    +0.000 A 
ATOM     19  C   UNL     1      38.701   6.899  -8.753  0.00  0.00    +0.000 A 
ATOM     20  C   UNL     1      39.969   7.532  -8.591  0.00  0.00    +0.000 A 
ENDROOT
BRANCH  19  23
ATOM     21  N   UNL     1      34.070  10.327  -7.579  0.00  0.00    +0.000 NA
ATOM     22  N   UNL     1      37.936   8.752 -10.798  0.00  0.00    +0.000 N 
ATOM     23  C   UNL     1      37.362   7.717  -8.554  0.00  0.00    +0.000 C 
ATOM     24  C   UNL     1      37.534   8.853  -7.444  0.00  0.00    +0.000 C 
ATOM     25  C   UNL     1      36.946   8.435  -9.883  0.00  0.00    +0.000 A 
ATOM     26  C   UNL     1      36.449   9.940  -7.388  0.00  0.00    +0.000 C 
ATOM     27  C   UNL     1      36.737  11.086  -6.420  0.00  0.00    +0.000 C 
ATOM     28  C   UNL     1      35.064   9.420  -7.033  0.00  0.00    +0.000 C 
ATOM     29  C   UNL     1      35.752   8.969 -10.401  0.00  0.00    +0.000 A 
ATOM     30  C   UNL     1      35.610  12.162  -6.451  0.00  0.00    +0.000 C 
ATOM     31  C   UNL     1      34.203  11.680  -6.995  0.00  0.00    +0.000 C 
ATOM     32  C   UNL     1      34.345   9.023  -9.829  0.00  0.00    +0.000 C 
ATOM     33  C   UNL     1      34.020  10.342  -9.064  0.00  0.00    +0.000 C 
ATOM     34  C   UNL     1      36.077   9.563 -11.678  0.00  0.00    +0.000 A 
ATOM     35  C   UNL     1      37.438   9.407 -11.889  0.00  0.00    +0.000 A 
ATOM     36  C   UNL     1      35.325  10.238 -12.666  0.00  0.00    +0.000 A 
ATOM     37  C   UNL     1      38.096   9.877 -13.033  0.00  0.00    +0.000 A 
ATOM     38  C   UNL     1      35.961  10.715 -13.818  0.00  0.00    +0.000 A 
ATOM     39  C   UNL     1      37.329  10.535 -13.997  0.00  0.00    +0.000 A 
ATOM     40  H   UNL     1      38.913   8.513 -10.691  0.00  0.00    +0.000 HD
BRANCH  23  42
ATOM     41  O   UNL     1      35.376   6.202  -8.750  0.00  0.00    +0.000 OA
ATOM     42  C   UNL     1      36.304   6.660  -8.095  0.00  0.00    +0.000 C 
BRANCH  42  43
ATOM     43  O   UNL     1      36.570   6.261  -6.806  0.00  0.00    +0.000 OA
ATOM     44  C   UNL     1      36.551   4.846  -6.622  0.00  0.00    +0.000 C 
ENDBRANCH  42  43
ENDBRANCH  23  42
BRANCH  30  45
ATOM     45  O   UNL     1      35.422  12.557  -5.069  0.00  0.00    +0.000 OA
ATOM     46  H   UNL     1      34.715  11.998  -4.700  0.00  0.00    +0.000 HD
ENDBRANCH  30  45
BRANCH  30  47
ATOM     47  C   UNL     1      36.082  13.460  -7.146  0.00  0.00    +0.000 C 
ATOM     48  C   UNL     1      35.119  14.087  -8.139  0.00  0.00    +0.000 C 
ENDBRANCH  30  47
ENDBRANCH  19  23
BRANCH   7  49
ATOM     49  O   UNL     1      43.071   2.421 -11.543  0.00  0.00    +0.000 OA
ATOM     50  H   UNL     1      43.411   1.542 -11.809  0.00  0.00    +0.000 HD
ENDBRANCH   7  49
BRANCH   7  52
ATOM     51  O   UNL     1      43.084   1.849  -7.972  0.00  0.00    +0.000 OA
ATOM     52  C   UNL     1      43.319   1.877  -9.172  0.00  0.00    +0.000 C 
BRANCH  52  53
ATOM     53  O   UNL     1      44.534   1.534  -9.715  0.00  0.00    +0.000 OA
ATOM     54  C   UNL     1      45.004   0.246  -9.317  0.00  0.00    +0.000 C 
ENDBRANCH  52  53
ENDBRANCH   7  52
BRANCH  20  55
ATOM     55  O   UNL     1      39.969   8.876  -8.319  0.00  0.00    +0.000 OA
ATOM     56  C   UNL     1      41.182   9.557  -8.629  0.00  0.00    +0.000 C 
ENDBRANCH  20  55
BRANCH   6  57
ATOM     57  C   UNL     1      40.209   1.933 -12.720  0.00  0.00    +0.000 C 
ATOM     58  C   UNL     1      39.476   3.199 -13.167  0.00  0.00    +0.000 C 
ENDBRANCH   6  57
BRANCH   9  59
ATOM     59  O   UNL     1      41.064   0.232  -9.418  0.00  0.00    +0.000 OA
BRANCH  59  61
ATOM     60  O   UNL     1      40.444  -1.914  -8.912  0.00  0.00    +0.000 OA
ATOM     61  C   UNL     1      41.130  -1.121  -9.540  0.00  0.00    +0.000 C 
ATOM     62  C   UNL     1      42.140  -1.496 -10.579  0.00  0.00    +0.000 C 
ENDBRANCH  59  61
ENDBRANCH   9  59
TORSDOF 12
ENDMDL
MODEL 9
REMARK VINA RESULT:      -5.5     21.626     25.999
REMARK  Name = 
REMARK  19 active torsions:
REMARK  status: ('A' for Active; 'I' for Inactive)
REMARK    1  A    between atoms: O_1  and  C_20
REMARK    2  A    between atoms: O_1  and  C_36
REMARK    3  A    between atoms: O_2  and  C_18
REMARK    4  A    between atoms: O_3  and  C_28
REMARK    5  A    between atoms: O_3  and  C_42
REMARK    6  A    between atoms: O_5  and  C_34
REMARK    7  A    between atoms: O_5  and  C_50
REMARK    8  A    between atoms: O_7  and  C_40
REMARK    9  A    between atoms: O_7  and  C_56
REMARK   10  A    between atoms: O_9  and  C_46
REMARK   11  A    between atoms: N_11  and  C_30
REMARK   12  A    between atoms: C_17  and  C_23
REMARK   13  A    between atoms: C_18  and  C_28
REMARK   14  A    between atoms: C_23  and  C_32
REMARK   15  A    between atoms: C_33  and  C_35
REMARK   16  A    between atoms: C_35  and  C_40
REMARK   17  A    between atoms: C_36  and  C_41
REMARK   18  A    between atoms: C_46  and  C_53
REMARK   19  A    between atoms: C_53  and  C_57
REMARK                            x       y       z     vdW  Elec       q    Type
REMARK                         _______ _______ _______ _____ _____    ______ ____
ROOT
ATOM      1  N   UNL     1      31.195  15.016   0.671  0.00  0.00    +0.000 NA
ATOM      2  N   UNL     1      28.041  16.271   4.025  0.00  0.00    +0.000 N 
ATOM      3  C   UNL     1      29.657  15.666   2.298  0.00  0.00    +0.000 C 
ATOM      4  C   UNL     1      30.262  16.121   0.958  0.00  0.00    +0.000 C 
ATOM      5  C   UNL     1      28.970  16.849   3.010  0.00  0.00    +0.000 C 
ATOM      6  C   UNL     1      30.869  17.599   0.996  0.00  0.00    +0.000 C 
ATOM      7  C   UNL     1      29.891  18.007   3.429  0.00  0.00    +0.000 C 
ATOM      8  C   UNL     1      30.786  14.889   3.003  0.00  0.00    +0.000 C 
ATOM      9  C   UNL     1      31.123  18.135   2.474  0.00  0.00    +0.000 C 
ATOM     10  C   UNL     1      28.449  14.750   2.276  0.00  0.00    +0.000 A 
ATOM     11  C   UNL     1      31.829  14.618   1.922  0.00  0.00    +0.000 C 
ATOM     12  C   UNL     1      27.591  15.110   3.324  0.00  0.00    +0.000 A 
ATOM     13  C   UNL     1      32.196  17.682   0.239  0.00  0.00    +0.000 C 
ATOM     14  C   UNL     1      32.130  15.272  -0.414  0.00  0.00    +0.000 C 
ATOM     15  C   UNL     1      32.741  16.636  -0.398  0.00  0.00    +0.000 C 
ATOM     16  C   UNL     1      28.180  13.671   1.440  0.00  0.00    +0.000 A 
ATOM     17  C   UNL     1      26.970  17.131   4.527  0.00  0.00    +0.000 C 
ATOM     18  C   UNL     1      26.460  14.355   3.570  0.00  0.00    +0.000 A 
ATOM     19  C   UNL     1      27.032  12.885   1.661  0.00  0.00    +0.000 A 
ATOM     20  C   UNL     1      26.187  13.246   2.751  0.00  0.00    +0.000 A 
ENDROOT
BRANCH  19  23
ATOM     21  N   UNL     1      26.401   8.263  -1.919  0.00  0.00    +0.000 NA
ATOM     22  N   UNL     1      26.929  10.310   2.910  0.00  0.00    +0.000 N 
ATOM     23  C   UNL     1      26.691  11.632   0.758  0.00  0.00    +0.000 C 
ATOM     24  C   UNL     1      27.920  11.241  -0.183  0.00  0.00    +0.000 C 
ATOM     25  C   UNL     1      26.374  10.378   1.643  0.00  0.00    +0.000 A 
ATOM     26  C   UNL     1      27.872   9.858  -0.852  0.00  0.00    +0.000 C 
ATOM     27  C   UNL     1      29.138   9.467  -1.613  0.00  0.00    +0.000 C 
ATOM     28  C   UNL     1      26.716   9.677  -1.825  0.00  0.00    +0.000 C 
ATOM     29  C   UNL     1      25.697   9.161   1.449  0.00  0.00    +0.000 A 
ATOM     30  C   UNL     1      29.021   8.041  -2.228  0.00  0.00    +0.000 C 
ATOM     31  C   UNL     1      27.551   7.493  -2.442  0.00  0.00    +0.000 C 
ATOM     32  C   UNL     1      24.964   8.601   0.240  0.00  0.00    +0.000 C 
ATOM     33  C   UNL     1      25.841   7.687  -0.668  0.00  0.00    +0.000 C 
ATOM     34  C   UNL     1      25.835   8.404   2.672  0.00  0.00    +0.000 A 
ATOM     35  C   UNL     1      26.602   9.149   3.554  0.00  0.00    +0.000 A 
ATOM     36  C   UNL     1      25.382   7.134   3.096  0.00  0.00    +0.000 A 
ATOM     37  C   UNL     1      26.940   8.709   4.840  0.00  0.00    +0.000 A 
ATOM     38  C   UNL     1      25.706   6.674   4.378  0.00  0.00    +0.000 A 
ATOM     39  C   UNL     1      26.475   7.453   5.236  0.00  0.00    +0.000 A 
ATOM     40  H   UNL     1      27.493  11.039   3.329  0.00  0.00    +0.000 HD
BRANCH  23  42
ATOM     41  O   UNL     1      24.289  11.761   0.057  0.00  0.00    +0.000 OA
ATOM     42  C   UNL     1      25.462  12.074  -0.104  0.00  0.00    +0.000 C 
BRANCH  42  43
ATOM     43  O   UNL     1      25.873  12.928  -1.101  0.00  0.00    +0.000 OA
ATOM     44  C   UNL     1      25.063  14.095  -1.235  0.00  0.00    +0.000 C 
ENDBRANCH  42  43
ENDBRANCH  23  42
BRANCH  30  45
ATOM     45  O   UNL     1      29.636   8.138  -3.537  0.00  0.00    +0.000 OA
ATOM     46  H   UNL     1      30.232   8.908  -3.522  0.00  0.00    +0.000 HD
ENDBRANCH  30  45
BRANCH  30  47
ATOM     47  C   UNL     1      29.911   7.024  -1.476  0.00  0.00    +0.000 C 
ATOM     48  C   UNL     1      29.537   5.558  -1.619  0.00  0.00    +0.000 C 
ENDBRANCH  30  47
ENDBRANCH  19  23
BRANCH   7  49
ATOM     49  O   UNL     1      29.101  19.224   3.234  0.00  0.00    +0.000 OA
ATOM     50  H   UNL     1      28.430  19.004   2.555  0.00  0.00    +0.000 HD
ENDBRANCH   7  49
BRANCH   7  52
ATOM     51  O   UNL     1      31.056  17.106   5.429  0.00  0.00    +0.000 OA
ATOM     52  C   UNL     1      30.303  17.925   4.920  0.00  0.00    +0.000 C 
BRANCH  52  53
ATOM     53  O   UNL     1      29.752  18.979   5.608  0.00  0.00    +0.000 OA
ATOM     54  C   UNL     1      29.325  18.649   6.931  0.00  0.00    +0.000 C 
ENDBRANCH  52  53
ENDBRANCH   7  52
BRANCH  20  55
ATOM     55  O   UNL     1      25.049  12.502   2.937  0.00  0.00    +0.000 OA
ATOM     56  C   UNL     1      24.361  12.742   4.161  0.00  0.00    +0.000 C 
ENDBRANCH  20  55
BRANCH   6  57
ATOM     57  C   UNL     1      29.890  18.592   0.268  0.00  0.00    +0.000 C 
ATOM     58  C   UNL     1      28.776  17.960  -0.570  0.00  0.00    +0.000 C 
ENDBRANCH   6  57
BRANCH   9  59
ATOM     59  O   UNL     1      32.294  17.466   3.002  0.00  0.00    +0.000 OA
BRANCH  59  61
ATOM     60  O   UNL     1      33.527  19.396   3.058  0.00  0.00    +0.000 OA
ATOM     61  C   UNL     1      33.454  18.175   3.035  0.00  0.00    +0.000 C 
ATOM     62  C   UNL     1      34.626  17.245   3.073  0.00  0.00    +0.000 C 
ENDBRANCH  59  61
ENDBRANCH   9  59
TORSDOF 12
ENDMDL
