MODEL 1
REMARK VINA RESULT:      -5.9      0.000      0.000
REMARK  Name = Vorinostat.pdbqt.pdb
REMARK  6 active torsions:
REMARK  status: ('A' for Active; 'I' for Inactive)
REMARK    1  A    between atoms: C_1  and  C_2
REMARK    2  A    between atoms: C_3  and  C_4
REMARK    3  A    between atoms: C_5  and  C_8
REMARK    4  A    between atoms: N_7  and  O_10
REMARK    5  A    between atoms: C_12  and  C_15
REMARK    6  A    between atoms: N_14  and  C_17
REMARK                            x       y       z     vdW  Elec       q    Type
REMARK                         _______ _______ _______ _____ _____    ______ ____
ROOT
ATOM      1  C   UNL     1      35.912  12.670  21.895  0.00  0.00    +0.000 C 
ATOM      2  C   UNL     1      36.063  14.164  21.596  0.00  0.00    +0.000 C 
ENDROOT
BRANCH   2   5
ATOM      3  O   UNL     1      35.589  16.370  22.007  0.00  0.00    +0.000 OA
ATOM      4  N   UNL     1      37.043  15.853  20.260  0.00  0.00    +0.000 N 
ATOM      5  C   UNL     1      36.203  15.574  21.313  0.00  0.00    +0.000 C 
ATOM      6  H   UNL     1      37.475  15.068  19.789  0.00  0.00    +0.000 HD
BRANCH   4   7
ATOM      7  C   UNL     1      37.353  17.137  19.778  0.00  0.00    +0.000 A 
ATOM      8  C   UNL     1      38.698  17.448  19.574  0.00  0.00    +0.000 A 
ATOM      9  C   UNL     1      36.380  18.096  19.500  0.00  0.00    +0.000 A 
ATOM     10  C   UNL     1      39.066  18.704  19.098  0.00  0.00    +0.000 A 
ATOM     11  C   UNL     1      36.745  19.353  19.024  0.00  0.00    +0.000 A 
ATOM     12  C   UNL     1      38.089  19.657  18.822  0.00  0.00    +0.000 A 
ENDBRANCH   4   7
ENDBRANCH   2   5
BRANCH   1  13
ATOM     13  C   UNL     1      35.760  11.176  22.195  0.00  0.00    +0.000 C 
ATOM     14  C   UNL     1      35.609   9.682  22.496  0.00  0.00    +0.000 C 
BRANCH  14  15
ATOM     15  C   UNL     1      35.459   8.188  22.797  0.00  0.00    +0.000 C 
ATOM     16  C   UNL     1      35.308   6.694  23.099  0.00  0.00    +0.000 C 
BRANCH  16  19
ATOM     17  O   UNL     1      35.790   4.776  24.303  0.00  0.00    +0.000 OA
ATOM     18  N   UNL     1      34.300   4.603  22.579  0.00  0.00    +0.000 N 
ATOM     19  C   UNL     1      35.165   5.291  23.384  0.00  0.00    +0.000 C 
ATOM     20  H   UNL     1      33.745   5.019  21.841  0.00  0.00    +0.000 HD
BRANCH  18  21
ATOM     21  O   UNL     1      34.107   3.230  22.848  0.00  0.00    +0.000 OA
ATOM     22  H   UNL     1      34.556   3.115  23.715  0.00  0.00    +0.000 HD
ENDBRANCH  18  21
ENDBRANCH  16  19
ENDBRANCH  14  15
ENDBRANCH   1  13
TORSDOF 6
ENDMDL
MODEL 2
REMARK VINA RESULT:      -5.7      3.008     11.743
REMARK  Name = Vorinostat.pdbqt.pdb
REMARK  6 active torsions:
REMARK  status: ('A' for Active; 'I' for Inactive)
REMARK    1  A    between atoms: C_1  and  C_2
REMARK    2  A    between atoms: C_3  and  C_4
REMARK    3  A    between atoms: C_5  and  C_8
REMARK    4  A    between atoms: N_7  and  O_10
REMARK    5  A    between atoms: C_12  and  C_15
REMARK    6  A    between atoms: N_14  and  C_17
REMARK                            x       y       z     vdW  Elec       q    Type
REMARK                         _______ _______ _______ _____ _____    ______ ____
ROOT
ATOM      1  C   UNL     1      35.183  11.299  21.936  0.00  0.00    +0.000 C 
ATOM      2  C   UNL     1      34.566   9.989  22.435  0.00  0.00    +0.000 C 
ENDROOT
BRANCH   2   5
ATOM      3  O   UNL     1      34.023   8.512  24.103  0.00  0.00    +0.000 OA
ATOM      4  N   UNL     1      33.434   7.978  21.911  0.00  0.00    +0.000 N 
ATOM      5  C   UNL     1      33.982   8.754  22.906  0.00  0.00    +0.000 C 
ATOM      6  H   UNL     1      33.487   8.331  20.964  0.00  0.00    +0.000 HD
BRANCH   4   7
ATOM      7  C   UNL     1      32.805   6.735  22.096  0.00  0.00    +0.000 A 
ATOM      8  C   UNL     1      31.437   6.651  21.833  0.00  0.00    +0.000 A 
ATOM      9  C   UNL     1      33.489   5.598  22.526  0.00  0.00    +0.000 A 
ATOM     10  C   UNL     1      30.760   5.445  21.998  0.00  0.00    +0.000 A 
ATOM     11  C   UNL     1      32.814   4.390  22.692  0.00  0.00    +0.000 A 
ATOM     12  C   UNL     1      31.450   4.314  22.427  0.00  0.00    +0.000 A 
ENDBRANCH   4   7
ENDBRANCH   2   5
BRANCH   1  13
ATOM     13  C   UNL     1      35.798  12.609  21.436  0.00  0.00    +0.000 C 
ATOM     14  C   UNL     1      36.413  13.920  20.936  0.00  0.00    +0.000 C 
BRANCH  14  15
ATOM     15  C   UNL     1      37.028  15.229  20.435  0.00  0.00    +0.000 C 
ATOM     16  C   UNL     1      37.643  16.540  19.933  0.00  0.00    +0.000 C 
BRANCH  16  19
ATOM     17  O   UNL     1      39.430  17.942  19.490  0.00  0.00    +0.000 OA
ATOM     18  N   UNL     1      37.334  18.699  18.986  0.00  0.00    +0.000 N 
ATOM     19  C   UNL     1      38.218  17.770  19.460  0.00  0.00    +0.000 C 
ATOM     20  H   UNL     1      36.334  18.559  18.916  0.00  0.00    +0.000 HD
BRANCH  18  21
ATOM     21  O   UNL     1      37.863  19.908  18.482  0.00  0.00    +0.000 OA
ATOM     22  H   UNL     1      38.291  20.302  19.273  0.00  0.00    +0.000 HD
ENDBRANCH  18  21
ENDBRANCH  16  19
ENDBRANCH  14  15
ENDBRANCH   1  13
TORSDOF 6
ENDMDL
MODEL 3
REMARK VINA RESULT:      -5.7      3.079     11.678
REMARK  Name = Vorinostat.pdbqt.pdb
REMARK  6 active torsions:
REMARK  status: ('A' for Active; 'I' for Inactive)
REMARK    1  A    between atoms: C_1  and  C_2
REMARK    2  A    between atoms: C_3  and  C_4
REMARK    3  A    between atoms: C_5  and  C_8
REMARK    4  A    between atoms: N_7  and  O_10
REMARK    5  A    between atoms: C_12  and  C_15
REMARK    6  A    between atoms: N_14  and  C_17
REMARK                            x       y       z     vdW  Elec       q    Type
REMARK                         _______ _______ _______ _____ _____    ______ ____
ROOT
ATOM      1  C   UNL     1      35.006  11.623  21.910  0.00  0.00    +0.000 C 
ATOM      2  C   UNL     1      34.368  10.326  22.414  0.00  0.00    +0.000 C 
ENDROOT
BRANCH   2   5
ATOM      3  O   UNL     1      33.635   8.949  24.094  0.00  0.00    +0.000 OA
ATOM      4  N   UNL     1      33.403   8.230  21.890  0.00  0.00    +0.000 N 
ATOM      5  C   UNL     1      33.766   9.102  22.890  0.00  0.00    +0.000 C 
ATOM      6  H   UNL     1      33.585   8.515  20.935  0.00  0.00    +0.000 HD
BRANCH   4   7
ATOM      7  C   UNL     1      32.801   6.974  22.077  0.00  0.00    +0.000 A 
ATOM      8  C   UNL     1      33.600   5.933  22.551  0.00  0.00    +0.000 A 
ATOM      9  C   UNL     1      31.453   6.734  21.811  0.00  0.00    +0.000 A 
ATOM     10  C   UNL     1      33.059   4.666  22.757  0.00  0.00    +0.000 A 
ATOM     11  C   UNL     1      30.909   5.468  22.016  0.00  0.00    +0.000 A 
ATOM     12  C   UNL     1      31.712   4.434  22.489  0.00  0.00    +0.000 A 
ENDBRANCH   4   7
ENDBRANCH   2   5
BRANCH   1  13
ATOM     13  C   UNL     1      35.644  12.922  21.408  0.00  0.00    +0.000 C 
ATOM     14  C   UNL     1      36.281  14.221  20.905  0.00  0.00    +0.000 C 
BRANCH  14  15
ATOM     15  C   UNL     1      36.918  15.519  20.402  0.00  0.00    +0.000 C 
ATOM     16  C   UNL     1      37.555  16.819  19.899  0.00  0.00    +0.000 C 
BRANCH  16  19
ATOM     17  O   UNL     1      39.368  18.189  19.459  0.00  0.00    +0.000 OA
ATOM     18  N   UNL     1      37.286  18.985  18.955  0.00  0.00    +0.000 N 
ATOM     19  C   UNL     1      38.152  18.040  19.429  0.00  0.00    +0.000 C 
ATOM     20  H   UNL     1      36.283  18.863  18.884  0.00  0.00    +0.000 HD
BRANCH  18  21
ATOM     21  O   UNL     1      37.836  20.184  18.453  0.00  0.00    +0.000 OA
ATOM     22  H   UNL     1      37.292  20.354  17.653  0.00  0.00    +0.000 HD
ENDBRANCH  18  21
ENDBRANCH  16  19
ENDBRANCH  14  15
ENDBRANCH   1  13
TORSDOF 6
ENDMDL
MODEL 4
REMARK VINA RESULT:      -5.5      2.771      2.840
REMARK  Name = Vorinostat.pdbqt.pdb
REMARK  6 active torsions:
REMARK  status: ('A' for Active; 'I' for Inactive)
REMARK    1  A    between atoms: C_1  and  C_2
REMARK    2  A    between atoms: C_3  and  C_4
REMARK    3  A    between atoms: C_5  and  C_8
REMARK    4  A    between atoms: N_7  and  O_10
REMARK    5  A    between atoms: C_12  and  C_15
REMARK    6  A    between atoms: N_14  and  C_17
REMARK                            x       y       z     vdW  Elec       q    Type
REMARK                         _______ _______ _______ _____ _____    ______ ____
ROOT
ATOM      1  C   UNL     1      34.444  13.248  21.634  0.00  0.00    +0.000 C 
ATOM      2  C   UNL     1      35.185  14.581  21.490  0.00  0.00    +0.000 C 
ENDROOT
BRANCH   2   5
ATOM      3  O   UNL     1      35.932  16.584  22.320  0.00  0.00    +0.000 OA
ATOM      4  N   UNL     1      36.426  16.045  20.106  0.00  0.00    +0.000 N 
ATOM      5  C   UNL     1      35.883  15.838  21.354  0.00  0.00    +0.000 C 
ATOM      6  H   UNL     1      36.292  15.318  19.415  0.00  0.00    +0.000 HD
BRANCH   4   7
ATOM      7  C   UNL     1      37.153  17.180  19.708  0.00  0.00    +0.000 A 
ATOM      8  C   UNL     1      38.541  17.067  19.618  0.00  0.00    +0.000 A 
ATOM      9  C   UNL     1      36.545  18.398  19.403  0.00  0.00    +0.000 A 
ATOM     10  C   UNL     1      39.314  18.159  19.229  0.00  0.00    +0.000 A 
ATOM     11  C   UNL     1      37.316  19.491  19.012  0.00  0.00    +0.000 A 
ATOM     12  C   UNL     1      38.700  19.371  18.925  0.00  0.00    +0.000 A 
ENDBRANCH   4   7
ENDBRANCH   2   5
BRANCH   1  13
ATOM     13  C   UNL     1      33.702  11.917  21.779  0.00  0.00    +0.000 C 
ATOM     14  C   UNL     1      32.960  10.584  21.924  0.00  0.00    +0.000 C 
BRANCH  14  15
ATOM     15  C   UNL     1      32.218   9.253  22.068  0.00  0.00    +0.000 C 
ATOM     16  C   UNL     1      31.476   7.921  22.213  0.00  0.00    +0.000 C 
BRANCH  16  19
ATOM     17  O   UNL     1      30.805   5.841  21.449  0.00  0.00    +0.000 OA
ATOM     18  N   UNL     1      30.106   6.488  23.526  0.00  0.00    +0.000 N 
ATOM     19  C   UNL     1      30.776   6.671  22.349  0.00  0.00    +0.000 C 
ATOM     20  H   UNL     1      30.104   7.145  24.297  0.00  0.00    +0.000 HD
BRANCH  18  21
ATOM     21  O   UNL     1      29.434   5.260  23.712  0.00  0.00    +0.000 OA
ATOM     22  H   UNL     1      30.135   4.686  24.093  0.00  0.00    +0.000 HD
ENDBRANCH  18  21
ENDBRANCH  16  19
ENDBRANCH  14  15
ENDBRANCH   1  13
TORSDOF 6
ENDMDL
MODEL 5
REMARK VINA RESULT:      -5.3     18.425     23.758
REMARK  Name = Vorinostat.pdbqt.pdb
REMARK  6 active torsions:
REMARK  status: ('A' for Active; 'I' for Inactive)
REMARK    1  A    between atoms: C_1  and  C_2
REMARK    2  A    between atoms: C_3  and  C_4
REMARK    3  A    between atoms: C_5  and  C_8
REMARK    4  A    between atoms: N_7  and  O_10
REMARK    5  A    between atoms: C_12  and  C_15
REMARK    6  A    between atoms: N_14  and  C_17
REMARK                            x       y       z     vdW  Elec       q    Type
REMARK                         _______ _______ _______ _____ _____    ______ ____
ROOT
ATOM      1  C   UNL     1      44.742  -5.320  13.675  0.00  0.00    +0.000 C 
ATOM      2  C   UNL     1      45.500  -6.611  13.354  0.00  0.00    +0.000 C 
ENDROOT
BRANCH   2   5
ATOM      3  O   UNL     1      46.425  -8.620  13.960  0.00  0.00    +0.000 OA
ATOM      4  N   UNL     1      46.582  -7.952  11.732  0.00  0.00    +0.000 N 
ATOM      5  C   UNL     1      46.215  -7.830  13.052  0.00  0.00    +0.000 C 
ATOM      6  H   UNL     1      46.326  -7.198  11.107  0.00  0.00    +0.000 HD
BRANCH   4   7
ATOM      7  C   UNL     1      47.283  -9.035  11.174  0.00  0.00    +0.000 A 
ATOM      8  C   UNL     1      48.671  -8.926  11.068  0.00  0.00    +0.000 A 
ATOM      9  C   UNL     1      46.653 -10.196  10.730  0.00  0.00    +0.000 A 
ATOM     10  C   UNL     1      49.419  -9.967  10.523  0.00  0.00    +0.000 A 
ATOM     11  C   UNL     1      47.399 -11.240  10.185  0.00  0.00    +0.000 A 
ATOM     12  C   UNL     1      48.783 -11.124  10.082  0.00  0.00    +0.000 A 
ENDBRANCH   4   7
ENDBRANCH   2   5
BRANCH   1  13
ATOM     13  C   UNL     1      43.982  -4.030  13.995  0.00  0.00    +0.000 C 
ATOM     14  C   UNL     1      43.222  -2.739  14.315  0.00  0.00    +0.000 C 
BRANCH  14  15
ATOM     15  C   UNL     1      42.463  -1.448  14.635  0.00  0.00    +0.000 C 
ATOM     16  C   UNL     1      41.703  -0.157  14.955  0.00  0.00    +0.000 C 
BRANCH  16  19
ATOM     17  O   UNL     1      41.241   1.692  16.268  0.00  0.00    +0.000 OA
ATOM     18  N   UNL     1      40.041   1.429  14.342  0.00  0.00    +0.000 N 
ATOM     19  C   UNL     1      40.988   1.055  15.253  0.00  0.00    +0.000 C 
ATOM     20  H   UNL     1      39.846   0.938  13.478  0.00  0.00    +0.000 HD
BRANCH  18  21
ATOM     21  O   UNL     1      39.340   2.631  14.582  0.00  0.00    +0.000 OA
ATOM     22  H   UNL     1      39.850   3.287  14.059  0.00  0.00    +0.000 HD
ENDBRANCH  18  21
ENDBRANCH  16  19
ENDBRANCH  14  15
ENDBRANCH   1  13
TORSDOF 6
ENDMDL
MODEL 6
REMARK VINA RESULT:      -5.3     10.239     13.123
REMARK  Name = Vorinostat.pdbqt.pdb
REMARK  6 active torsions:
REMARK  status: ('A' for Active; 'I' for Inactive)
REMARK    1  A    between atoms: C_1  and  C_2
REMARK    2  A    between atoms: C_3  and  C_4
REMARK    3  A    between atoms: C_5  and  C_8
REMARK    4  A    between atoms: N_7  and  O_10
REMARK    5  A    between atoms: C_12  and  C_15
REMARK    6  A    between atoms: N_14  and  C_17
REMARK                            x       y       z     vdW  Elec       q    Type
REMARK                         _______ _______ _______ _____ _____    ______ ____
ROOT
ATOM      1  C   UNL     1      39.845   2.843  19.482  0.00  0.00    +0.000 C 
ATOM      2  C   UNL     1      39.809   3.535  20.848  0.00  0.00    +0.000 C 
ENDROOT
BRANCH   2   5
ATOM      3  O   UNL     1      38.686   4.500  22.599  0.00  0.00    +0.000 OA
ATOM      4  N   UNL     1      41.012   4.384  22.700  0.00  0.00    +0.000 N 
ATOM      5  C   UNL     1      39.772   4.189  22.136  0.00  0.00    +0.000 C 
ATOM      6  H   UNL     1      41.817   4.063  22.176  0.00  0.00    +0.000 HD
BRANCH   4   7
ATOM      7  C   UNL     1      41.259   4.994  23.942  0.00  0.00    +0.000 A 
ATOM      8  C   UNL     1      41.110   4.216  25.090  0.00  0.00    +0.000 A 
ATOM      9  C   UNL     1      41.643   6.329  24.065  0.00  0.00    +0.000 A 
ATOM     10  C   UNL     1      41.341   4.766  26.349  0.00  0.00    +0.000 A 
ATOM     11  C   UNL     1      41.876   6.881  25.324  0.00  0.00    +0.000 A 
ATOM     12  C   UNL     1      41.725   6.099  26.465  0.00  0.00    +0.000 A 
ENDBRANCH   4   7
ENDBRANCH   2   5
BRANCH   1  13
ATOM     13  C   UNL     1      39.881   2.150  18.117  0.00  0.00    +0.000 C 
ATOM     14  C   UNL     1      39.917   1.456  16.752  0.00  0.00    +0.000 C 
BRANCH  14  15
ATOM     15  C   UNL     1      39.954   0.763  15.387  0.00  0.00    +0.000 C 
ATOM     16  C   UNL     1      39.991   0.069  14.022  0.00  0.00    +0.000 C 
BRANCH  16  19
ATOM     17  O   UNL     1      39.152  -1.384  12.427  0.00  0.00    +0.000 OA
ATOM     18  N   UNL     1      41.072  -0.250  11.928  0.00  0.00    +0.000 N 
ATOM     19  C   UNL     1      40.025  -0.585  12.741  0.00  0.00    +0.000 C 
ATOM     20  H   UNL     1      41.780   0.437  12.154  0.00  0.00    +0.000 HD
BRANCH  18  21
ATOM     21  O   UNL     1      41.123  -0.846  10.649  0.00  0.00    +0.000 OA
ATOM     22  H   UNL     1      40.231  -1.250  10.563  0.00  0.00    +0.000 HD
ENDBRANCH  18  21
ENDBRANCH  16  19
ENDBRANCH  14  15
ENDBRANCH   1  13
TORSDOF 6
ENDMDL
MODEL 7
REMARK VINA RESULT:      -5.2     23.168     25.116
REMARK  Name = Vorinostat.pdbqt.pdb
REMARK  6 active torsions:
REMARK  status: ('A' for Active; 'I' for Inactive)
REMARK    1  A    between atoms: C_1  and  C_2
REMARK    2  A    between atoms: C_3  and  C_4
REMARK    3  A    between atoms: C_5  and  C_8
REMARK    4  A    between atoms: N_7  and  O_10
REMARK    5  A    between atoms: C_12  and  C_15
REMARK    6  A    between atoms: N_14  and  C_17
REMARK                            x       y       z     vdW  Elec       q    Type
REMARK                         _______ _______ _______ _____ _____    ______ ____
ROOT
ATOM      1  C   UNL     1      52.216   8.485   5.634  0.00  0.00    +0.000 C 
ATOM      2  C   UNL     1      51.703   8.331   7.069  0.00  0.00    +0.000 C 
ENDROOT
BRANCH   2   5
ATOM      3  O   UNL     1      50.583   9.106   8.913  0.00  0.00    +0.000 OA
ATOM      4  N   UNL     1      51.540   6.983   9.007  0.00  0.00    +0.000 N 
ATOM      5  C   UNL     1      51.217   8.185   8.422  0.00  0.00    +0.000 C 
ATOM      6  H   UNL     1      52.076   6.326   8.453  0.00  0.00    +0.000 HD
BRANCH   4   7
ATOM      7  C   UNL     1      51.192   6.587  10.310  0.00  0.00    +0.000 A 
ATOM      8  C   UNL     1      51.700   7.333  11.374  0.00  0.00    +0.000 A 
ATOM      9  C   UNL     1      50.370   5.492  10.572  0.00  0.00    +0.000 A 
ATOM     10  C   UNL     1      51.389   6.987  12.688  0.00  0.00    +0.000 A 
ATOM     11  C   UNL     1      50.057   5.145  11.886  0.00  0.00    +0.000 A 
ATOM     12  C   UNL     1      50.567   5.893  12.943  0.00  0.00    +0.000 A 
ENDBRANCH   4   7
ENDBRANCH   2   5
BRANCH   1  13
ATOM     13  C   UNL     1      52.730   8.636   4.200  0.00  0.00    +0.000 C 
ATOM     14  C   UNL     1      53.243   8.787   2.764  0.00  0.00    +0.000 C 
BRANCH  14  15
ATOM     15  C   UNL     1      53.757   8.937   1.330  0.00  0.00    +0.000 C 
ATOM     16  C   UNL     1      54.270   9.088  -0.106  0.00  0.00    +0.000 C 
BRANCH  16  19
ATOM     17  O   UNL     1      55.693   8.558  -1.853  0.00  0.00    +0.000 OA
ATOM     18  N   UNL     1      54.090  10.142  -2.230  0.00  0.00    +0.000 N 
ATOM     19  C   UNL     1      54.750   9.231  -1.454  0.00  0.00    +0.000 C 
ATOM     20  H   UNL     1      53.284  10.677  -1.930  0.00  0.00    +0.000 HD
BRANCH  18  21
ATOM     21  O   UNL     1      54.510  10.288  -3.570  0.00  0.00    +0.000 OA
ATOM     22  H   UNL     1      55.027   9.467  -3.724  0.00  0.00    +0.000 HD
ENDBRANCH  18  21
ENDBRANCH  16  19
ENDBRANCH  14  15
ENDBRANCH   1  13
TORSDOF 6
ENDMDL
MODEL 8
REMARK VINA RESULT:      -5.1     10.243     14.081
REMARK  Name = Vorinostat.pdbqt.pdb
REMARK  6 active torsions:
REMARK  status: ('A' for Active; 'I' for Inactive)
REMARK    1  A    between atoms: C_1  and  C_2
REMARK    2  A    between atoms: C_3  and  C_4
REMARK    3  A    between atoms: C_5  and  C_8
REMARK    4  A    between atoms: N_7  and  O_10
REMARK    5  A    between atoms: C_12  and  C_15
REMARK    6  A    between atoms: N_14  and  C_17
REMARK                            x       y       z     vdW  Elec       q    Type
REMARK                         _______ _______ _______ _____ _____    ______ ____
ROOT
ATOM      1  C   UNL     1      39.881   3.281  20.072  0.00  0.00    +0.000 C 
ATOM      2  C   UNL     1      39.385   2.398  18.923  0.00  0.00    +0.000 C 
ENDROOT
BRANCH   2   5
ATOM      3  O   UNL     1      37.792   1.100  17.907  0.00  0.00    +0.000 OA
ATOM      4  N   UNL     1      39.834   1.400  16.825  0.00  0.00    +0.000 N 
ATOM      5  C   UNL     1      38.918   1.567  17.838  0.00  0.00    +0.000 C 
ATOM      6  H   UNL     1      40.730   1.861  16.928  0.00  0.00    +0.000 HD
BRANCH   4   7
ATOM      7  C   UNL     1      39.636   0.643  15.658  0.00  0.00    +0.000 A 
ATOM      8  C   UNL     1      39.525  -0.742  15.791  0.00  0.00    +0.000 A 
ATOM      9  C   UNL     1      39.546   1.217  14.390  0.00  0.00    +0.000 A 
ATOM     10  C   UNL     1      39.328  -1.545  14.670  0.00  0.00    +0.000 A 
ATOM     11  C   UNL     1      39.348   0.416  13.267  0.00  0.00    +0.000 A 
ATOM     12  C   UNL     1      39.239  -0.965  13.407  0.00  0.00    +0.000 A 
ENDBRANCH   4   7
ENDBRANCH   2   5
BRANCH   1  13
ATOM     13  C   UNL     1      40.378   4.163  21.220  0.00  0.00    +0.000 C 
ATOM     14  C   UNL     1      40.875   5.045  22.370  0.00  0.00    +0.000 C 
BRANCH  14  15
ATOM     15  C   UNL     1      41.371   5.928  23.518  0.00  0.00    +0.000 C 
ATOM     16  C   UNL     1      41.867   6.810  24.668  0.00  0.00    +0.000 C 
BRANCH  16  19
ATOM     17  O   UNL     1      42.462   7.173  26.876  0.00  0.00    +0.000 OA
ATOM     18  N   UNL     1      42.614   8.936  25.430  0.00  0.00    +0.000 N 
ATOM     19  C   UNL     1      42.332   7.637  25.750  0.00  0.00    +0.000 C 
ATOM     20  H   UNL     1      42.552   9.326  24.497  0.00  0.00    +0.000 HD
BRANCH  18  21
ATOM     21  O   UNL     1      43.105   9.771  26.457  0.00  0.00    +0.000 OA
ATOM     22  H   UNL     1      43.509  10.514  25.957  0.00  0.00    +0.000 HD
ENDBRANCH  18  21
ENDBRANCH  16  19
ENDBRANCH  14  15
ENDBRANCH   1  13
TORSDOF 6
ENDMDL
MODEL 9
REMARK VINA RESULT:      -4.9     10.176     14.809
REMARK  Name = Vorinostat.pdbqt.pdb
REMARK  6 active torsions:
REMARK  status: ('A' for Active; 'I' for Inactive)
REMARK    1  A    between atoms: C_1  and  C_2
REMARK    2  A    between atoms: C_3  and  C_4
REMARK    3  A    between atoms: C_5  and  C_8
REMARK    4  A    between atoms: N_7  and  O_10
REMARK    5  A    between atoms: C_12  and  C_15
REMARK    6  A    between atoms: N_14  and  C_17
REMARK                            x       y       z     vdW  Elec       q    Type
REMARK                         _______ _______ _______ _____ _____    ______ ____
ROOT
ATOM      1  C   UNL     1      39.672   2.422  17.983  0.00  0.00    +0.000 C 
ATOM      2  C   UNL     1      39.804   1.825  16.579  0.00  0.00    +0.000 C 
ENDROOT
BRANCH   2   5
ATOM      3  O   UNL     1      39.443   1.875  14.315  0.00  0.00    +0.000 OA
ATOM      4  N   UNL     1      40.606   0.066  15.214  0.00  0.00    +0.000 N 
ATOM      5  C   UNL     1      39.929   1.264  15.254  0.00  0.00    +0.000 C 
ATOM      6  H   UNL     1      40.946  -0.305  16.093  0.00  0.00    +0.000 HD
BRANCH   4   7
ATOM      7  C   UNL     1      40.866  -0.689  14.058  0.00  0.00    +0.000 A 
ATOM      8  C   UNL     1      39.802  -1.384  13.482  0.00  0.00    +0.000 A 
ATOM      9  C   UNL     1      42.130  -0.768  13.475  0.00  0.00    +0.000 A 
ATOM     10  C   UNL     1      39.999  -2.150  12.335  0.00  0.00    +0.000 A 
ATOM     11  C   UNL     1      42.329  -1.533  12.327  0.00  0.00    +0.000 A 
ATOM     12  C   UNL     1      41.263  -2.224  11.757  0.00  0.00    +0.000 A 
ENDBRANCH   4   7
ENDBRANCH   2   5
BRANCH   1  13
ATOM     13  C   UNL     1      39.541   3.020  19.387  0.00  0.00    +0.000 C 
ATOM     14  C   UNL     1      39.410   3.619  20.791  0.00  0.00    +0.000 C 
BRANCH  14  15
ATOM     15  C   UNL     1      39.280   4.218  22.194  0.00  0.00    +0.000 C 
ATOM     16  C   UNL     1      39.149   4.818  23.597  0.00  0.00    +0.000 C 
BRANCH  16  19
ATOM     17  O   UNL     1      39.263   4.707  25.906  0.00  0.00    +0.000 OA
ATOM     18  N   UNL     1      38.643   6.695  24.967  0.00  0.00    +0.000 N 
ATOM     19  C   UNL     1      39.026   5.384  24.914  0.00  0.00    +0.000 C 
ATOM     20  H   UNL     1      38.482   7.281  24.158  0.00  0.00    +0.000 HD
BRANCH  18  21
ATOM     21  O   UNL     1      38.543   7.296  26.241  0.00  0.00    +0.000 OA
ATOM     22  H   UNL     1      37.607   7.593  26.267  0.00  0.00    +0.000 HD
ENDBRANCH  18  21
ENDBRANCH  16  19
ENDBRANCH  14  15
ENDBRANCH   1  13
TORSDOF 6
ENDMDL
