MODEL 1
REMARK VINA RESULT:      -7.0      0.000      0.000
REMARK  Name = 10074640_Masitinib.pdbqt.pdb
REMARK  6 active torsions:
REMARK  status: ('A' for Active; 'I' for Inactive)
REMARK    1  A    between atoms: C_1  and  N_22
REMARK    2  A    between atoms: C_2  and  N_9
REMARK    3  A    between atoms: C_12  and  C_16
REMARK    4  A    between atoms: C_23  and  C_30
REMARK    5  A    between atoms: C_25  and  C_31
REMARK    6  A    between atoms: C_31  and  N_32
REMARK                            x       y       z     vdW  Elec       q    Type
REMARK                         _______ _______ _______ _____ _____    ______ ____
ROOT
ATOM      1  C   UNL     1       1.882 -13.474  18.686  0.00  0.00    +0.000 A 
ATOM      2  C   UNL     1       3.813 -13.598  17.183  0.00  0.00    +0.000 A 
ATOM      3  C   UNL     1       2.527 -14.002  17.566  0.00  0.00    +0.000 A 
ATOM      4  C   UNL     1       4.443 -12.623  17.981  0.00  0.00    +0.000 A 
ATOM      5  C   UNL     1       2.524 -12.494  19.439  0.00  0.00    +0.000 A 
ATOM      6  C   UNL     1       3.807 -12.075  19.095  0.00  0.00    +0.000 A 
ATOM      7  C   UNL     1       5.839 -12.137  17.646  0.00  0.00    +0.000 C 
ENDROOT
BRANCH   2   9
ATOM      8  S   UNL     1       5.194 -14.401  13.477  0.00  0.00    +0.000 S 
ATOM      9  N   UNL     1       4.444 -14.106  16.023  0.00  0.00    +0.000 N 
ATOM     10  N   UNL     1       4.033 -12.343  14.479  0.00  0.00    +0.000 NA
ATOM     11  C   UNL     1       4.479 -13.539  14.796  0.00  0.00    +0.000 A 
ATOM     12  C   UNL     1       4.219 -12.082  13.135  0.00  0.00    +0.000 A 
ATOM     13  C   UNL     1       4.834 -13.100  12.448  0.00  0.00    +0.000 A 
ATOM     14  H   UNL     1       4.930 -14.987  16.175  0.00  0.00    +0.000 HD
BRANCH  12  16
ATOM     15  N   UNL     1       4.147  -8.443  12.302  0.00  0.00    +0.000 NA
ATOM     16  C   UNL     1       3.807 -10.832  12.536  0.00  0.00    +0.000 A 
ATOM     17  C   UNL     1       2.761 -10.765  11.619  0.00  0.00    +0.000 A 
ATOM     18  C   UNL     1       4.458  -9.646  12.845  0.00  0.00    +0.000 A 
ATOM     19  C   UNL     1       2.402  -9.549  11.049  0.00  0.00    +0.000 A 
ATOM     20  C   UNL     1       3.123  -8.428  11.422  0.00  0.00    +0.000 A 
ENDBRANCH  12  16
ENDBRANCH   2   9
BRANCH   1  22
ATOM     21  O   UNL     1       0.891 -16.171  19.113  0.00  0.00    +0.000 OA
ATOM     22  N   UNL     1       0.589 -13.870  19.081  0.00  0.00    +0.000 N 
ATOM     23  C   UNL     1       0.172 -15.185  19.221  0.00  0.00    +0.000 C 
ATOM     24  H   UNL     1      -0.059 -13.122  19.303  0.00  0.00    +0.000 HD
BRANCH  23  30
ATOM     25  C   UNL     1      -3.952 -15.682  20.211  0.00  0.00    +0.000 A 
ATOM     26  C   UNL     1      -3.158 -16.810  20.022  0.00  0.00    +0.000 A 
ATOM     27  C   UNL     1      -3.407 -14.408  20.075  0.00  0.00    +0.000 A 
ATOM     28  C   UNL     1      -1.812 -16.663  19.695  0.00  0.00    +0.000 A 
ATOM     29  C   UNL     1      -2.061 -14.263  19.747  0.00  0.00    +0.000 A 
ATOM     30  C   UNL     1      -1.259 -15.390  19.554  0.00  0.00    +0.000 A 
BRANCH  25  31
ATOM     31  C   UNL     1      -5.330 -15.832  20.548  0.00  0.00    +0.000 C 
BRANCH  31  32
ATOM     32  N   UNL     1      -6.737 -15.984  20.894  0.00  0.00    +0.000 N 
ATOM     33  N   UNL     1      -8.211 -19.078  19.964  0.00  0.00    +0.000 N 
ATOM     34  C   UNL     1      -7.441 -16.423  19.657  0.00  0.00    +0.000 C 
ATOM     35  C   UNL     1      -6.868 -17.284  21.611  0.00  0.00    +0.000 C 
ATOM     36  C   UNL     1      -8.094 -17.775  19.253  0.00  0.00    +0.000 C 
ATOM     37  C   UNL     1      -7.520 -18.636  21.207  0.00  0.00    +0.000 C 
ATOM     38  C   UNL     1      -9.616 -19.257  20.299  0.00  0.00    +0.000 C 
ENDBRANCH  31  32
ENDBRANCH  25  31
ENDBRANCH  23  30
ENDBRANCH   1  22
TORSDOF 6
ENDMDL
MODEL 2
REMARK VINA RESULT:      -6.9      4.133     12.285
REMARK  Name = 10074640_Masitinib.pdbqt.pdb
REMARK  6 active torsions:
REMARK  status: ('A' for Active; 'I' for Inactive)
REMARK    1  A    between atoms: C_1  and  N_22
REMARK    2  A    between atoms: C_2  and  N_9
REMARK    3  A    between atoms: C_12  and  C_16
REMARK    4  A    between atoms: C_23  and  C_30
REMARK    5  A    between atoms: C_25  and  C_31
REMARK    6  A    between atoms: C_31  and  N_32
REMARK                            x       y       z     vdW  Elec       q    Type
REMARK                         _______ _______ _______ _____ _____    ______ ____
ROOT
ATOM      1  C   UNL     1       2.903 -14.903  13.048  0.00  0.00    +0.000 A 
ATOM      2  C   UNL     1       2.819 -16.975  14.351  0.00  0.00    +0.000 A 
ATOM      3  C   UNL     1       3.146 -15.619  14.222  0.00  0.00    +0.000 A 
ATOM      4  C   UNL     1       2.228 -17.602  13.237  0.00  0.00    +0.000 A 
ATOM      5  C   UNL     1       2.294 -15.547  11.973  0.00  0.00    +0.000 A 
ATOM      6  C   UNL     1       1.966 -16.897  12.062  0.00  0.00    +0.000 A 
ATOM      7  C   UNL     1       1.853 -19.070  13.286  0.00  0.00    +0.000 C 
ENDROOT
BRANCH   2   9
ATOM      8  S   UNL     1       2.913 -18.383  18.132  0.00  0.00    +0.000 S 
ATOM      9  N   UNL     1       3.029 -17.685  15.557  0.00  0.00    +0.000 N 
ATOM     10  N   UNL     1       1.393 -16.679  16.961  0.00  0.00    +0.000 NA
ATOM     11  C   UNL     1       2.405 -17.489  16.740  0.00  0.00    +0.000 A 
ATOM     12  C   UNL     1       1.003 -16.717  18.286  0.00  0.00    +0.000 A 
ATOM     13  C   UNL     1       1.730 -17.592  19.057  0.00  0.00    +0.000 A 
ATOM     14  H   UNL     1       3.719 -18.429  15.479  0.00  0.00    +0.000 HD
BRANCH  12  16
ATOM     15  N   UNL     1      -2.385 -15.790  19.554  0.00  0.00    +0.000 NA
ATOM     16  C   UNL     1      -0.088 -15.910  18.785  0.00  0.00    +0.000 A 
ATOM     17  C   UNL     1       0.057 -14.547  19.028  0.00  0.00    +0.000 A 
ATOM     18  C   UNL     1      -1.325 -16.476  19.057  0.00  0.00    +0.000 A 
ATOM     19  C   UNL     1      -1.008 -13.804  19.525  0.00  0.00    +0.000 A 
ATOM     20  C   UNL     1      -2.197 -14.471  19.769  0.00  0.00    +0.000 A 
ENDBRANCH  12  16
ENDBRANCH   2   9
BRANCH   1  22
ATOM     21  O   UNL     1       5.018 -13.724  11.443  0.00  0.00    +0.000 OA
ATOM     22  N   UNL     1       3.224 -13.538  12.905  0.00  0.00    +0.000 N 
ATOM     23  C   UNL     1       4.283 -13.049  12.154  0.00  0.00    +0.000 C 
ATOM     24  H   UNL     1       2.606 -12.883  13.369  0.00  0.00    +0.000 HD
BRANCH  23  30
ATOM     25  C   UNL     1       5.026  -8.849  12.349  0.00  0.00    +0.000 A 
ATOM     26  C   UNL     1       3.711  -9.304  12.281  0.00  0.00    +0.000 A 
ATOM     27  C   UNL     1       6.084  -9.753  12.349  0.00  0.00    +0.000 A 
ATOM     28  C   UNL     1       3.454 -10.671  12.214  0.00  0.00    +0.000 A 
ATOM     29  C   UNL     1       5.825 -11.120  12.280  0.00  0.00    +0.000 A 
ATOM     30  C   UNL     1       4.509 -11.584  12.211  0.00  0.00    +0.000 A 
BRANCH  25  31
ATOM     31  C   UNL     1       5.290  -7.449  12.420  0.00  0.00    +0.000 C 
BRANCH  31  32
ATOM     32  N   UNL     1       5.557  -6.018  12.493  0.00  0.00    +0.000 N 
ATOM     33  N   UNL     1       7.049  -4.897  15.513  0.00  0.00    +0.000 N 
ATOM     34  C   UNL     1       4.973  -5.535  13.775  0.00  0.00    +0.000 C 
ATOM     35  C   UNL     1       6.980  -5.864  12.907  0.00  0.00    +0.000 C 
ATOM     36  C   UNL     1       5.627  -5.035  15.095  0.00  0.00    +0.000 C 
ATOM     37  C   UNL     1       7.633  -5.366  14.227  0.00  0.00    +0.000 C 
ATOM     38  C   UNL     1       7.327  -3.471  15.613  0.00  0.00    +0.000 C 
ENDBRANCH  31  32
ENDBRANCH  25  31
ENDBRANCH  23  30
ENDBRANCH   1  22
TORSDOF 6
ENDMDL
MODEL 3
REMARK VINA RESULT:      -6.8     13.541     17.305
REMARK  Name = 10074640_Masitinib.pdbqt.pdb
REMARK  6 active torsions:
REMARK  status: ('A' for Active; 'I' for Inactive)
REMARK    1  A    between atoms: C_1  and  N_22
REMARK    2  A    between atoms: C_2  and  N_9
REMARK    3  A    between atoms: C_12  and  C_16
REMARK    4  A    between atoms: C_23  and  C_30
REMARK    5  A    between atoms: C_25  and  C_31
REMARK    6  A    between atoms: C_31  and  N_32
REMARK                            x       y       z     vdW  Elec       q    Type
REMARK                         _______ _______ _______ _____ _____    ______ ____
ROOT
ATOM      1  C   UNL     1      -6.164   0.131  22.616  0.00  0.00    +0.000 A 
ATOM      2  C   UNL     1      -8.573  -0.299  22.530  0.00  0.00    +0.000 A 
ATOM      3  C   UNL     1      -7.258  -0.725  22.755  0.00  0.00    +0.000 A 
ATOM      4  C   UNL     1      -8.757   1.046  22.151  0.00  0.00    +0.000 A 
ATOM      5  C   UNL     1      -6.382   1.461  22.263  0.00  0.00    +0.000 A 
ATOM      6  C   UNL     1      -7.675   1.917  22.021  0.00  0.00    +0.000 A 
ATOM      7  C   UNL     1     -10.146   1.587  21.876  0.00  0.00    +0.000 C 
ENDROOT
BRANCH   2   9
ATOM      8  S   UNL     1     -11.521  -3.043  22.268  0.00  0.00    +0.000 S 
ATOM      9  N   UNL     1      -9.682  -1.159  22.714  0.00  0.00    +0.000 N 
ATOM     10  N   UNL     1      -9.361  -2.696  20.927  0.00  0.00    +0.000 NA
ATOM     11  C   UNL     1     -10.044  -2.204  21.937  0.00  0.00    +0.000 A 
ATOM     12  C   UNL     1     -10.023  -3.760  20.347  0.00  0.00    +0.000 A 
ATOM     13  C   UNL     1     -11.214  -4.075  20.955  0.00  0.00    +0.000 A 
ATOM     14  H   UNL     1     -10.231  -0.945  23.544  0.00  0.00    +0.000 HD
BRANCH  12  16
ATOM     15  N   UNL     1      -8.009  -6.207  18.372  0.00  0.00    +0.000 NA
ATOM     16  C   UNL     1      -9.480  -4.471  19.211  0.00  0.00    +0.000 A 
ATOM     17  C   UNL     1      -9.883  -4.193  17.908  0.00  0.00    +0.000 A 
ATOM     18  C   UNL     1      -8.541  -5.477  19.385  0.00  0.00    +0.000 A 
ATOM     19  C   UNL     1      -9.352  -4.908  16.840  0.00  0.00    +0.000 A 
ATOM     20  C   UNL     1      -8.427  -5.897  17.126  0.00  0.00    +0.000 A 
ENDBRANCH  12  16
ENDBRANCH   2   9
BRANCH   1  22
ATOM     21  O   UNL     1      -4.770  -0.105  25.154  0.00  0.00    +0.000 OA
ATOM     22  N   UNL     1      -4.835  -0.283  22.841  0.00  0.00    +0.000 N 
ATOM     23  C   UNL     1      -4.219  -0.327  24.083  0.00  0.00    +0.000 C 
ATOM     24  H   UNL     1      -4.321  -0.595  22.025  0.00  0.00    +0.000 HD
BRANCH  23  30
ATOM     25  C   UNL     1      -0.081  -1.379  24.015  0.00  0.00    +0.000 A 
ATOM     26  C   UNL     1      -0.884  -1.843  25.055  0.00  0.00    +0.000 A 
ATOM     27  C   UNL     1      -0.622  -0.579  23.014  0.00  0.00    +0.000 A 
ATOM     28  C   UNL     1      -2.235  -1.505  25.091  0.00  0.00    +0.000 A 
ATOM     29  C   UNL     1      -1.973  -0.240  23.052  0.00  0.00    +0.000 A 
ATOM     30  C   UNL     1      -2.784  -0.701  24.093  0.00  0.00    +0.000 A 
BRANCH  25  31
ATOM     31  C   UNL     1       1.301  -1.727  23.976  0.00  0.00    +0.000 C 
BRANCH  31  32
ATOM     32  N   UNL     1       2.714  -2.082  23.934  0.00  0.00    +0.000 N 
ATOM     33  N   UNL     1       3.422  -5.553  24.158  0.00  0.00    +0.000 N 
ATOM     34  C   UNL     1       2.970  -2.975  25.098  0.00  0.00    +0.000 C 
ATOM     35  C   UNL     1       2.863  -3.139  22.895  0.00  0.00    +0.000 C 
ATOM     36  C   UNL     1       3.289  -4.494  25.195  0.00  0.00    +0.000 C 
ATOM     37  C   UNL     1       3.181  -4.659  22.993  0.00  0.00    +0.000 C 
ATOM     38  C   UNL     1       4.827  -5.936  24.117  0.00  0.00    +0.000 C 
ENDBRANCH  31  32
ENDBRANCH  25  31
ENDBRANCH  23  30
ENDBRANCH   1  22
TORSDOF 6
ENDMDL
MODEL 4
REMARK VINA RESULT:      -6.7      4.354     11.358
REMARK  Name = 10074640_Masitinib.pdbqt.pdb
REMARK  6 active torsions:
REMARK  status: ('A' for Active; 'I' for Inactive)
REMARK    1  A    between atoms: C_1  and  N_22
REMARK    2  A    between atoms: C_2  and  N_9
REMARK    3  A    between atoms: C_12  and  C_16
REMARK    4  A    between atoms: C_23  and  C_30
REMARK    5  A    between atoms: C_25  and  C_31
REMARK    6  A    between atoms: C_31  and  N_32
REMARK                            x       y       z     vdW  Elec       q    Type
REMARK                         _______ _______ _______ _____ _____    ______ ____
ROOT
ATOM      1  C   UNL     1       1.739 -17.322  16.387  0.00  0.00    +0.000 A 
ATOM      2  C   UNL     1       0.276 -18.266  18.110  0.00  0.00    +0.000 A 
ATOM      3  C   UNL     1       0.769 -17.176  17.381  0.00  0.00    +0.000 A 
ATOM      4  C   UNL     1       0.802 -19.536  17.802  0.00  0.00    +0.000 A 
ATOM      5  C   UNL     1       2.220 -18.595  16.090  0.00  0.00    +0.000 A 
ATOM      6  C   UNL     1       1.761 -19.700  16.802  0.00  0.00    +0.000 A 
ATOM      7  C   UNL     1       0.334 -20.767  18.550  0.00  0.00    +0.000 C 
ENDROOT
BRANCH   2   9
ATOM      8  S   UNL     1      -2.124 -17.183  21.168  0.00  0.00    +0.000 S 
ATOM      9  N   UNL     1      -0.737 -18.117  19.087  0.00  0.00    +0.000 N 
ATOM     10  N   UNL     1      -0.186 -15.986  19.987  0.00  0.00    +0.000 NA
ATOM     11  C   UNL     1      -0.887 -17.098  19.961  0.00  0.00    +0.000 A 
ATOM     12  C   UNL     1      -0.597 -15.160  21.016  0.00  0.00    +0.000 A 
ATOM     13  C   UNL     1      -1.639 -15.666  21.754  0.00  0.00    +0.000 A 
ATOM     14  H   UNL     1      -1.419 -18.873  19.086  0.00  0.00    +0.000 HD
BRANCH  12  16
ATOM     15  N   UNL     1       1.700 -12.586  22.445  0.00  0.00    +0.000 NA
ATOM     16  C   UNL     1       0.023 -13.877  21.261  0.00  0.00    +0.000 A 
ATOM     17  C   UNL     1      -0.368 -12.729  20.578  0.00  0.00    +0.000 A 
ATOM     18  C   UNL     1       1.052 -13.749  22.183  0.00  0.00    +0.000 A 
ATOM     19  C   UNL     1       0.261 -11.514  20.826  0.00  0.00    +0.000 A 
ATOM     20  C   UNL     1       1.282 -11.500  21.761  0.00  0.00    +0.000 A 
ENDBRANCH  12  16
ENDBRANCH   2   9
BRANCH   1  22
ATOM     21  O   UNL     1       1.589 -16.895  13.517  0.00  0.00    +0.000 OA
ATOM     22  N   UNL     1       2.242 -16.235  15.644  0.00  0.00    +0.000 N 
ATOM     23  C   UNL     1       2.175 -16.120  14.263  0.00  0.00    +0.000 C 
ATOM     24  H   UNL     1       2.654 -15.480  16.181  0.00  0.00    +0.000 HD
BRANCH  23  30
ATOM     25  C   UNL     1       4.076 -12.672  12.614  0.00  0.00    +0.000 A 
ATOM     26  C   UNL     1       4.020 -13.842  11.860  0.00  0.00    +0.000 A 
ATOM     27  C   UNL     1       3.523 -12.630  13.890  0.00  0.00    +0.000 A 
ATOM     28  C   UNL     1       3.406 -14.976  12.388  0.00  0.00    +0.000 A 
ATOM     29  C   UNL     1       2.910 -13.764  14.416  0.00  0.00    +0.000 A 
ATOM     30  C   UNL     1       2.851 -14.943  13.667  0.00  0.00    +0.000 A 
BRANCH  25  31
ATOM     31  C   UNL     1       4.704 -11.510  12.074  0.00  0.00    +0.000 C 
BRANCH  31  32
ATOM     32  N   UNL     1       5.343 -10.321  11.524  0.00  0.00    +0.000 N 
ATOM     33  N   UNL     1       5.148  -7.410  13.546  0.00  0.00    +0.000 N 
ATOM     34  C   UNL     1       4.342  -9.221  11.595  0.00  0.00    +0.000 C 
ATOM     35  C   UNL     1       6.238  -9.781  12.586  0.00  0.00    +0.000 C 
ATOM     36  C   UNL     1       4.261  -7.940  12.475  0.00  0.00    +0.000 C 
ATOM     37  C   UNL     1       6.156  -8.502  13.466  0.00  0.00    +0.000 C 
ATOM     38  C   UNL     1       5.779  -6.207  13.021  0.00  0.00    +0.000 C 
ENDBRANCH  31  32
ENDBRANCH  25  31
ENDBRANCH  23  30
ENDBRANCH   1  22
TORSDOF 6
ENDMDL
MODEL 5
REMARK VINA RESULT:      -6.6     17.057     22.747
REMARK  Name = 10074640_Masitinib.pdbqt.pdb
REMARK  6 active torsions:
REMARK  status: ('A' for Active; 'I' for Inactive)
REMARK    1  A    between atoms: C_1  and  N_22
REMARK    2  A    between atoms: C_2  and  N_9
REMARK    3  A    between atoms: C_12  and  C_16
REMARK    4  A    between atoms: C_23  and  C_30
REMARK    5  A    between atoms: C_25  and  C_31
REMARK    6  A    between atoms: C_31  and  N_32
REMARK                            x       y       z     vdW  Elec       q    Type
REMARK                         _______ _______ _______ _____ _____    ______ ____
ROOT
ATOM      1  C   UNL     1     -12.004 -10.811  -0.441  0.00  0.00    +0.000 A 
ATOM      2  C   UNL     1     -13.964 -11.770   0.672  0.00  0.00    +0.000 A 
ATOM      3  C   UNL     1     -12.798 -10.993   0.693  0.00  0.00    +0.000 A 
ATOM      4  C   UNL     1     -14.314 -12.370  -0.554  0.00  0.00    +0.000 A 
ATOM      5  C   UNL     1     -12.391 -11.399  -1.643  0.00  0.00    +0.000 A 
ATOM      6  C   UNL     1     -13.538 -12.186  -1.699  0.00  0.00    +0.000 A 
ATOM      7  C   UNL     1     -15.553 -13.235  -0.663  0.00  0.00    +0.000 C 
ENDROOT
BRANCH   2   9
ATOM      8  S   UNL     1     -15.724 -12.776   4.162  0.00  0.00    +0.000 S 
ATOM      9  N   UNL     1     -14.788 -11.916   1.813  0.00  0.00    +0.000 N 
ATOM     10  N   UNL     1     -13.368 -13.190   3.233  0.00  0.00    +0.000 NA
ATOM     11  C   UNL     1     -14.512 -12.614   2.937  0.00  0.00    +0.000 A 
ATOM     12  C   UNL     1     -13.431 -13.826   4.458  0.00  0.00    +0.000 A 
ATOM     13  C   UNL     1     -14.643 -13.698   5.091  0.00  0.00    +0.000 A 
ATOM     14  H   UNL     1     -15.669 -11.410   1.748  0.00  0.00    +0.000 HD
BRANCH  12  16
ATOM     15  N   UNL     1      -9.967 -14.519   5.668  0.00  0.00    +0.000 NA
ATOM     16  C   UNL     1     -12.301 -14.540   5.008  0.00  0.00    +0.000 A 
ATOM     17  C   UNL     1     -12.405 -15.858   5.444  0.00  0.00    +0.000 A 
ATOM     18  C   UNL     1     -11.064 -13.924   5.136  0.00  0.00    +0.000 A 
ATOM     19  C   UNL     1     -11.301 -16.509   5.984  0.00  0.00    +0.000 A 
ATOM     20  C   UNL     1     -10.116 -15.799   6.072  0.00  0.00    +0.000 A 
ENDBRANCH  12  16
ENDBRANCH   2   9
BRANCH   1  22
ATOM     21  O   UNL     1     -11.686  -8.049  -1.282  0.00  0.00    +0.000 OA
ATOM     22  N   UNL     1     -10.829 -10.032  -0.434  0.00  0.00    +0.000 N 
ATOM     23  C   UNL     1     -10.742  -8.728  -0.897  0.00  0.00    +0.000 C 
ATOM     24  H   UNL     1     -10.008 -10.467  -0.030  0.00  0.00    +0.000 HD
BRANCH  23  30
ATOM     25  C   UNL     1      -6.874  -6.919  -0.963  0.00  0.00    +0.000 A 
ATOM     26  C   UNL     1      -7.085  -8.043  -0.168  0.00  0.00    +0.000 A 
ATOM     27  C   UNL     1      -7.914  -6.390  -1.722  0.00  0.00    +0.000 A 
ATOM     28  C   UNL     1      -8.343  -8.641  -0.134  0.00  0.00    +0.000 A 
ATOM     29  C   UNL     1      -9.171  -6.989  -1.687  0.00  0.00    +0.000 A 
ATOM     30  C   UNL     1      -9.390  -8.116  -0.891  0.00  0.00    +0.000 A 
BRANCH  25  31
ATOM     31  C   UNL     1      -5.587  -6.306  -0.999  0.00  0.00    +0.000 C 
BRANCH  31  32
ATOM     32  N   UNL     1      -4.272  -5.679  -1.034  0.00  0.00    +0.000 N 
ATOM     33  N   UNL     1      -2.036  -6.679   1.537  0.00  0.00    +0.000 N 
ATOM     34  C   UNL     1      -4.014  -5.140   0.331  0.00  0.00    +0.000 C 
ATOM     35  C   UNL     1      -3.267  -6.777  -0.955  0.00  0.00    +0.000 C 
ATOM     36  C   UNL     1      -3.028  -5.573   1.453  0.00  0.00    +0.000 C 
ATOM     37  C   UNL     1      -2.282  -7.210   0.168  0.00  0.00    +0.000 C 
ATOM     38  C   UNL     1      -0.714  -6.068   1.526  0.00  0.00    +0.000 C 
ENDBRANCH  31  32
ENDBRANCH  25  31
ENDBRANCH  23  30
ENDBRANCH   1  22
TORSDOF 6
ENDMDL
MODEL 6
REMARK VINA RESULT:      -6.6     13.106     16.508
REMARK  Name = 10074640_Masitinib.pdbqt.pdb
REMARK  6 active torsions:
REMARK  status: ('A' for Active; 'I' for Inactive)
REMARK    1  A    between atoms: C_1  and  N_22
REMARK    2  A    between atoms: C_2  and  N_9
REMARK    3  A    between atoms: C_12  and  C_16
REMARK    4  A    between atoms: C_23  and  C_30
REMARK    5  A    between atoms: C_25  and  C_31
REMARK    6  A    between atoms: C_31  and  N_32
REMARK                            x       y       z     vdW  Elec       q    Type
REMARK                         _______ _______ _______ _____ _____    ______ ____
ROOT
ATOM      1  C   UNL     1      -3.336  -0.303  22.853  0.00  0.00    +0.000 A 
ATOM      2  C   UNL     1      -5.645   0.514  22.878  0.00  0.00    +0.000 A 
ATOM      3  C   UNL     1      -4.660  -0.395  23.286  0.00  0.00    +0.000 A 
ATOM      4  C   UNL     1      -5.246   1.541  22.000  0.00  0.00    +0.000 A 
ATOM      5  C   UNL     1      -2.970   0.738  22.003  0.00  0.00    +0.000 A 
ATOM      6  C   UNL     1      -3.925   1.654  21.569  0.00  0.00    +0.000 A 
ATOM      7  C   UNL     1      -6.250   2.560  21.499  0.00  0.00    +0.000 C 
ENDROOT
BRANCH   2   9
ATOM      8  S   UNL     1      -9.596  -0.062  23.468  0.00  0.00    +0.000 S 
ATOM      9  N   UNL     1      -6.975   0.441  23.354  0.00  0.00    +0.000 N 
ATOM     10  N   UNL     1      -7.948  -1.023  21.751  0.00  0.00    +0.000 NA
ATOM     11  C   UNL     1      -8.011  -0.219  22.789  0.00  0.00    +0.000 A 
ATOM     12  C   UNL     1      -9.195  -1.525  21.431  0.00  0.00    +0.000 A 
ATOM     13  C   UNL     1     -10.199  -1.098  22.266  0.00  0.00    +0.000 A 
ATOM     14  H   UNL     1      -7.123   0.939  24.230  0.00  0.00    +0.000 HD
BRANCH  12  16
ATOM     15  N   UNL     1      -8.974  -4.603  19.329  0.00  0.00    +0.000 NA
ATOM     16  C   UNL     1      -9.393  -2.430  20.322  0.00  0.00    +0.000 A 
ATOM     17  C   UNL     1     -10.180  -2.089  19.226  0.00  0.00    +0.000 A 
ATOM     18  C   UNL     1      -8.810  -3.690  20.319  0.00  0.00    +0.000 A 
ATOM     19  C   UNL     1     -10.363  -2.991  18.184  0.00  0.00    +0.000 A 
ATOM     20  C   UNL     1      -9.743  -4.225  18.286  0.00  0.00    +0.000 A 
ENDBRANCH  12  16
ENDBRANCH   2   9
BRANCH   1  22
ATOM     21  O   UNL     1      -1.668  -0.184  25.229  0.00  0.00    +0.000 OA
ATOM     22  N   UNL     1      -2.335  -1.210  23.256  0.00  0.00    +0.000 N 
ATOM     23  C   UNL     1      -1.542  -1.063  24.385  0.00  0.00    +0.000 C 
ATOM     24  H   UNL     1      -2.222  -2.036  22.680  0.00  0.00    +0.000 HD
BRANCH  23  30
ATOM     25  C   UNL     1       1.524  -3.998  24.848  0.00  0.00    +0.000 A 
ATOM     26  C   UNL     1       0.708  -3.691  25.934  0.00  0.00    +0.000 A 
ATOM     27  C   UNL     1       1.344  -3.353  23.629  0.00  0.00    +0.000 A 
ATOM     28  C   UNL     1      -0.294  -2.733  25.798  0.00  0.00    +0.000 A 
ATOM     29  C   UNL     1       0.342  -2.394  23.495  0.00  0.00    +0.000 A 
ATOM     30  C   UNL     1      -0.480  -2.079  24.580  0.00  0.00    +0.000 A 
BRANCH  25  31
ATOM     31  C   UNL     1       2.549  -4.980  24.986  0.00  0.00    +0.000 C 
BRANCH  31  32
ATOM     32  N   UNL     1       3.595  -5.986  25.126  0.00  0.00    +0.000 N 
ATOM     33  N   UNL     1       3.156  -8.924  23.182  0.00  0.00    +0.000 N 
ATOM     34  C   UNL     1       2.915  -7.280  25.412  0.00  0.00    +0.000 C 
ATOM     35  C   UNL     1       4.034  -6.347  23.749  0.00  0.00    +0.000 C 
ATOM     36  C   UNL     1       2.730  -8.570  24.563  0.00  0.00    +0.000 C 
ATOM     37  C   UNL     1       3.849  -7.637  22.900  0.00  0.00    +0.000 C 
ATOM     38  C   UNL     1       4.187  -9.945  23.302  0.00  0.00    +0.000 C 
ENDBRANCH  31  32
ENDBRANCH  25  31
ENDBRANCH  23  30
ENDBRANCH   1  22
TORSDOF 6
ENDMDL
MODEL 7
REMARK VINA RESULT:      -6.5      3.227      4.811
REMARK  Name = 10074640_Masitinib.pdbqt.pdb
REMARK  6 active torsions:
REMARK  status: ('A' for Active; 'I' for Inactive)
REMARK    1  A    between atoms: C_1  and  N_22
REMARK    2  A    between atoms: C_2  and  N_9
REMARK    3  A    between atoms: C_12  and  C_16
REMARK    4  A    between atoms: C_23  and  C_30
REMARK    5  A    between atoms: C_25  and  C_31
REMARK    6  A    between atoms: C_31  and  N_32
REMARK                            x       y       z     vdW  Elec       q    Type
REMARK                         _______ _______ _______ _____ _____    ______ ____
ROOT
ATOM      1  C   UNL     1       5.424 -10.726  18.543  0.00  0.00    +0.000 A 
ATOM      2  C   UNL     1       6.973  -9.267  17.329  0.00  0.00    +0.000 A 
ATOM      3  C   UNL     1       5.682  -9.753  17.575  0.00  0.00    +0.000 A 
ATOM      4  C   UNL     1       8.020  -9.803  18.105  0.00  0.00    +0.000 A 
ATOM      5  C   UNL     1       6.479 -11.218  19.308  0.00  0.00    +0.000 A 
ATOM      6  C   UNL     1       7.776 -10.766  19.084  0.00  0.00    +0.000 A 
ATOM      7  C   UNL     1       9.448  -9.342  17.896  0.00  0.00    +0.000 C 
ENDROOT
BRANCH   2   9
ATOM      8  S   UNL     1       7.227  -6.878  14.086  0.00  0.00    +0.000 S 
ATOM      9  N   UNL     1       7.222  -8.250  16.377  0.00  0.00    +0.000 N 
ATOM     10  N   UNL     1       5.714  -8.873  14.647  0.00  0.00    +0.000 NA
ATOM     11  C   UNL     1       6.676  -8.130  15.147  0.00  0.00    +0.000 A 
ATOM     12  C   UNL     1       5.400  -8.484  13.359  0.00  0.00    +0.000 A 
ATOM     13  C   UNL     1       6.133  -7.415  12.904  0.00  0.00    +0.000 A 
ATOM     14  H   UNL     1       7.876  -7.539  16.700  0.00  0.00    +0.000 HD
BRANCH  12  16
ATOM     15  N   UNL     1       3.292 -11.224  11.948  0.00  0.00    +0.000 NA
ATOM     16  C   UNL     1       4.375  -9.151  12.588  0.00  0.00    +0.000 A 
ATOM     17  C   UNL     1       3.470  -8.444  11.800  0.00  0.00    +0.000 A 
ATOM     18  C   UNL     1       4.246 -10.532  12.620  0.00  0.00    +0.000 A 
ATOM     19  C   UNL     1       2.486  -9.117  11.084  0.00  0.00    +0.000 A 
ATOM     20  C   UNL     1       2.442 -10.496  11.194  0.00  0.00    +0.000 A 
ENDBRANCH  12  16
ENDBRANCH   2   9
BRANCH   1  22
ATOM     21  O   UNL     1       3.810 -10.352  20.928  0.00  0.00    +0.000 OA
ATOM     22  N   UNL     1       4.131 -11.223  18.801  0.00  0.00    +0.000 N 
ATOM     23  C   UNL     1       3.436 -11.043  19.988  0.00  0.00    +0.000 C 
ATOM     24  H   UNL     1       3.684 -11.721  18.040  0.00  0.00    +0.000 HD
BRANCH  23  30
ATOM     25  C   UNL     1      -0.316 -13.068  20.212  0.00  0.00    +0.000 A 
ATOM     26  C   UNL     1      -0.127 -11.904  20.953  0.00  0.00    +0.000 A 
ATOM     27  C   UNL     1       0.709 -13.566  19.413  0.00  0.00    +0.000 A 
ATOM     28  C   UNL     1       1.094 -11.234  20.892  0.00  0.00    +0.000 A 
ATOM     29  C   UNL     1       1.928 -12.897  19.354  0.00  0.00    +0.000 A 
ATOM     30  C   UNL     1       2.126 -11.729  20.095  0.00  0.00    +0.000 A 
BRANCH  25  31
ATOM     31  C   UNL     1      -1.565 -13.753  20.273  0.00  0.00    +0.000 C 
BRANCH  31  32
ATOM     32  N   UNL     1      -2.843 -14.452  20.337  0.00  0.00    +0.000 N 
ATOM     33  N   UNL     1      -2.689 -17.807  21.489  0.00  0.00    +0.000 N 
ATOM     34  C   UNL     1      -2.663 -15.746  19.621  0.00  0.00    +0.000 C 
ATOM     35  C   UNL     1      -2.942 -15.046  21.700  0.00  0.00    +0.000 C 
ATOM     36  C   UNL     1      -2.604 -17.217  20.125  0.00  0.00    +0.000 C 
ATOM     37  C   UNL     1      -2.883 -16.516  22.204  0.00  0.00    +0.000 C 
ATOM     38  C   UNL     1      -3.951 -18.529  21.564  0.00  0.00    +0.000 C 
ENDBRANCH  31  32
ENDBRANCH  25  31
ENDBRANCH  23  30
ENDBRANCH   1  22
TORSDOF 6
ENDMDL
MODEL 8
REMARK VINA RESULT:      -6.5     18.656     21.701
REMARK  Name = 10074640_Masitinib.pdbqt.pdb
REMARK  6 active torsions:
REMARK  status: ('A' for Active; 'I' for Inactive)
REMARK    1  A    between atoms: C_1  and  N_22
REMARK    2  A    between atoms: C_2  and  N_9
REMARK    3  A    between atoms: C_12  and  C_16
REMARK    4  A    between atoms: C_23  and  C_30
REMARK    5  A    between atoms: C_25  and  C_31
REMARK    6  A    between atoms: C_31  and  N_32
REMARK                            x       y       z     vdW  Elec       q    Type
REMARK                         _______ _______ _______ _____ _____    ______ ____
ROOT
ATOM      1  C   UNL     1     -14.482  -1.074  26.024  0.00  0.00    +0.000 A 
ATOM      2  C   UNL     1     -12.666  -2.638  26.527  0.00  0.00    +0.000 A 
ATOM      3  C   UNL     1     -13.805  -2.274  25.797  0.00  0.00    +0.000 A 
ATOM      4  C   UNL     1     -12.220  -1.738  27.514  0.00  0.00    +0.000 A 
ATOM      5  C   UNL     1     -14.001  -0.195  26.991  0.00  0.00    +0.000 A 
ATOM      6  C   UNL     1     -12.878  -0.529  27.743  0.00  0.00    +0.000 A 
ATOM      7  C   UNL     1     -11.003  -2.059  28.358  0.00  0.00    +0.000 C 
ENDROOT
BRANCH   2   9
ATOM      8  S   UNL     1     -10.711  -5.798  24.951  0.00  0.00    +0.000 S 
ATOM      9  N   UNL     1     -11.959  -3.835  26.264  0.00  0.00    +0.000 N 
ATOM     10  N   UNL     1     -11.344  -3.504  23.990  0.00  0.00    +0.000 NA
ATOM     11  C   UNL     1     -11.419  -4.224  25.087  0.00  0.00    +0.000 A 
ATOM     12  C   UNL     1     -10.738  -4.211  22.969  0.00  0.00    +0.000 A 
ATOM     13  C   UNL     1     -10.338  -5.475  23.327  0.00  0.00    +0.000 A 
ATOM     14  H   UNL     1     -11.850  -4.433  27.080  0.00  0.00    +0.000 HD
BRANCH  12  16
ATOM     15  N   UNL     1     -11.069  -3.673  19.289  0.00  0.00    +0.000 NA
ATOM     16  C   UNL     1     -10.541  -3.639  21.655  0.00  0.00    +0.000 A 
ATOM     17  C   UNL     1      -9.723  -2.532  21.450  0.00  0.00    +0.000 A 
ATOM     18  C   UNL     1     -11.181  -4.172  20.545  0.00  0.00    +0.000 A 
ATOM     19  C   UNL     1      -9.569  -1.998  20.175  0.00  0.00    +0.000 A 
ATOM     20  C   UNL     1     -10.261  -2.602  19.139  0.00  0.00    +0.000 A 
ENDBRANCH  12  16
ENDBRANCH   2   9
BRANCH   1  22
ATOM     21  O   UNL     1     -14.613   0.013  23.333  0.00  0.00    +0.000 OA
ATOM     22  N   UNL     1     -15.628  -0.694  25.297  0.00  0.00    +0.000 N 
ATOM     23  C   UNL     1     -15.611  -0.135  24.027  0.00  0.00    +0.000 C 
ATOM     24  H   UNL     1     -16.520  -0.877  25.741  0.00  0.00    +0.000 HD
BRANCH  23  30
ATOM     25  C   UNL     1     -19.349   1.061  22.344  0.00  0.00    +0.000 A 
ATOM     26  C   UNL     1     -19.089   1.333  23.686  0.00  0.00    +0.000 A 
ATOM     27  C   UNL     1     -18.402   0.404  21.565  0.00  0.00    +0.000 A 
ATOM     28  C   UNL     1     -17.876   0.945  24.249  0.00  0.00    +0.000 A 
ATOM     29  C   UNL     1     -17.189   0.016  22.129  0.00  0.00    +0.000 A 
ATOM     30  C   UNL     1     -16.922   0.284  23.475  0.00  0.00    +0.000 A 
BRANCH  25  31
ATOM     31  C   UNL     1     -20.591   1.459  21.767  0.00  0.00    +0.000 C 
BRANCH  31  32
ATOM     32  N   UNL     1     -21.860   1.863  21.176  0.00  0.00    +0.000 N 
ATOM     33  N   UNL     1     -22.675   0.299  18.095  0.00  0.00    +0.000 N 
ATOM     34  C   UNL     1     -21.579   2.236  19.762  0.00  0.00    +0.000 C 
ATOM     35  C   UNL     1     -22.606   0.613  20.857  0.00  0.00    +0.000 C 
ATOM     36  C   UNL     1     -21.944   1.556  18.411  0.00  0.00    +0.000 C 
ATOM     37  C   UNL     1     -22.970  -0.068  19.507  0.00  0.00    +0.000 C 
ATOM     38  C   UNL     1     -23.939   0.684  17.482  0.00  0.00    +0.000 C 
ENDBRANCH  31  32
ENDBRANCH  25  31
ENDBRANCH  23  30
ENDBRANCH   1  22
TORSDOF 6
ENDMDL
MODEL 9
REMARK VINA RESULT:      -6.5     18.615     20.930
REMARK  Name = 10074640_Masitinib.pdbqt.pdb
REMARK  6 active torsions:
REMARK  status: ('A' for Active; 'I' for Inactive)
REMARK    1  A    between atoms: C_1  and  N_22
REMARK    2  A    between atoms: C_2  and  N_9
REMARK    3  A    between atoms: C_12  and  C_16
REMARK    4  A    between atoms: C_23  and  C_30
REMARK    5  A    between atoms: C_25  and  C_31
REMARK    6  A    between atoms: C_31  and  N_32
REMARK                            x       y       z     vdW  Elec       q    Type
REMARK                         _______ _______ _______ _____ _____    ______ ____
ROOT
ATOM      1  C   UNL     1      -4.045  -4.820   1.782  0.00  0.00    +0.000 A 
ATOM      2  C   UNL     1      -4.780  -5.825  -0.328  0.00  0.00    +0.000 A 
ATOM      3  C   UNL     1      -4.116  -4.820   0.388  0.00  0.00    +0.000 A 
ATOM      4  C   UNL     1      -5.384  -6.854   0.422  0.00  0.00    +0.000 A 
ATOM      5  C   UNL     1      -4.633  -5.865   2.491  0.00  0.00    +0.000 A 
ATOM      6  C   UNL     1      -5.310  -6.876   1.814  0.00  0.00    +0.000 A 
ATOM      7  C   UNL     1      -6.133  -7.975  -0.271  0.00  0.00    +0.000 C 
ENDROOT
BRANCH   2   9
ATOM      8  S   UNL     1      -4.057  -6.160  -4.284  0.00  0.00    +0.000 S 
ATOM      9  N   UNL     1      -4.812  -5.843  -1.742  0.00  0.00    +0.000 N 
ATOM     10  N   UNL     1      -2.837  -7.079  -2.222  0.00  0.00    +0.000 NA
ATOM     11  C   UNL     1      -3.887  -6.371  -2.575  0.00  0.00    +0.000 A 
ATOM     12  C   UNL     1      -2.096  -7.457  -3.325  0.00  0.00    +0.000 A 
ATOM     13  C   UNL     1      -2.622  -7.035  -4.522  0.00  0.00    +0.000 A 
ATOM     14  H   UNL     1      -5.648  -5.418  -2.137  0.00  0.00    +0.000 HD
BRANCH  12  16
ATOM     15  N   UNL     1       1.092  -8.795  -1.915  0.00  0.00    +0.000 NA
ATOM     16  C   UNL     1      -0.887  -8.240  -3.202  0.00  0.00    +0.000 A 
ATOM     17  C   UNL     1      -0.529  -9.194  -4.150  0.00  0.00    +0.000 A 
ATOM     18  C   UNL     1      -0.042  -8.077  -2.114  0.00  0.00    +0.000 A 
ATOM     19  C   UNL     1       0.633  -9.942  -3.992  0.00  0.00    +0.000 A 
ATOM     20  C   UNL     1       1.400  -9.704  -2.864  0.00  0.00    +0.000 A 
ENDBRANCH  12  16
ENDBRANCH   2   9
BRANCH   1  22
ATOM     21  O   UNL     1      -1.192  -4.288   1.901  0.00  0.00    +0.000 OA
ATOM     22  N   UNL     1      -3.380  -3.817   2.514  0.00  0.00    +0.000 N 
ATOM     23  C   UNL     1      -2.003  -3.651   2.560  0.00  0.00    +0.000 C 
ATOM     24  H   UNL     1      -3.971  -3.162   3.013  0.00  0.00    +0.000 HD
BRANCH  23  30
ATOM     25  C   UNL     1      -0.641  -0.586   5.203  0.00  0.00    +0.000 A 
ATOM     26  C   UNL     1       0.191  -1.013   4.171  0.00  0.00    +0.000 A 
ATOM     27  C   UNL     1      -1.900  -1.156   5.372  0.00  0.00    +0.000 A 
ATOM     28  C   UNL     1      -0.239  -2.015   3.304  0.00  0.00    +0.000 A 
ATOM     29  C   UNL     1      -2.328  -2.158   4.504  0.00  0.00    +0.000 A 
ATOM     30  C   UNL     1      -1.498  -2.592   3.467  0.00  0.00    +0.000 A 
BRANCH  25  31
ATOM     31  C   UNL     1      -0.202   0.440   6.091  0.00  0.00    +0.000 C 
BRANCH  31  32
ATOM     32  N   UNL     1       0.247   1.491   6.996  0.00  0.00    +0.000 N 
ATOM     33  N   UNL     1      -2.205   3.908   7.862  0.00  0.00    +0.000 N 
ATOM     34  C   UNL     1      -0.138   2.789   6.375  0.00  0.00    +0.000 C 
ATOM     35  C   UNL     1      -0.743   1.555   8.108  0.00  0.00    +0.000 C 
ATOM     36  C   UNL     1      -1.206   3.852   6.760  0.00  0.00    +0.000 C 
ATOM     37  C   UNL     1      -1.811   2.618   8.492  0.00  0.00    +0.000 C 
ATOM     38  C   UNL     1      -1.783   4.970   8.766  0.00  0.00    +0.000 C 
ENDBRANCH  31  32
ENDBRANCH  25  31
ENDBRANCH  23  30
ENDBRANCH   1  22
TORSDOF 6
ENDMDL
