REMARK  Name = 101808842_CandidaspongiolideB.pdbqt.pdb
REMARK  12 active torsions:
REMARK  status: ('A' for Active; 'I' for Inactive)
REMARK    1  A    between atoms: C_6  and  C_42
REMARK    2  A    between atoms: C_7  and  O_28
REMARK    3  A    between atoms: C_10  and  O_30
REMARK    4  A    between atoms: C_13  and  O_32
REMARK    5  A    between atoms: C_19  and  O_34
REMARK    6  A    between atoms: C_20  and  O_38
REMARK    7  A    between atoms: C_21  and  O_36
REMARK    8  A    between atoms: O_38  and  C_40
REMARK    9  A    between atoms: C_42  and  C_44
REMARK   10  A    between atoms: C_42  and  O_52
REMARK   11  A    between atoms: C_45  and  C_47
REMARK   12  A    between atoms: C_47  and  C_49
REMARK                            x       y       z     vdW  Elec       q    Type
REMARK                         _______ _______ _______ _____ _____    ______ ____
ROOT
ATOM      1  O   UNL     1       1.572   4.206  -0.147  0.00  0.00    +0.000 OA
ATOM      2  O   UNL     1      -2.362  -1.376   0.614  0.00  0.00    +0.000 OA
ATOM      3  O   UNL     1      -1.181   2.030  -1.627  0.00  0.00    +0.000 OA
ATOM      4  O   UNL     1      -0.355  -1.310  -0.522  0.00  0.00    +0.000 OA
ATOM      5  O   UNL     1       2.072  -1.301   1.174  0.00  0.00    +0.000 OA
ATOM      6  C   UNL     1      -2.668   1.300   0.027  0.00  0.00    +0.000 C 
ATOM      7  C   UNL     1      -0.603   2.720   0.665  0.00  0.00    +0.000 C 
ATOM      8  C   UNL     1      -1.445   2.021  -0.424  0.00  0.00    +0.000 C 
ATOM      9  C   UNL     1      -2.563  -0.091   0.314  0.00  0.00    +0.000 C 
ATOM     10  C   UNL     1       0.436   1.747   1.257  0.00  0.00    +0.000 C 
ATOM     11  C   UNL     1       1.796   2.163   1.140  0.00  0.00    +0.000 C 
ATOM     12  C   UNL     1       0.327   3.740   0.083  0.00  0.00    +0.000 C 
ATOM     13  C   UNL     1       2.543   3.304   0.525  0.00  0.00    +0.000 C 
ATOM     14  C   UNL     1       3.568   2.805  -0.504  0.00  0.00    +0.000 C 
ATOM     15  C   UNL     1       3.534   1.463  -0.987  0.00  0.00    +0.000 C 
ATOM     16  C   UNL     1       4.764   3.589  -1.035  0.00  0.00    +0.000 C 
ATOM     17  C   UNL     1      -1.155  -1.865   0.217  0.00  0.00    +0.000 C 
ATOM     18  C   UNL     1       3.459   0.223  -1.360  0.00  0.00    +0.000 C 
ATOM     19  C   UNL     1      -0.877  -3.160   0.881  0.00  0.00    +0.000 C 
ATOM     20  C   UNL     1       4.251  -0.808  -0.730  0.00  0.00    +0.000 C 
ATOM     21  C   UNL     1       0.470  -3.690   0.965  0.00  0.00    +0.000 C 
ATOM     22  C   UNL     1       3.772  -2.114  -0.281  0.00  0.00    +0.000 C 
ATOM     23  C   UNL     1       1.586  -3.382   0.083  0.00  0.00    +0.000 C 
ATOM     24  C   UNL     1       2.433  -2.187   0.392  0.00  0.00    +0.000 C 
ATOM     25  C   UNL     1       2.370  -0.120  -2.336  0.00  0.00    +0.000 C 
ATOM     26  C   UNL     1       4.772  -3.245  -0.048  0.00  0.00    +0.000 C 
ATOM     27  C   UNL     1       1.696  -4.127  -1.243  0.00  0.00    +0.000 C 
ENDROOT
BRANCH   7  28
ATOM     28  O   UNL     1      -1.326   3.316   1.723  0.00  0.00    +0.000 OA
ATOM     29  H   UNL     1      -1.849   4.037   1.327  0.00  0.00    +0.000 HD
ENDBRANCH   7  28
BRANCH  10  30
ATOM     30  O   UNL     1       0.086   0.572   1.870  0.00  0.00    +0.000 OA
ATOM     31  H   UNL     1       0.874   0.018   2.052  0.00  0.00    +0.000 HD
ENDBRANCH  10  30
BRANCH  13  32
ATOM     32  O   UNL     1       3.180   4.025   1.576  0.00  0.00    +0.000 OA
ATOM     33  H   UNL     1       2.492   4.181   2.243  0.00  0.00    +0.000 HD
ENDBRANCH  13  32
BRANCH  19  34
ATOM     34  O   UNL     1      -1.852  -3.853   1.574  0.00  0.00    +0.000 OA
ATOM     35  H   UNL     1      -2.758  -3.527   1.394  0.00  0.00    +0.000 HD
ENDBRANCH  19  34
BRANCH  21  36
ATOM     36  O   UNL     1       0.591  -4.845   1.720  0.00  0.00    +0.000 OA
ATOM     37  C   UNL     1       1.684  -4.757   2.600  0.00  0.00    +0.000 C 
ENDBRANCH  21  36
BRANCH  20  38
ATOM     38  O   UNL     1       5.651  -0.624  -0.826  0.00  0.00    +0.000 OA
BRANCH  38  40
ATOM     39  O   UNL     1       5.616  -0.073   1.438  0.00  0.00    +0.000 OA
ATOM     40  C   UNL     1       6.179  -0.301   0.383  0.00  0.00    +0.000 C 
ATOM     41  C   UNL     1       7.653  -0.135   0.402  0.00  0.00    +0.000 C 
ENDBRANCH  38  40
ENDBRANCH  20  38
BRANCH   6  42
ATOM     42  C   UNL     1      -3.941   1.981  -0.056  0.00  0.00    +0.000 C 
BRANCH  42  44
ATOM     43  O   UNL     1      -6.253   1.773  -1.058  0.00  0.00    +0.000 OA
ATOM     44  C   UNL     1      -5.224   1.242  -0.188  0.00  0.00    +0.000 C 
ATOM     45  C   UNL     1      -5.468   0.764  -1.545  0.00  0.00    +0.000 C 
ATOM     46  C   UNL     1      -5.898   0.667   1.102  0.00  0.00    +0.000 C 
BRANCH  45  47
ATOM     47  C   UNL     1      -6.116  -0.472  -1.865  0.00  0.00    +0.000 C 
ATOM     48  C   UNL     1      -6.883  -0.615  -3.155  0.00  0.00    +0.000 C 
BRANCH  47  49
ATOM     49  C   UNL     1      -5.699  -1.679  -1.249  0.00  0.00    +0.000 C 
ATOM     50  C   UNL     1      -5.302  -2.663  -0.692  0.00  0.00    +0.000 C 
ATOM     51  C   UNL     1      -4.704  -3.851   0.067  0.00  0.00    +0.000 C 
ENDBRANCH  47  49
ENDBRANCH  45  47
ENDBRANCH  42  44
BRANCH  42  52
ATOM     52  O   UNL     1      -3.881   3.366   0.028  0.00  0.00    +0.000 OA
ATOM     53  H   UNL     1      -4.769   3.776  -0.006  0.00  0.00    +0.000 HD
ENDBRANCH  42  52
ENDBRANCH   6  42
TORSDOF 12
