MODEL 1
REMARK VINA RESULT:      -6.4      0.000      0.000
REMARK  Name = 101808842_CandidaspongiolideB.pdbqt.pdb
REMARK  12 active torsions:
REMARK  status: ('A' for Active; 'I' for Inactive)
REMARK    1  A    between atoms: C_6  and  C_42
REMARK    2  A    between atoms: C_7  and  O_28
REMARK    3  A    between atoms: C_10  and  O_30
REMARK    4  A    between atoms: C_13  and  O_32
REMARK    5  A    between atoms: C_19  and  O_34
REMARK    6  A    between atoms: C_20  and  O_38
REMARK    7  A    between atoms: C_21  and  O_36
REMARK    8  A    between atoms: O_38  and  C_40
REMARK    9  A    between atoms: C_42  and  C_44
REMARK   10  A    between atoms: C_42  and  O_52
REMARK   11  A    between atoms: C_45  and  C_47
REMARK   12  A    between atoms: C_47  and  C_49
REMARK                            x       y       z     vdW  Elec       q    Type
REMARK                         _______ _______ _______ _____ _____    ______ ____
ROOT
ATOM      1  O   UNL     1      -9.975  -4.597  21.721  0.00  0.00    +0.000 OA
ATOM      2  O   UNL     1     -14.056  -4.920  27.240  0.00  0.00    +0.000 OA
ATOM      3  O   UNL     1     -10.220  -5.284  25.459  0.00  0.00    +0.000 OA
ATOM      4  O   UNL     1     -12.840  -3.069  26.593  0.00  0.00    +0.000 OA
ATOM      5  O   UNL     1     -13.975  -1.520  24.339  0.00  0.00    +0.000 OA
ATOM      6  C   UNL     1     -12.165  -6.479  25.977  0.00  0.00    +0.000 C 
ATOM      7  C   UNL     1     -11.701  -5.736  23.544  0.00  0.00    +0.000 C 
ATOM      8  C   UNL     1     -11.261  -5.777  25.023  0.00  0.00    +0.000 C 
ATOM      9  C   UNL     1     -13.139  -5.708  26.674  0.00  0.00    +0.000 C 
ATOM     10  C   UNL     1     -12.598  -4.511  23.277  0.00  0.00    +0.000 C 
ATOM     11  C   UNL     1     -12.121  -3.613  22.276  0.00  0.00    +0.000 C 
ATOM     12  C   UNL     1     -10.560  -5.402  22.632  0.00  0.00    +0.000 C 
ATOM     13  C   UNL     1     -10.909  -3.484  21.408  0.00  0.00    +0.000 C 
ATOM     14  C   UNL     1     -10.199  -2.144  21.644  0.00  0.00    +0.000 C 
ATOM     15  C   UNL     1     -10.518  -1.329  22.771  0.00  0.00    +0.000 C 
ATOM     16  C   UNL     1      -9.197  -1.479  20.705  0.00  0.00    +0.000 C 
ATOM     17  C   UNL     1     -13.847  -3.588  27.051  0.00  0.00    +0.000 C 
ATOM     18  C   UNL     1     -10.879  -0.628  23.801  0.00  0.00    +0.000 C 
ATOM     19  C   UNL     1     -15.065  -2.818  27.399  0.00  0.00    +0.000 C 
ATOM     20  C   UNL     1     -11.868   0.420  23.696  0.00  0.00    +0.000 C 
ATOM     21  C   UNL     1     -15.265  -1.465  26.918  0.00  0.00    +0.000 C 
ATOM     22  C   UNL     1     -12.999   0.636  24.597  0.00  0.00    +0.000 C 
ATOM     23  C   UNL     1     -14.234  -0.524  26.507  0.00  0.00    +0.000 C 
ATOM     24  C   UNL     1     -13.754  -0.563  25.089  0.00  0.00    +0.000 C 
ATOM     25  C   UNL     1     -10.372  -1.088  25.137  0.00  0.00    +0.000 C 
ATOM     26  C   UNL     1     -13.685   2.001  24.632  0.00  0.00    +0.000 C 
ATOM     27  C   UNL     1     -13.512   0.283  27.580  0.00  0.00    +0.000 C 
ENDROOT
BRANCH   7  28
ATOM     28  O   UNL     1     -12.349  -6.893  23.055  0.00  0.00    +0.000 OA
ATOM     29  H   UNL     1     -12.372  -7.528  23.794  0.00  0.00    +0.000 HD
ENDBRANCH   7  28
BRANCH  10  30
ATOM     30  O   UNL     1     -13.781  -4.301  23.937  0.00  0.00    +0.000 OA
ATOM     31  H   UNL     1     -13.965  -3.344  24.039  0.00  0.00    +0.000 HD
ENDBRANCH  10  30
BRANCH  13  32
ATOM     32  O   UNL     1     -11.329  -3.611  20.052  0.00  0.00    +0.000 OA
ATOM     33  H   UNL     1     -11.163  -4.537  19.811  0.00  0.00    +0.000 HD
ENDBRANCH  13  32
BRANCH  19  34
ATOM     34  O   UNL     1     -16.128  -3.393  28.071  0.00  0.00    +0.000 OA
ATOM     35  H   UNL     1     -17.000  -3.092  27.741  0.00  0.00    +0.000 HD
ENDBRANCH  19  34
BRANCH  21  36
ATOM     36  O   UNL     1     -16.501  -0.920  27.222  0.00  0.00    +0.000 OA
ATOM     37  C   UNL     1     -17.172  -0.517  26.054  0.00  0.00    +0.000 C 
ENDBRANCH  21  36
BRANCH  20  38
ATOM     38  O   UNL     1     -11.528   1.472  22.811  0.00  0.00    +0.000 OA
BRANCH  38  40
ATOM     39  O   UNL     1     -10.198   2.678  24.296  0.00  0.00    +0.000 OA
ATOM     40  C   UNL     1     -10.412   2.118  23.237  0.00  0.00    +0.000 C 
ATOM     41  C   UNL     1      -9.321   2.214  22.236  0.00  0.00    +0.000 C 
ENDBRANCH  38  40
ENDBRANCH  20  38
BRANCH   6  42
ATOM     42  C   UNL     1     -11.877  -7.854  26.317  0.00  0.00    +0.000 C 
BRANCH  42  44
ATOM     43  O   UNL     1     -10.341  -9.429  27.564  0.00  0.00    +0.000 OA
ATOM     44  C   UNL     1     -11.145  -8.224  27.557  0.00  0.00    +0.000 C 
ATOM     45  C   UNL     1      -9.696  -8.236  27.380  0.00  0.00    +0.000 C 
ATOM     46  C   UNL     1     -11.881  -8.098  28.932  0.00  0.00    +0.000 C 
BRANCH  45  47
ATOM     47  C   UNL     1      -8.754  -7.841  28.382  0.00  0.00    +0.000 C 
ATOM     48  C   UNL     1      -7.989  -8.883  29.158  0.00  0.00    +0.000 C 
BRANCH  47  49
ATOM     49  C   UNL     1      -8.191  -6.540  28.362  0.00  0.00    +0.000 C 
ATOM     50  C   UNL     1      -7.776  -5.416  28.327  0.00  0.00    +0.000 C 
ATOM     51  C   UNL     1      -7.355  -3.947  28.234  0.00  0.00    +0.000 C 
ENDBRANCH  47  49
ENDBRANCH  45  47
ENDBRANCH  42  44
BRANCH  42  52
ATOM     52  O   UNL     1     -12.359  -8.801  25.422  0.00  0.00    +0.000 OA
ATOM     53  H   UNL     1     -11.722  -8.985  24.702  0.00  0.00    +0.000 HD
ENDBRANCH  42  52
ENDBRANCH   6  42
TORSDOF 12
ENDMDL
MODEL 2
REMARK VINA RESULT:      -6.2     16.757     20.030
REMARK  Name = 101808842_CandidaspongiolideB.pdbqt.pdb
REMARK  12 active torsions:
REMARK  status: ('A' for Active; 'I' for Inactive)
REMARK    1  A    between atoms: C_6  and  C_42
REMARK    2  A    between atoms: C_7  and  O_28
REMARK    3  A    between atoms: C_10  and  O_30
REMARK    4  A    between atoms: C_13  and  O_32
REMARK    5  A    between atoms: C_19  and  O_34
REMARK    6  A    between atoms: C_20  and  O_38
REMARK    7  A    between atoms: C_21  and  O_36
REMARK    8  A    between atoms: O_38  and  C_40
REMARK    9  A    between atoms: C_42  and  C_44
REMARK   10  A    between atoms: C_42  and  O_52
REMARK   11  A    between atoms: C_45  and  C_47
REMARK   12  A    between atoms: C_47  and  C_49
REMARK                            x       y       z     vdW  Elec       q    Type
REMARK                         _______ _______ _______ _____ _____    ______ ____
ROOT
ATOM      1  O   UNL     1     -22.938  -7.200  11.977  0.00  0.00    +0.000 OA
ATOM      2  O   UNL     1     -22.679  -2.444   7.024  0.00  0.00    +0.000 OA
ATOM      3  O   UNL     1     -24.663  -5.667   8.948  0.00  0.00    +0.000 OA
ATOM      4  O   UNL     1     -23.719  -2.180   9.066  0.00  0.00    +0.000 OA
ATOM      5  O   UNL     1     -21.920  -1.641  11.355  0.00  0.00    +0.000 OA
ATOM      6  C   UNL     1     -23.122  -5.155   7.261  0.00  0.00    +0.000 C 
ATOM      7  C   UNL     1     -22.311  -6.120   9.519  0.00  0.00    +0.000 C 
ATOM      8  C   UNL     1     -23.475  -5.650   8.621  0.00  0.00    +0.000 C 
ATOM      9  C   UNL     1     -22.912  -3.757   7.086  0.00  0.00    +0.000 C 
ATOM     10  C   UNL     1     -21.731  -4.939  10.322  0.00  0.00    +0.000 C 
ATOM     11  C   UNL     1     -21.763  -5.092  11.740  0.00  0.00    +0.000 C 
ATOM     12  C   UNL     1     -22.791  -6.971  10.656  0.00  0.00    +0.000 C 
ATOM     13  C   UNL     1     -22.277  -6.097  12.722  0.00  0.00    +0.000 C 
ATOM     14  C   UNL     1     -23.287  -5.462  13.689  0.00  0.00    +0.000 C 
ATOM     15  C   UNL     1     -23.849  -4.177  13.429  0.00  0.00    +0.000 C 
ATOM     16  C   UNL     1     -23.718  -6.028  15.039  0.00  0.00    +0.000 C 
ATOM     17  C   UNL     1     -23.050  -1.753   8.137  0.00  0.00    +0.000 C 
ATOM     18  C   UNL     1     -24.296  -2.994  13.141  0.00  0.00    +0.000 C 
ATOM     19  C   UNL     1     -22.451  -0.398   8.129  0.00  0.00    +0.000 C 
ATOM     20  C   UNL     1     -23.693  -1.801  13.689  0.00  0.00    +0.000 C 
ATOM     21  C   UNL     1     -22.338   0.383   9.345  0.00  0.00    +0.000 C 
ATOM     22  C   UNL     1     -23.343  -0.590  12.948  0.00  0.00    +0.000 C 
ATOM     23  C   UNL     1     -23.151   0.252  10.545  0.00  0.00    +0.000 C 
ATOM     24  C   UNL     1     -22.735  -0.742  11.585  0.00  0.00    +0.000 C 
ATOM     25  C   UNL     1     -25.338  -2.914  12.062  0.00  0.00    +0.000 C 
ATOM     26  C   UNL     1     -23.132   0.721  13.702  0.00  0.00    +0.000 C 
ATOM     27  C   UNL     1     -24.512   0.939  10.585  0.00  0.00    +0.000 C 
ENDROOT
BRANCH   7  28
ATOM     28  O   UNL     1     -21.253  -6.791   8.865  0.00  0.00    +0.000 OA
ATOM     29  H   UNL     1     -21.510  -7.731   8.819  0.00  0.00    +0.000 HD
ENDBRANCH   7  28
BRANCH  10  30
ATOM     30  O   UNL     1     -21.204  -3.824   9.724  0.00  0.00    +0.000 OA
ATOM     31  H   UNL     1     -20.801  -3.223  10.385  0.00  0.00    +0.000 HD
ENDBRANCH  10  30
BRANCH  13  32
ATOM     32  O   UNL     1     -21.159  -6.631  13.425  0.00  0.00    +0.000 OA
ATOM     33  H   UNL     1     -20.942  -5.977  14.110  0.00  0.00    +0.000 HD
ENDBRANCH  13  32
BRANCH  19  34
ATOM     34  O   UNL     1     -21.844   0.128   7.004  0.00  0.00    +0.000 OA
ATOM     35  H   UNL     1     -22.479   0.358   6.295  0.00  0.00    +0.000 HD
ENDBRANCH  19  34
BRANCH  21  36
ATOM     36  O   UNL     1     -21.648   1.576   9.204  0.00  0.00    +0.000 OA
ATOM     37  C   UNL     1     -20.445   1.548   9.932  0.00  0.00    +0.000 C 
ENDBRANCH  21  36
BRANCH  20  38
ATOM     38  O   UNL     1     -23.716  -1.718  15.101  0.00  0.00    +0.000 OA
BRANCH  38  40
ATOM     39  O   UNL     1     -25.887  -0.894  15.295  0.00  0.00    +0.000 OA
ATOM     40  C   UNL     1     -24.993  -1.676  15.561  0.00  0.00    +0.000 C 
ATOM     41  C   UNL     1     -25.325  -2.692  16.590  0.00  0.00    +0.000 C 
ENDBRANCH  38  40
ENDBRANCH  20  38
BRANCH   6  42
ATOM     42  C   UNL     1     -23.221  -6.070   6.146  0.00  0.00    +0.000 C 
BRANCH  42  44
ATOM     43  O   UNL     1     -24.241  -8.136   5.105  0.00  0.00    +0.000 OA
ATOM     44  C   UNL     1     -24.376  -6.992   5.983  0.00  0.00    +0.000 C 
ATOM     45  C   UNL     1     -24.093  -8.346   6.448  0.00  0.00    +0.000 C 
ATOM     46  C   UNL     1     -25.806  -6.383   5.806  0.00  0.00    +0.000 C 
BRANCH  45  47
ATOM     47  C   UNL     1     -25.049  -9.200   7.086  0.00  0.00    +0.000 C 
ATOM     48  C   UNL     1     -25.838 -10.195   6.273  0.00  0.00    +0.000 C 
BRANCH  47  49
ATOM     49  C   UNL     1     -24.962  -9.459   8.477  0.00  0.00    +0.000 C 
ATOM     50  C   UNL     1     -24.897  -9.743   9.639  0.00  0.00    +0.000 C 
ATOM     51  C   UNL     1     -24.847 -10.221  11.093  0.00  0.00    +0.000 C 
ENDBRANCH  47  49
ENDBRANCH  45  47
ENDBRANCH  42  44
BRANCH  42  52
ATOM     52  O   UNL     1     -22.181  -6.004   5.228  0.00  0.00    +0.000 OA
ATOM     53  H   UNL     1     -21.387  -6.485   5.535  0.00  0.00    +0.000 HD
ENDBRANCH  42  52
ENDBRANCH   6  42
TORSDOF 12
ENDMDL
MODEL 3
REMARK VINA RESULT:      -6.2     17.156     20.629
REMARK  Name = 101808842_CandidaspongiolideB.pdbqt.pdb
REMARK  12 active torsions:
REMARK  status: ('A' for Active; 'I' for Inactive)
REMARK    1  A    between atoms: C_6  and  C_42
REMARK    2  A    between atoms: C_7  and  O_28
REMARK    3  A    between atoms: C_10  and  O_30
REMARK    4  A    between atoms: C_13  and  O_32
REMARK    5  A    between atoms: C_19  and  O_34
REMARK    6  A    between atoms: C_20  and  O_38
REMARK    7  A    between atoms: C_21  and  O_36
REMARK    8  A    between atoms: O_38  and  C_40
REMARK    9  A    between atoms: C_42  and  C_44
REMARK   10  A    between atoms: C_42  and  O_52
REMARK   11  A    between atoms: C_45  and  C_47
REMARK   12  A    between atoms: C_47  and  C_49
REMARK                            x       y       z     vdW  Elec       q    Type
REMARK                         _______ _______ _______ _____ _____    ______ ____
ROOT
ATOM      1  O   UNL     1     -23.206  -7.326  12.225  0.00  0.00    +0.000 OA
ATOM      2  O   UNL     1     -22.949  -2.814   7.049  0.00  0.00    +0.000 OA
ATOM      3  O   UNL     1     -24.976  -5.874   9.181  0.00  0.00    +0.000 OA
ATOM      4  O   UNL     1     -23.914  -2.421   9.107  0.00  0.00    +0.000 OA
ATOM      5  O   UNL     1     -22.026  -1.840  11.312  0.00  0.00    +0.000 OA
ATOM      6  C   UNL     1     -23.474  -5.494   7.426  0.00  0.00    +0.000 C 
ATOM      7  C   UNL     1     -22.623  -6.382   9.701  0.00  0.00    +0.000 C 
ATOM      8  C   UNL     1     -23.800  -5.913   8.818  0.00  0.00    +0.000 C 
ATOM      9  C   UNL     1     -23.224  -4.114   7.179  0.00  0.00    +0.000 C 
ATOM     10  C   UNL     1     -21.980  -5.186  10.430  0.00  0.00    +0.000 C 
ATOM     11  C   UNL     1     -21.971  -5.272  11.854  0.00  0.00    +0.000 C 
ATOM     12  C   UNL     1     -23.094  -7.162  10.890  0.00  0.00    +0.000 C 
ATOM     13  C   UNL     1     -22.486  -6.213  12.897  0.00  0.00    +0.000 C 
ATOM     14  C   UNL     1     -23.443  -5.500  13.863  0.00  0.00    +0.000 C 
ATOM     15  C   UNL     1     -23.970  -4.209  13.560  0.00  0.00    +0.000 C 
ATOM     16  C   UNL     1     -23.849  -5.988  15.250  0.00  0.00    +0.000 C 
ATOM     17  C   UNL     1     -23.262  -2.060   8.138  0.00  0.00    +0.000 C 
ATOM     18  C   UNL     1     -24.387  -3.026  13.231  0.00  0.00    +0.000 C 
ATOM     19  C   UNL     1     -22.619  -0.729   8.048  0.00  0.00    +0.000 C 
ATOM     20  C   UNL     1     -23.728  -1.831  13.703  0.00  0.00    +0.000 C 
ATOM     21  C   UNL     1     -22.442   0.104   9.223  0.00  0.00    +0.000 C 
ATOM     22  C   UNL     1     -23.362  -0.668  12.896  0.00  0.00    +0.000 C 
ATOM     23  C   UNL     1     -23.219   0.056  10.452  0.00  0.00    +0.000 C 
ATOM     24  C   UNL     1     -22.803  -0.904  11.524  0.00  0.00    +0.000 C 
ATOM     25  C   UNL     1     -25.460  -2.960  12.182  0.00  0.00    +0.000 C 
ATOM     26  C   UNL     1     -23.084   0.668  13.581  0.00  0.00    +0.000 C 
ATOM     27  C   UNL     1     -24.555   0.790  10.501  0.00  0.00    +0.000 C 
ENDROOT
BRANCH   7  28
ATOM     28  O   UNL     1     -21.610  -7.119   9.047  0.00  0.00    +0.000 OA
ATOM     29  H   UNL     1     -21.037  -6.465   8.606  0.00  0.00    +0.000 HD
ENDBRANCH   7  28
BRANCH  10  30
ATOM     30  O   UNL     1     -21.435  -4.118   9.764  0.00  0.00    +0.000 OA
ATOM     31  H   UNL     1     -22.102  -3.415   9.615  0.00  0.00    +0.000 HD
ENDBRANCH  10  30
BRANCH  13  32
ATOM     32  O   UNL     1     -21.364  -6.752  13.590  0.00  0.00    +0.000 OA
ATOM     33  H   UNL     1     -20.968  -7.401  12.986  0.00  0.00    +0.000 HD
ENDBRANCH  13  32
BRANCH  19  34
ATOM     34  O   UNL     1     -22.031  -0.275   6.882  0.00  0.00    +0.000 OA
ATOM     35  H   UNL     1     -22.102   0.695   6.766  0.00  0.00    +0.000 HD
ENDBRANCH  19  34
BRANCH  21  36
ATOM     36  O   UNL     1     -21.717   1.264   9.005  0.00  0.00    +0.000 OA
ATOM     37  C   UNL     1     -20.507   1.241   9.722  0.00  0.00    +0.000 C 
ENDBRANCH  21  36
BRANCH  20  38
ATOM     38  O   UNL     1     -23.703  -1.682  15.111  0.00  0.00    +0.000 OA
BRANCH  38  40
ATOM     39  O   UNL     1     -25.868  -0.831  15.249  0.00  0.00    +0.000 OA
ATOM     40  C   UNL     1     -24.962  -1.562  15.605  0.00  0.00    +0.000 C 
ATOM     41  C   UNL     1     -25.252  -2.396  16.798  0.00  0.00    +0.000 C 
ENDBRANCH  38  40
ENDBRANCH  20  38
BRANCH   6  42
ATOM     42  C   UNL     1     -23.639  -6.456   6.359  0.00  0.00    +0.000 C 
BRANCH  42  44
ATOM     43  O   UNL     1     -23.230  -7.240   3.990  0.00  0.00    +0.000 OA
ATOM     44  C   UNL     1     -22.880  -6.358   5.085  0.00  0.00    +0.000 C 
ATOM     45  C   UNL     1     -23.713  -5.960   3.955  0.00  0.00    +0.000 C 
ATOM     46  C   UNL     1     -21.322  -6.220   5.145  0.00  0.00    +0.000 C 
BRANCH  45  47
ATOM     47  C   UNL     1     -23.274  -5.125   2.878  0.00  0.00    +0.000 C 
ATOM     48  C   UNL     1     -23.442  -3.630   2.960  0.00  0.00    +0.000 C 
BRANCH  47  49
ATOM     49  C   UNL     1     -22.303  -5.595   1.958  0.00  0.00    +0.000 C 
ATOM     50  C   UNL     1     -21.437  -5.949   1.209  0.00  0.00    +0.000 C 
ATOM     51  C   UNL     1     -20.263  -6.308   0.294  0.00  0.00    +0.000 C 
ENDBRANCH  47  49
ENDBRANCH  45  47
ENDBRANCH  42  44
BRANCH  42  52
ATOM     52  O   UNL     1     -24.529  -7.488   6.622  0.00  0.00    +0.000 OA
ATOM     53  H   UNL     1     -24.565  -8.139   5.891  0.00  0.00    +0.000 HD
ENDBRANCH  42  52
ENDBRANCH   6  42
TORSDOF 12
ENDMDL
MODEL 4
REMARK VINA RESULT:      -6.1     17.336     20.779
REMARK  Name = 101808842_CandidaspongiolideB.pdbqt.pdb
REMARK  12 active torsions:
REMARK  status: ('A' for Active; 'I' for Inactive)
REMARK    1  A    between atoms: C_6  and  C_42
REMARK    2  A    between atoms: C_7  and  O_28
REMARK    3  A    between atoms: C_10  and  O_30
REMARK    4  A    between atoms: C_13  and  O_32
REMARK    5  A    between atoms: C_19  and  O_34
REMARK    6  A    between atoms: C_20  and  O_38
REMARK    7  A    between atoms: C_21  and  O_36
REMARK    8  A    between atoms: O_38  and  C_40
REMARK    9  A    between atoms: C_42  and  C_44
REMARK   10  A    between atoms: C_42  and  O_52
REMARK   11  A    between atoms: C_45  and  C_47
REMARK   12  A    between atoms: C_47  and  C_49
REMARK                            x       y       z     vdW  Elec       q    Type
REMARK                         _______ _______ _______ _____ _____    ______ ____
ROOT
ATOM      1  O   UNL     1     -23.232  -7.467  12.345  0.00  0.00    +0.000 OA
ATOM      2  O   UNL     1     -22.924  -3.310   6.883  0.00  0.00    +0.000 OA
ATOM      3  O   UNL     1     -24.969  -6.227   9.191  0.00  0.00    +0.000 OA
ATOM      4  O   UNL     1     -23.914  -2.783   8.899  0.00  0.00    +0.000 OA
ATOM      5  O   UNL     1     -22.053  -2.051  11.082  0.00  0.00    +0.000 OA
ATOM      6  C   UNL     1     -23.446  -5.960   7.432  0.00  0.00    +0.000 C 
ATOM      7  C   UNL     1     -22.621  -6.692   9.772  0.00  0.00    +0.000 C 
ATOM      8  C   UNL     1     -23.788  -6.287   8.845  0.00  0.00    +0.000 C 
ATOM      9  C   UNL     1     -23.197  -4.599   7.097  0.00  0.00    +0.000 C 
ATOM     10  C   UNL     1     -21.989  -5.447  10.426  0.00  0.00    +0.000 C 
ATOM     11  C   UNL     1     -21.997  -5.439  11.853  0.00  0.00    +0.000 C 
ATOM     12  C   UNL     1     -23.104  -7.392  11.004  0.00  0.00    +0.000 C 
ATOM     13  C   UNL     1     -22.522  -6.310  12.950  0.00  0.00    +0.000 C 
ATOM     14  C   UNL     1     -23.492  -5.536  13.855  0.00  0.00    +0.000 C 
ATOM     15  C   UNL     1     -24.018  -4.270  13.460  0.00  0.00    +0.000 C 
ATOM     16  C   UNL     1     -23.913  -5.931  15.267  0.00  0.00    +0.000 C 
ATOM     17  C   UNL     1     -23.251  -2.486   7.916  0.00  0.00    +0.000 C 
ATOM     18  C   UNL     1     -24.434  -3.113  13.048  0.00  0.00    +0.000 C 
ATOM     19  C   UNL     1     -22.610  -1.161   7.745  0.00  0.00    +0.000 C 
ATOM     20  C   UNL     1     -23.783  -1.886  13.447  0.00  0.00    +0.000 C 
ATOM     21  C   UNL     1     -22.448  -0.252   8.862  0.00  0.00    +0.000 C 
ATOM     22  C   UNL     1     -23.410  -0.779  12.569  0.00  0.00    +0.000 C 
ATOM     23  C   UNL     1     -23.240  -0.220  10.083  0.00  0.00    +0.000 C 
ATOM     24  C   UNL     1     -22.835  -1.104  11.221  0.00  0.00    +0.000 C 
ATOM     25  C   UNL     1     -25.494  -3.120  11.984  0.00  0.00    +0.000 C 
ATOM     26  C   UNL     1     -23.143   0.601  13.166  0.00  0.00    +0.000 C 
ATOM     27  C   UNL     1     -24.578   0.512  10.067  0.00  0.00    +0.000 C 
ENDROOT
BRANCH   7  28
ATOM     28  O   UNL     1     -21.598  -7.467   9.180  0.00  0.00    +0.000 OA
ATOM     29  H   UNL     1     -21.192  -6.909   8.492  0.00  0.00    +0.000 HD
ENDBRANCH   7  28
BRANCH  10  30
ATOM     30  O   UNL     1     -21.439  -4.425   9.696  0.00  0.00    +0.000 OA
ATOM     31  H   UNL     1     -20.828  -3.888  10.243  0.00  0.00    +0.000 HD
ENDBRANCH  10  30
BRANCH  13  32
ATOM     32  O   UNL     1     -21.407  -6.797  13.691  0.00  0.00    +0.000 OA
ATOM     33  H   UNL     1     -20.977  -6.013  14.068  0.00  0.00    +0.000 HD
ENDBRANCH  13  32
BRANCH  19  34
ATOM     34  O   UNL     1     -22.009  -0.786   6.558  0.00  0.00    +0.000 OA
ATOM     35  H   UNL     1     -21.153  -1.236   6.399  0.00  0.00    +0.000 HD
ENDBRANCH  19  34
BRANCH  21  36
ATOM     36  O   UNL     1     -21.723   0.893   8.576  0.00  0.00    +0.000 OA
ATOM     37  C   UNL     1     -20.788   1.162   9.591  0.00  0.00    +0.000 C 
ENDBRANCH  21  36
BRANCH  20  38
ATOM     38  O   UNL     1     -23.775  -1.644  14.842  0.00  0.00    +0.000 OA
BRANCH  38  40
ATOM     39  O   UNL     1     -25.907  -0.715  14.983  0.00  0.00    +0.000 OA
ATOM     40  C   UNL     1     -25.040  -1.503  15.314  0.00  0.00    +0.000 C 
ATOM     41  C   UNL     1     -25.393  -2.394  16.446  0.00  0.00    +0.000 C 
ENDBRANCH  38  40
ENDBRANCH  20  38
BRANCH   6  42
ATOM     42  C   UNL     1     -23.597  -6.992   6.430  0.00  0.00    +0.000 C 
BRANCH  42  44
ATOM     43  O   UNL     1     -24.238  -7.522   4.042  0.00  0.00    +0.000 OA
ATOM     44  C   UNL     1     -23.496  -6.700   4.976  0.00  0.00    +0.000 C 
ATOM     45  C   UNL     1     -24.772  -6.310   4.384  0.00  0.00    +0.000 C 
ATOM     46  C   UNL     1     -22.090  -6.383   4.367  0.00  0.00    +0.000 C 
BRANCH  45  47
ATOM     47  C   UNL     1     -24.920  -5.342   3.340  0.00  0.00    +0.000 C 
ATOM     48  C   UNL     1     -25.416  -5.763   1.980  0.00  0.00    +0.000 C 
BRANCH  47  49
ATOM     49  C   UNL     1     -25.047  -3.965   3.653  0.00  0.00    +0.000 C 
ATOM     50  C   UNL     1     -25.154  -2.818   3.983  0.00  0.00    +0.000 C 
ATOM     51  C   UNL     1     -25.311  -1.393   4.521  0.00  0.00    +0.000 C 
ENDBRANCH  47  49
ENDBRANCH  45  47
ENDBRANCH  42  44
BRANCH  42  52
ATOM     52  O   UNL     1     -23.810  -8.273   6.922  0.00  0.00    +0.000 OA
ATOM     53  H   UNL     1     -23.276  -8.943   6.449  0.00  0.00    +0.000 HD
ENDBRANCH  42  52
ENDBRANCH   6  42
TORSDOF 12
ENDMDL
MODEL 5
REMARK VINA RESULT:      -6.0     17.501     20.651
REMARK  Name = 101808842_CandidaspongiolideB.pdbqt.pdb
REMARK  12 active torsions:
REMARK  status: ('A' for Active; 'I' for Inactive)
REMARK    1  A    between atoms: C_6  and  C_42
REMARK    2  A    between atoms: C_7  and  O_28
REMARK    3  A    between atoms: C_10  and  O_30
REMARK    4  A    between atoms: C_13  and  O_32
REMARK    5  A    between atoms: C_19  and  O_34
REMARK    6  A    between atoms: C_20  and  O_38
REMARK    7  A    between atoms: C_21  and  O_36
REMARK    8  A    between atoms: O_38  and  C_40
REMARK    9  A    between atoms: C_42  and  C_44
REMARK   10  A    between atoms: C_42  and  O_52
REMARK   11  A    between atoms: C_45  and  C_47
REMARK   12  A    between atoms: C_47  and  C_49
REMARK                            x       y       z     vdW  Elec       q    Type
REMARK                         _______ _______ _______ _____ _____    ______ ____
ROOT
ATOM      1  O   UNL     1     -21.817  -3.200   9.005  0.00  0.00    +0.000 OA
ATOM      2  O   UNL     1     -24.400  -8.645  12.306  0.00  0.00    +0.000 OA
ATOM      3  O   UNL     1     -24.397  -4.478  11.498  0.00  0.00    +0.000 OA
ATOM      4  O   UNL     1     -25.199  -7.797  10.315  0.00  0.00    +0.000 OA
ATOM      5  O   UNL     1     -23.615  -8.481   7.909  0.00  0.00    +0.000 OA
ATOM      6  C   UNL     1     -23.484  -6.113  12.902  0.00  0.00    +0.000 C 
ATOM      7  C   UNL     1     -22.061  -5.079  11.007  0.00  0.00    +0.000 C 
ATOM      8  C   UNL     1     -23.404  -5.156  11.763  0.00  0.00    +0.000 C 
ATOM      9  C   UNL     1     -23.979  -7.424  12.646  0.00  0.00    +0.000 C 
ATOM     10  C   UNL     1     -22.017  -6.119   9.869  0.00  0.00    +0.000 C 
ATOM     11  C   UNL     1     -21.810  -5.585   8.563  0.00  0.00    +0.000 C 
ATOM     12  C   UNL     1     -21.949  -3.827  10.192  0.00  0.00    +0.000 C 
ATOM     13  C   UNL     1     -21.673  -4.230   7.943  0.00  0.00    +0.000 C 
ATOM     14  C   UNL     1     -22.744  -4.002   6.866  0.00  0.00    +0.000 C 
ATOM     15  C   UNL     1     -23.870  -4.870   6.751  0.00  0.00    +0.000 C 
ATOM     16  C   UNL     1     -22.699  -2.951   5.761  0.00  0.00    +0.000 C 
ATOM     17  C   UNL     1     -24.922  -8.732  11.052  0.00  0.00    +0.000 C 
ATOM     18  C   UNL     1     -24.851  -5.716   6.689  0.00  0.00    +0.000 C 
ATOM     19  C   UNL     1     -25.037 -10.149  10.636  0.00  0.00    +0.000 C 
ATOM     20  C   UNL     1     -24.822  -6.847   5.791  0.00  0.00    +0.000 C 
ATOM     21  C   UNL     1     -25.166 -10.517   9.239  0.00  0.00    +0.000 C 
ATOM     22  C   UNL     1     -25.171  -8.227   6.126  0.00  0.00    +0.000 C 
ATOM     23  C   UNL     1     -25.676  -9.683   8.161  0.00  0.00    +0.000 C 
ATOM     24  C   UNL     1     -24.725  -8.771   7.451  0.00  0.00    +0.000 C 
ATOM     25  C   UNL     1     -25.925  -5.577   7.731  0.00  0.00    +0.000 C 
ATOM     26  C   UNL     1     -25.517  -9.209   5.009  0.00  0.00    +0.000 C 
ATOM     27  C   UNL     1     -27.185  -9.585   7.966  0.00  0.00    +0.000 C 
ENDROOT
BRANCH   7  28
ATOM     28  O   UNL     1     -20.895  -5.214  11.794  0.00  0.00    +0.000 OA
ATOM     29  H   UNL     1     -21.195  -5.433  12.695  0.00  0.00    +0.000 HD
ENDBRANCH   7  28
BRANCH  10  30
ATOM     30  O   UNL     1     -22.150  -7.466  10.091  0.00  0.00    +0.000 OA
ATOM     31  H   UNL     1     -22.684  -7.643  10.893  0.00  0.00    +0.000 HD
ENDBRANCH  10  30
BRANCH  13  32
ATOM     32  O   UNL     1     -20.362  -4.133   7.392  0.00  0.00    +0.000 OA
ATOM     33  H   UNL     1     -20.452  -3.592   6.591  0.00  0.00    +0.000 HD
ENDBRANCH  13  32
BRANCH  19  34
ATOM     34  O   UNL     1     -24.883 -11.191  11.532  0.00  0.00    +0.000 OA
ATOM     35  H   UNL     1     -24.547 -12.011  11.115  0.00  0.00    +0.000 HD
ENDBRANCH  19  34
BRANCH  21  36
ATOM     36  O   UNL     1     -25.139 -11.880   8.995  0.00  0.00    +0.000 OA
ATOM     37  C   UNL     1     -24.213 -12.190   7.984  0.00  0.00    +0.000 C 
ENDBRANCH  21  36
BRANCH  20  38
ATOM     38  O   UNL     1     -24.718  -6.515   4.419  0.00  0.00    +0.000 OA
BRANCH  38  40
ATOM     39  O   UNL     1     -22.446  -7.018   4.538  0.00  0.00    +0.000 OA
ATOM     40  C   UNL     1     -23.419  -6.497   4.024  0.00  0.00    +0.000 C 
ATOM     41  C   UNL     1     -23.136  -5.663   2.830  0.00  0.00    +0.000 C 
ENDBRANCH  38  40
ENDBRANCH  20  38
BRANCH   6  42
ATOM     42  C   UNL     1     -23.269  -5.613  14.241  0.00  0.00    +0.000 C 
BRANCH  42  44
ATOM     43  O   UNL     1     -23.434  -3.728  15.918  0.00  0.00    +0.000 OA
ATOM     44  C   UNL     1     -23.968  -4.406  14.754  0.00  0.00    +0.000 C 
ATOM     45  C   UNL     1     -23.145  -3.202  14.688  0.00  0.00    +0.000 C 
ATOM     46  C   UNL     1     -25.529  -4.423  14.850  0.00  0.00    +0.000 C 
BRANCH  45  47
ATOM     47  C   UNL     1     -23.647  -1.892  14.403  0.00  0.00    +0.000 C 
ATOM     48  C   UNL     1     -24.046  -0.971  15.528  0.00  0.00    +0.000 C 
BRANCH  47  49
ATOM     49  C   UNL     1     -23.367  -1.273  13.159  0.00  0.00    +0.000 C 
ATOM     50  C   UNL     1     -23.197  -0.743  12.098  0.00  0.00    +0.000 C 
ATOM     51  C   UNL     1     -23.102  -0.074  10.723  0.00  0.00    +0.000 C 
ENDBRANCH  47  49
ENDBRANCH  45  47
ENDBRANCH  42  44
BRANCH  42  52
ATOM     52  O   UNL     1     -22.392  -6.357  15.020  0.00  0.00    +0.000 OA
ATOM     53  H   UNL     1     -21.484  -5.992  15.002  0.00  0.00    +0.000 HD
ENDBRANCH  42  52
ENDBRANCH   6  42
TORSDOF 12
ENDMDL
MODEL 6
REMARK VINA RESULT:      -6.0     17.629     20.654
REMARK  Name = 101808842_CandidaspongiolideB.pdbqt.pdb
REMARK  12 active torsions:
REMARK  status: ('A' for Active; 'I' for Inactive)
REMARK    1  A    between atoms: C_6  and  C_42
REMARK    2  A    between atoms: C_7  and  O_28
REMARK    3  A    between atoms: C_10  and  O_30
REMARK    4  A    between atoms: C_13  and  O_32
REMARK    5  A    between atoms: C_19  and  O_34
REMARK    6  A    between atoms: C_20  and  O_38
REMARK    7  A    between atoms: C_21  and  O_36
REMARK    8  A    between atoms: O_38  and  C_40
REMARK    9  A    between atoms: C_42  and  C_44
REMARK   10  A    between atoms: C_42  and  O_52
REMARK   11  A    between atoms: C_45  and  C_47
REMARK   12  A    between atoms: C_47  and  C_49
REMARK                            x       y       z     vdW  Elec       q    Type
REMARK                         _______ _______ _______ _____ _____    ______ ____
ROOT
ATOM      1  O   UNL     1     -21.600  -3.228   9.243  0.00  0.00    +0.000 OA
ATOM      2  O   UNL     1     -24.450  -8.685  12.295  0.00  0.00    +0.000 OA
ATOM      3  O   UNL     1     -24.234  -4.489  11.687  0.00  0.00    +0.000 OA
ATOM      4  O   UNL     1     -25.211  -7.702  10.351  0.00  0.00    +0.000 OA
ATOM      5  O   UNL     1     -23.672  -8.351   7.907  0.00  0.00    +0.000 OA
ATOM      6  C   UNL     1     -23.403  -6.236  13.006  0.00  0.00    +0.000 C 
ATOM      7  C   UNL     1     -21.933  -5.186  11.154  0.00  0.00    +0.000 C 
ATOM      8  C   UNL     1     -23.277  -5.230  11.914  0.00  0.00    +0.000 C 
ATOM      9  C   UNL     1     -23.965  -7.505  12.691  0.00  0.00    +0.000 C 
ATOM     10  C   UNL     1     -21.948  -6.171   9.968  0.00  0.00    +0.000 C 
ATOM     11  C   UNL     1     -21.717  -5.586   8.688  0.00  0.00    +0.000 C 
ATOM     12  C   UNL     1     -21.760  -3.904  10.400  0.00  0.00    +0.000 C 
ATOM     13  C   UNL     1     -21.512  -4.212   8.133  0.00  0.00    +0.000 C 
ATOM     14  C   UNL     1     -22.573  -3.877   7.074  0.00  0.00    +0.000 C 
ATOM     15  C   UNL     1     -23.743  -4.680   6.924  0.00  0.00    +0.000 C 
ATOM     16  C   UNL     1     -22.478  -2.778   6.021  0.00  0.00    +0.000 C 
ATOM     17  C   UNL     1     -24.980  -8.684  11.041  0.00  0.00    +0.000 C 
ATOM     18  C   UNL     1     -24.767  -5.470   6.827  0.00  0.00    +0.000 C 
ATOM     19  C   UNL     1     -25.169 -10.072  10.559  0.00  0.00    +0.000 C 
ATOM     20  C   UNL     1     -24.800  -6.557   5.876  0.00  0.00    +0.000 C 
ATOM     21  C   UNL     1     -25.322 -10.365   9.147  0.00  0.00    +0.000 C 
ATOM     22  C   UNL     1     -25.218  -7.931   6.146  0.00  0.00    +0.000 C 
ATOM     23  C   UNL     1     -25.792  -9.456   8.112  0.00  0.00    +0.000 C 
ATOM     24  C   UNL     1     -24.797  -8.561   7.441  0.00  0.00    +0.000 C 
ATOM     25  C   UNL     1     -25.829  -5.326   7.880  0.00  0.00    +0.000 C 
ATOM     26  C   UNL     1     -25.618  -8.840   4.985  0.00  0.00    +0.000 C 
ATOM     27  C   UNL     1     -27.294  -9.270   7.931  0.00  0.00    +0.000 C 
ENDROOT
BRANCH   7  28
ATOM     28  O   UNL     1     -20.774  -5.419  11.928  0.00  0.00    +0.000 OA
ATOM     29  H   UNL     1     -21.082  -5.665  12.819  0.00  0.00    +0.000 HD
ENDBRANCH   7  28
BRANCH  10  30
ATOM     30  O   UNL     1     -22.149  -7.518  10.126  0.00  0.00    +0.000 OA
ATOM     31  H   UNL     1     -21.657  -8.032   9.451  0.00  0.00    +0.000 HD
ENDBRANCH  10  30
BRANCH  13  32
ATOM     32  O   UNL     1     -20.200  -4.156   7.580  0.00  0.00    +0.000 OA
ATOM     33  H   UNL     1     -20.265  -3.574   6.806  0.00  0.00    +0.000 HD
ENDBRANCH  13  32
BRANCH  19  34
ATOM     34  O   UNL     1     -25.066 -11.163  11.402  0.00  0.00    +0.000 OA
ATOM     35  H   UNL     1     -24.463 -11.009  12.159  0.00  0.00    +0.000 HD
ENDBRANCH  19  34
BRANCH  21  36
ATOM     36  O   UNL     1     -25.366 -11.715   8.837  0.00  0.00    +0.000 OA
ATOM     37  C   UNL     1     -24.254 -12.089   8.062  0.00  0.00    +0.000 C 
ENDBRANCH  21  36
BRANCH  20  38
ATOM     38  O   UNL     1     -24.683  -6.164   4.521  0.00  0.00    +0.000 OA
BRANCH  38  40
ATOM     39  O   UNL     1     -22.489  -6.947   4.472  0.00  0.00    +0.000 OA
ATOM     40  C   UNL     1     -23.388  -6.206   4.116  0.00  0.00    +0.000 C 
ATOM     41  C   UNL     1     -22.995  -5.151   3.150  0.00  0.00    +0.000 C 
ENDBRANCH  38  40
ENDBRANCH  20  38
BRANCH   6  42
ATOM     42  C   UNL     1     -23.157  -5.812  14.367  0.00  0.00    +0.000 C 
BRANCH  42  44
ATOM     43  O   UNL     1     -24.519  -5.276  16.429  0.00  0.00    +0.000 OA
ATOM     44  C   UNL     1     -24.009  -6.263  15.499  0.00  0.00    +0.000 C 
ATOM     45  C   UNL     1     -25.361  -5.717  15.445  0.00  0.00    +0.000 C 
ATOM     46  C   UNL     1     -23.586  -7.541  16.297  0.00  0.00    +0.000 C 
BRANCH  45  47
ATOM     47  C   UNL     1     -26.537  -6.422  15.859  0.00  0.00    +0.000 C 
ATOM     48  C   UNL     1     -27.431  -5.846  16.928  0.00  0.00    +0.000 C 
BRANCH  47  49
ATOM     49  C   UNL     1     -27.125  -7.394  15.011  0.00  0.00    +0.000 C 
ATOM     50  C   UNL     1     -27.571  -8.258  14.311  0.00  0.00    +0.000 C 
ATOM     51  C   UNL     1     -28.039  -9.426  13.437  0.00  0.00    +0.000 C 
ENDBRANCH  47  49
ENDBRANCH  45  47
ENDBRANCH  42  44
BRANCH  42  52
ATOM     52  O   UNL     1     -22.056  -4.984  14.542  0.00  0.00    +0.000 OA
ATOM     53  H   UNL     1     -22.305  -4.038  14.553  0.00  0.00    +0.000 HD
ENDBRANCH  42  52
ENDBRANCH   6  42
TORSDOF 12
ENDMDL
MODEL 7
REMARK VINA RESULT:      -5.7      1.584      2.362
REMARK  Name = 101808842_CandidaspongiolideB.pdbqt.pdb
REMARK  12 active torsions:
REMARK  status: ('A' for Active; 'I' for Inactive)
REMARK    1  A    between atoms: C_6  and  C_42
REMARK    2  A    between atoms: C_7  and  O_28
REMARK    3  A    between atoms: C_10  and  O_30
REMARK    4  A    between atoms: C_13  and  O_32
REMARK    5  A    between atoms: C_19  and  O_34
REMARK    6  A    between atoms: C_20  and  O_38
REMARK    7  A    between atoms: C_21  and  O_36
REMARK    8  A    between atoms: O_38  and  C_40
REMARK    9  A    between atoms: C_42  and  C_44
REMARK   10  A    between atoms: C_42  and  O_52
REMARK   11  A    between atoms: C_45  and  C_47
REMARK   12  A    between atoms: C_47  and  C_49
REMARK                            x       y       z     vdW  Elec       q    Type
REMARK                         _______ _______ _______ _____ _____    ______ ____
ROOT
ATOM      1  O   UNL     1      -8.690  -3.047  21.859  0.00  0.00    +0.000 OA
ATOM      2  O   UNL     1     -14.297  -3.523  25.802  0.00  0.00    +0.000 OA
ATOM      3  O   UNL     1     -10.169  -4.268  25.148  0.00  0.00    +0.000 OA
ATOM      4  O   UNL     1     -12.728  -1.836  25.922  0.00  0.00    +0.000 OA
ATOM      5  O   UNL     1     -12.909   0.228  23.807  0.00  0.00    +0.000 OA
ATOM      6  C   UNL     1     -12.307  -5.169  24.836  0.00  0.00    +0.000 C 
ATOM      7  C   UNL     1     -11.021  -4.141  22.842  0.00  0.00    +0.000 C 
ATOM      8  C   UNL     1     -11.074  -4.494  24.344  0.00  0.00    +0.000 C 
ATOM      9  C   UNL     1     -13.350  -4.360  25.370  0.00  0.00    +0.000 C 
ATOM     10  C   UNL     1     -11.637  -2.750  22.589  0.00  0.00    +0.000 C 
ATOM     11  C   UNL     1     -10.768  -1.802  21.971  0.00  0.00    +0.000 C 
ATOM     12  C   UNL     1      -9.622  -3.871  22.380  0.00  0.00    +0.000 C 
ATOM     13  C   UNL     1      -9.340  -1.752  21.529  0.00  0.00    +0.000 C 
ATOM     14  C   UNL     1      -8.583  -0.612  22.227  0.00  0.00    +0.000 C 
ATOM     15  C   UNL     1      -9.138   0.056  23.359  0.00  0.00    +0.000 C 
ATOM     16  C   UNL     1      -7.266   0.007  21.769  0.00  0.00    +0.000 C 
ATOM     17  C   UNL     1     -13.882  -2.236  25.958  0.00  0.00    +0.000 C 
ATOM     18  C   UNL     1      -9.716   0.635  24.365  0.00  0.00    +0.000 C 
ATOM     19  C   UNL     1     -15.046  -1.330  26.096  0.00  0.00    +0.000 C 
ATOM     20  C   UNL     1     -10.490   1.844  24.202  0.00  0.00    +0.000 C 
ATOM     21  C   UNL     1     -14.923   0.096  25.867  0.00  0.00    +0.000 C 
ATOM     22  C   UNL     1     -11.811   2.109  24.769  0.00  0.00    +0.000 C 
ATOM     23  C   UNL     1     -13.710   0.895  25.968  0.00  0.00    +0.000 C 
ATOM     24  C   UNL     1     -12.821   0.999  24.769  0.00  0.00    +0.000 C 
ATOM     25  C   UNL     1      -9.710  -0.114  25.667  0.00  0.00    +0.000 C 
ATOM     26  C   UNL     1     -12.306   3.550  24.887  0.00  0.00    +0.000 C 
ATOM     27  C   UNL     1     -13.268   1.380  27.344  0.00  0.00    +0.000 C 
ENDROOT
BRANCH   7  28
ATOM     28  O   UNL     1     -11.618  -5.072  21.962  0.00  0.00    +0.000 OA
ATOM     29  H   UNL     1     -12.558  -5.127  22.215  0.00  0.00    +0.000 HD
ENDBRANCH   7  28
BRANCH  10  30
ATOM     30  O   UNL     1     -12.933  -2.444  22.914  0.00  0.00    +0.000 OA
ATOM     31  H   UNL     1     -13.135  -2.694  23.840  0.00  0.00    +0.000 HD
ENDBRANCH  10  30
BRANCH  13  32
ATOM     32  O   UNL     1      -9.327  -1.585  20.114  0.00  0.00    +0.000 OA
ATOM     33  H   UNL     1     -10.257  -1.607  19.838  0.00  0.00    +0.000 HD
ENDBRANCH  13  32
BRANCH  19  34
ATOM     34  O   UNL     1     -16.327  -1.808  26.306  0.00  0.00    +0.000 OA
ATOM     35  H   UNL     1     -16.515  -2.005  27.247  0.00  0.00    +0.000 HD
ENDBRANCH  19  34
BRANCH  21  36
ATOM     36  O   UNL     1     -16.118   0.795  25.912  0.00  0.00    +0.000 OA
ATOM     37  C   UNL     1     -16.450   1.304  24.644  0.00  0.00    +0.000 C 
ENDBRANCH  21  36
BRANCH  20  38
ATOM     38  O   UNL     1      -9.768   2.947  23.686  0.00  0.00    +0.000 OA
BRANCH  38  40
ATOM     39  O   UNL     1     -10.778   2.645  21.607  0.00  0.00    +0.000 OA
ATOM     40  C   UNL     1      -9.865   2.995  22.332  0.00  0.00    +0.000 C 
ATOM     41  C   UNL     1      -8.651   3.482  21.632  0.00  0.00    +0.000 C 
ENDBRANCH  38  40
ENDBRANCH  20  38
BRANCH   6  42
ATOM     42  C   UNL     1     -12.306  -6.610  24.953  0.00  0.00    +0.000 C 
BRANCH  42  44
ATOM     43  O   UNL     1     -11.444  -8.727  26.036  0.00  0.00    +0.000 OA
ATOM     44  C   UNL     1     -11.711  -7.306  26.125  0.00  0.00    +0.000 C 
ATOM     45  C   UNL     1     -10.395  -7.870  25.843  0.00  0.00    +0.000 C 
ATOM     46  C   UNL     1     -12.264  -6.982  27.553  0.00  0.00    +0.000 C 
BRANCH  45  47
ATOM     47  C   UNL     1      -9.320  -7.931  26.787  0.00  0.00    +0.000 C 
ATOM     48  C   UNL     1      -8.600  -6.672  27.199  0.00  0.00    +0.000 C 
BRANCH  47  49
ATOM     49  C   UNL     1      -9.205  -9.034  27.670  0.00  0.00    +0.000 C 
ATOM     50  C   UNL     1      -9.064  -9.929  28.454  0.00  0.00    +0.000 C 
ATOM     51  C   UNL     1      -8.793 -11.008  29.507  0.00  0.00    +0.000 C 
ENDBRANCH  47  49
ENDBRANCH  45  47
ENDBRANCH  42  44
BRANCH  42  52
ATOM     52  O   UNL     1     -12.925  -7.292  23.914  0.00  0.00    +0.000 OA
ATOM     53  H   UNL     1     -12.879  -6.798  23.070  0.00  0.00    +0.000 HD
ENDBRANCH  42  52
ENDBRANCH   6  42
TORSDOF 12
ENDMDL
MODEL 8
REMARK VINA RESULT:      -5.7     16.754     20.237
REMARK  Name = 101808842_CandidaspongiolideB.pdbqt.pdb
REMARK  12 active torsions:
REMARK  status: ('A' for Active; 'I' for Inactive)
REMARK    1  A    between atoms: C_6  and  C_42
REMARK    2  A    between atoms: C_7  and  O_28
REMARK    3  A    between atoms: C_10  and  O_30
REMARK    4  A    between atoms: C_13  and  O_32
REMARK    5  A    between atoms: C_19  and  O_34
REMARK    6  A    between atoms: C_20  and  O_38
REMARK    7  A    between atoms: C_21  and  O_36
REMARK    8  A    between atoms: O_38  and  C_40
REMARK    9  A    between atoms: C_42  and  C_44
REMARK   10  A    between atoms: C_42  and  O_52
REMARK   11  A    between atoms: C_45  and  C_47
REMARK   12  A    between atoms: C_47  and  C_49
REMARK                            x       y       z     vdW  Elec       q    Type
REMARK                         _______ _______ _______ _____ _____    ______ ____
ROOT
ATOM      1  O   UNL     1     -23.118  -7.351  11.643  0.00  0.00    +0.000 OA
ATOM      2  O   UNL     1     -21.976  -1.730   7.860  0.00  0.00    +0.000 OA
ATOM      3  O   UNL     1     -24.052  -5.372   8.526  0.00  0.00    +0.000 OA
ATOM      4  O   UNL     1     -23.587  -1.923   9.500  0.00  0.00    +0.000 OA
ATOM      5  O   UNL     1     -22.603  -1.726  12.285  0.00  0.00    +0.000 OA
ATOM      6  C   UNL     1     -22.156  -4.457   7.501  0.00  0.00    +0.000 C 
ATOM      7  C   UNL     1     -21.932  -5.787   9.708  0.00  0.00    +0.000 C 
ATOM      8  C   UNL     1     -22.831  -5.223   8.587  0.00  0.00    +0.000 C 
ATOM      9  C   UNL     1     -22.066  -3.042   7.631  0.00  0.00    +0.000 C 
ATOM     10  C   UNL     1     -21.749  -4.748  10.832  0.00  0.00    +0.000 C 
ATOM     11  C   UNL     1     -22.174  -5.171  12.127  0.00  0.00    +0.000 C 
ATOM     12  C   UNL     1     -22.621  -6.865  10.487  0.00  0.00    +0.000 C 
ATOM     13  C   UNL     1     -22.832  -6.374  12.725  0.00  0.00    +0.000 C 
ATOM     14  C   UNL     1     -24.145  -5.996  13.427  0.00  0.00    +0.000 C 
ATOM     15  C   UNL     1     -24.749  -4.720  13.222  0.00  0.00    +0.000 C 
ATOM     16  C   UNL     1     -24.882  -6.833  14.468  0.00  0.00    +0.000 C 
ATOM     17  C   UNL     1     -22.730  -1.287   8.903  0.00  0.00    +0.000 C 
ATOM     18  C   UNL     1     -25.226  -3.532  13.010  0.00  0.00    +0.000 C 
ATOM     19  C   UNL     1     -22.313   0.077   9.302  0.00  0.00    +0.000 C 
ATOM     20  C   UNL     1     -24.948  -2.432  13.904  0.00  0.00    +0.000 C 
ATOM     21  C   UNL     1     -22.648   0.617  10.605  0.00  0.00    +0.000 C 
ATOM     22  C   UNL     1     -24.538  -1.084  13.516  0.00  0.00    +0.000 C 
ATOM     23  C   UNL     1     -23.753   0.212  11.460  0.00  0.00    +0.000 C 
ATOM     24  C   UNL     1     -23.547  -0.937  12.399  0.00  0.00    +0.000 C 
ATOM     25  C   UNL     1     -25.911  -3.309  11.692  0.00  0.00    +0.000 C 
ATOM     26  C   UNL     1     -24.706   0.069  14.503  0.00  0.00    +0.000 C 
ATOM     27  C   UNL     1     -25.136   0.796  11.193  0.00  0.00    +0.000 C 
ENDROOT
BRANCH   7  28
ATOM     28  O   UNL     1     -20.660  -6.257   9.308  0.00  0.00    +0.000 OA
ATOM     29  H   UNL     1     -20.608  -7.186   9.597  0.00  0.00    +0.000 HD
ENDBRANCH   7  28
BRANCH  10  30
ATOM     30  O   UNL     1     -21.201  -3.510  10.616  0.00  0.00    +0.000 OA
ATOM     31  H   UNL     1     -21.109  -3.011  11.455  0.00  0.00    +0.000 HD
ENDBRANCH  10  30
BRANCH  13  32
ATOM     32  O   UNL     1     -21.913  -6.965  13.639  0.00  0.00    +0.000 OA
ATOM     33  H   UNL     1     -21.036  -6.855  13.238  0.00  0.00    +0.000 HD
ENDBRANCH  13  32
BRANCH  19  34
ATOM     34  O   UNL     1     -21.469   0.844   8.520  0.00  0.00    +0.000 OA
ATOM     35  H   UNL     1     -21.277   1.723   8.907  0.00  0.00    +0.000 HD
ENDBRANCH  19  34
BRANCH  21  36
ATOM     36  O   UNL     1     -22.086   1.853  10.881  0.00  0.00    +0.000 OA
ATOM     37  C   UNL     1     -21.125   1.751  11.901  0.00  0.00    +0.000 C 
ENDBRANCH  21  36
BRANCH  20  38
ATOM     38  O   UNL     1     -25.389  -2.622  15.235  0.00  0.00    +0.000 OA
BRANCH  38  40
ATOM     39  O   UNL     1     -23.189  -2.985  15.912  0.00  0.00    +0.000 OA
ATOM     40  C   UNL     1     -24.394  -3.133  16.005  0.00  0.00    +0.000 C 
ATOM     41  C   UNL     1     -24.838  -4.062  17.073  0.00  0.00    +0.000 C 
ENDBRANCH  38  40
ENDBRANCH  20  38
BRANCH   6  42
ATOM     42  C   UNL     1     -21.823  -5.147   6.275  0.00  0.00    +0.000 C 
BRANCH  42  44
ATOM     43  O   UNL     1     -22.566  -6.311   4.157  0.00  0.00    +0.000 OA
ATOM     44  C   UNL     1     -22.798  -5.294   5.162  0.00  0.00    +0.000 C 
ATOM     45  C   UNL     1     -23.459  -6.595   5.154  0.00  0.00    +0.000 C 
ATOM     46  C   UNL     1     -23.343  -4.005   4.463  0.00  0.00    +0.000 C 
BRANCH  45  47
ATOM     47  C   UNL     1     -24.821  -6.810   4.770  0.00  0.00    +0.000 C 
ATOM     48  C   UNL     1     -25.144  -7.475   3.456  0.00  0.00    +0.000 C 
BRANCH  47  49
ATOM     49  C   UNL     1     -25.846  -6.833   5.750  0.00  0.00    +0.000 C 
ATOM     50  C   UNL     1     -26.672  -6.892   6.616  0.00  0.00    +0.000 C 
ATOM     51  C   UNL     1     -27.656  -7.053   7.778  0.00  0.00    +0.000 C 
ENDBRANCH  47  49
ENDBRANCH  45  47
ENDBRANCH  42  44
BRANCH  42  52
ATOM     52  O   UNL     1     -20.523  -5.631   6.200  0.00  0.00    +0.000 OA
ATOM     53  H   UNL     1     -20.414  -6.471   6.690  0.00  0.00    +0.000 HD
ENDBRANCH  42  52
ENDBRANCH   6  42
TORSDOF 12
ENDMDL
MODEL 9
REMARK VINA RESULT:      -5.6     19.299     22.305
REMARK  Name = 101808842_CandidaspongiolideB.pdbqt.pdb
REMARK  12 active torsions:
REMARK  status: ('A' for Active; 'I' for Inactive)
REMARK    1  A    between atoms: C_6  and  C_42
REMARK    2  A    between atoms: C_7  and  O_28
REMARK    3  A    between atoms: C_10  and  O_30
REMARK    4  A    between atoms: C_13  and  O_32
REMARK    5  A    between atoms: C_19  and  O_34
REMARK    6  A    between atoms: C_20  and  O_38
REMARK    7  A    between atoms: C_21  and  O_36
REMARK    8  A    between atoms: O_38  and  C_40
REMARK    9  A    between atoms: C_42  and  C_44
REMARK   10  A    between atoms: C_42  and  O_52
REMARK   11  A    between atoms: C_45  and  C_47
REMARK   12  A    between atoms: C_47  and  C_49
REMARK                            x       y       z     vdW  Elec       q    Type
REMARK                         _______ _______ _______ _____ _____    ______ ____
ROOT
ATOM      1  O   UNL     1       4.246 -13.381  11.454  0.00  0.00    +0.000 OA
ATOM      2  O   UNL     1       2.866 -16.523  17.406  0.00  0.00    +0.000 OA
ATOM      3  O   UNL     1       5.030 -16.308  13.761  0.00  0.00    +0.000 OA
ATOM      4  O   UNL     1       4.540 -14.969  17.081  0.00  0.00    +0.000 OA
ATOM      5  O   UNL     1       3.656 -12.145  16.971  0.00  0.00    +0.000 OA
ATOM      6  C   UNL     1       3.082 -17.167  14.734  0.00  0.00    +0.000 C 
ATOM      7  C   UNL     1       2.963 -15.102  13.182  0.00  0.00    +0.000 C 
ATOM      8  C   UNL     1       3.810 -16.190  13.877  0.00  0.00    +0.000 C 
ATOM      9  C   UNL     1       2.971 -16.889  16.127  0.00  0.00    +0.000 C 
ATOM     10  C   UNL     1       2.803 -13.871  14.096  0.00  0.00    +0.000 C 
ATOM     11  C   UNL     1       3.282 -12.642  13.552  0.00  0.00    +0.000 C 
ATOM     12  C   UNL     1       3.699 -14.463  12.045  0.00  0.00    +0.000 C 
ATOM     13  C   UNL     1       3.983 -12.195  12.309  0.00  0.00    +0.000 C 
ATOM     14  C   UNL     1       5.314 -11.504  12.641  0.00  0.00    +0.000 C 
ATOM     15  C   UNL     1       5.888 -11.597  13.944  0.00  0.00    +0.000 C 
ATOM     16  C   UNL     1       6.103 -10.581  11.718  0.00  0.00    +0.000 C 
ATOM     17  C   UNL     1       3.650 -15.467  17.756  0.00  0.00    +0.000 C 
ATOM     18  C   UNL     1       6.335 -11.702  15.157  0.00  0.00    +0.000 C 
ATOM     19  C   UNL     1       3.224 -14.916  19.064  0.00  0.00    +0.000 C 
ATOM     20  C   UNL     1       6.071 -10.690  16.154  0.00  0.00    +0.000 C 
ATOM     21  C   UNL     1       3.597 -13.576  19.475  0.00  0.00    +0.000 C 
ATOM     22  C   UNL     1       5.623 -10.923  17.525  0.00  0.00    +0.000 C 
ATOM     23  C   UNL     1       4.740 -12.806  19.007  0.00  0.00    +0.000 C 
ATOM     24  C   UNL     1       4.589 -11.985  17.765  0.00  0.00    +0.000 C 
ATOM     25  C   UNL     1       6.968 -13.013  15.528  0.00  0.00    +0.000 C 
ATOM     26  C   UNL     1       5.806  -9.829  18.575  0.00  0.00    +0.000 C 
ATOM     27  C   UNL     1       6.102 -13.059  19.646  0.00  0.00    +0.000 C 
ENDROOT
BRANCH   7  28
ATOM     28  O   UNL     1       1.686 -15.504  12.728  0.00  0.00    +0.000 OA
ATOM     29  H   UNL     1       1.207 -15.834  13.510  0.00  0.00    +0.000 HD
ENDBRANCH   7  28
BRANCH  10  30
ATOM     30  O   UNL     1       2.225 -13.940  15.337  0.00  0.00    +0.000 OA
ATOM     31  H   UNL     1       1.380 -14.436  15.309  0.00  0.00    +0.000 HD
ENDBRANCH  10  30
BRANCH  13  32
ATOM     32  O   UNL     1       3.109 -11.315  11.608  0.00  0.00    +0.000 OA
ATOM     33  H   UNL     1       2.228 -11.719  11.664  0.00  0.00    +0.000 HD
ENDBRANCH  13  32
BRANCH  19  34
ATOM     34  O   UNL     1       2.339 -15.585  19.888  0.00  0.00    +0.000 OA
ATOM     35  H   UNL     1       2.099 -16.474  19.555  0.00  0.00    +0.000 HD
ENDBRANCH  19  34
BRANCH  21  36
ATOM     36  O   UNL     1       3.025 -13.156  20.664  0.00  0.00    +0.000 OA
ATOM     37  C   UNL     1       2.088 -12.133  20.435  0.00  0.00    +0.000 C 
ENDBRANCH  21  36
BRANCH  20  38
ATOM     38  O   UNL     1       6.564  -9.402  15.838  0.00  0.00    +0.000 OA
BRANCH  38  40
ATOM     39  O   UNL     1       4.407  -8.557  15.587  0.00  0.00    +0.000 OA
ATOM     40  C   UNL     1       5.586  -8.631  15.296  0.00  0.00    +0.000 C 
ATOM     41  C   UNL     1       6.005  -7.809  14.133  0.00  0.00    +0.000 C 
ENDBRANCH  38  40
ENDBRANCH  20  38
BRANCH   6  42
ATOM     42  C   UNL     1       2.716 -18.446  14.167  0.00  0.00    +0.000 C 
BRANCH  42  44
ATOM     43  O   UNL     1       3.425 -20.659  13.173  0.00  0.00    +0.000 OA
ATOM     44  C   UNL     1       3.666 -19.588  14.116  0.00  0.00    +0.000 C 
ATOM     45  C   UNL     1       4.345 -19.706  12.830  0.00  0.00    +0.000 C 
ATOM     46  C   UNL     1       4.177 -20.202  15.462  0.00  0.00    +0.000 C 
BRANCH  45  47
ATOM     47  C   UNL     1       5.701 -20.136  12.665  0.00  0.00    +0.000 C 
ATOM     48  C   UNL     1       6.010 -21.392  11.892  0.00  0.00    +0.000 C 
BRANCH  47  49
ATOM     49  C   UNL     1       6.767 -19.211  12.808  0.00  0.00    +0.000 C 
ATOM     50  C   UNL     1       7.677 -18.454  12.991  0.00  0.00    +0.000 C 
ATOM     51  C   UNL     1       8.840 -17.522  13.343  0.00  0.00    +0.000 C 
ENDBRANCH  47  49
ENDBRANCH  45  47
ENDBRANCH  42  44
BRANCH  42  52
ATOM     52  O   UNL     1       1.410 -18.538  13.704  0.00  0.00    +0.000 OA
ATOM     53  H   UNL     1       1.332 -18.269  12.766  0.00  0.00    +0.000 HD
ENDBRANCH  42  52
ENDBRANCH   6  42
TORSDOF 12
ENDMDL
