MODEL 1
REMARK VINA RESULT:      -6.4      0.000      0.000
REMARK  Name = 101808841_CandidaspongiolideA.pdbqt.pdb
REMARK  13 active torsions:
REMARK  status: ('A' for Active; 'I' for Inactive)
REMARK    1  A    between atoms: C_6  and  C_39
REMARK    2  A    between atoms: C_9  and  O_27
REMARK    3  A    between atoms: C_9  and  C_51
REMARK    4  A    between atoms: C_10  and  O_29
REMARK    5  A    between atoms: C_14  and  O_31
REMARK    6  A    between atoms: C_15  and  O_33
REMARK    7  A    between atoms: C_20  and  O_35
REMARK    8  A    between atoms: O_35  and  C_37
REMARK    9  A    between atoms: C_39  and  C_41
REMARK   10  A    between atoms: C_39  and  O_49
REMARK   11  A    between atoms: C_42  and  C_44
REMARK   12  A    between atoms: C_44  and  C_46
REMARK   13  A    between atoms: C_51  and  O_52
REMARK                            x       y       z     vdW  Elec       q    Type
REMARK                         _______ _______ _______ _____ _____    ______ ____
ROOT
ATOM      1  O   UNL     1      -5.910  -6.977  -1.137  0.00  0.00    +0.000 OA
ATOM      2  O   UNL     1      -8.078  -5.794  -4.482  0.00  0.00    +0.000 OA
ATOM      3  O   UNL     1      -6.187  -9.228  -1.560  0.00  0.00    +0.000 OA
ATOM      4  O   UNL     1      -8.627  -0.643  -0.399  0.00  0.00    +0.000 OA
ATOM      5  O   UNL     1      -4.508  -4.616  -0.394  0.00  0.00    +0.000 OA
ATOM      6  C   UNL     1      -8.362  -6.329  -2.206  0.00  0.00    +0.000 C 
ATOM      7  C   UNL     1      -8.334  -5.369  -3.353  0.00  0.00    +0.000 C 
ATOM      8  C   UNL     1      -7.115  -6.694  -1.627  0.00  0.00    +0.000 C 
ATOM      9  C   UNL     1      -8.540  -3.871  -2.998  0.00  0.00    +0.000 C 
ATOM     10  C   UNL     1      -7.291  -3.300  -2.349  0.00  0.00    +0.000 C 
ATOM     11  C   UNL     1      -7.334  -2.255  -1.379  0.00  0.00    +0.000 C 
ATOM     12  C   UNL     1      -5.504  -8.265  -1.243  0.00  0.00    +0.000 C 
ATOM     13  C   UNL     1      -7.530  -1.190  -0.409  0.00  0.00    +0.000 C 
ATOM     14  C   UNL     1      -4.053  -8.391  -0.970  0.00  0.00    +0.000 C 
ATOM     15  C   UNL     1      -3.205  -7.316  -0.497  0.00  0.00    +0.000 C 
ATOM     16  C   UNL     1      -6.417  -0.804   0.518  0.00  0.00    +0.000 C 
ATOM     17  C   UNL     1      -3.447  -6.465   0.662  0.00  0.00    +0.000 C 
ATOM     18  C   UNL     1      -2.900  -4.052   1.289  0.00  0.00    +0.000 C 
ATOM     19  C   UNL     1      -3.676  -5.006   0.427  0.00  0.00    +0.000 C 
ATOM     20  C   UNL     1      -3.330  -2.654   1.367  0.00  0.00    +0.000 C 
ATOM     21  C   UNL     1      -5.122  -1.373   0.420  0.00  0.00    +0.000 C 
ATOM     22  C   UNL     1      -3.943  -1.895   0.301  0.00  0.00    +0.000 C 
ATOM     23  C   UNL     1      -6.576   0.224   1.618  0.00  0.00    +0.000 C 
ATOM     24  C   UNL     1      -4.117  -7.076   1.894  0.00  0.00    +0.000 C 
ATOM     25  C   UNL     1      -1.625  -4.499   1.995  0.00  0.00    +0.000 C 
ATOM     26  C   UNL     1      -3.326  -1.811  -1.073  0.00  0.00    +0.000 C 
ENDROOT
BRANCH   9  27
ATOM     27  O   UNL     1      -9.621  -3.755  -2.073  0.00  0.00    +0.000 OA
ATOM     28  H   UNL     1      -9.724  -2.807  -1.870  0.00  0.00    +0.000 HD
ENDBRANCH   9  27
BRANCH  10  29
ATOM     29  O   UNL     1      -6.065  -3.798  -2.741  0.00  0.00    +0.000 OA
ATOM     30  H   UNL     1      -5.304  -3.356  -2.318  0.00  0.00    +0.000 HD
ENDBRANCH  10  29
BRANCH  14  31
ATOM     31  O   UNL     1      -3.432  -9.601  -1.226  0.00  0.00    +0.000 OA
ATOM     32  H   UNL     1      -3.495 -10.194  -0.448  0.00  0.00    +0.000 HD
ENDBRANCH  14  31
BRANCH  15  33
ATOM     33  O   UNL     1      -1.877  -7.442  -0.867  0.00  0.00    +0.000 OA
ATOM     34  C   UNL     1      -1.074  -7.655   0.263  0.00  0.00    +0.000 C 
ENDBRANCH  15  33
BRANCH  20  35
ATOM     35  O   UNL     1      -2.817  -1.841   2.413  0.00  0.00    +0.000 OA
BRANCH  35  37
ATOM     36  O   UNL     1      -4.713  -2.082   3.751  0.00  0.00    +0.000 OA
ATOM     37  C   UNL     1      -3.523  -1.910   3.571  0.00  0.00    +0.000 C 
ATOM     38  C   UNL     1      -2.719  -1.689   4.798  0.00  0.00    +0.000 C 
ENDBRANCH  35  37
ENDBRANCH  20  35
BRANCH   6  39
ATOM     39  C   UNL     1      -9.608  -6.936  -1.784  0.00  0.00    +0.000 C 
BRANCH  39  41
ATOM     40  O   UNL     1      -9.363  -9.193  -2.946  0.00  0.00    +0.000 OA
ATOM     41  C   UNL     1     -10.201  -8.092  -2.516  0.00  0.00    +0.000 C 
ATOM     42  C   UNL     1     -10.100  -9.366  -1.811  0.00  0.00    +0.000 C 
ATOM     43  C   UNL     1     -11.240  -7.788  -3.650  0.00  0.00    +0.000 C 
BRANCH  42  44
ATOM     44  C   UNL     1     -11.163 -10.330  -1.816  0.00  0.00    +0.000 C 
ATOM     45  C   UNL     1     -11.159 -11.455  -2.820  0.00  0.00    +0.000 C 
BRANCH  44  46
ATOM     46  C   UNL     1     -11.872 -10.574  -0.609  0.00  0.00    +0.000 C 
ATOM     47  C   UNL     1     -12.543 -10.826   0.352  0.00  0.00    +0.000 C 
ATOM     48  C   UNL     1     -13.509 -11.186   1.491  0.00  0.00    +0.000 C 
ENDBRANCH  44  46
ENDBRANCH  42  44
ENDBRANCH  39  41
BRANCH  39  49
ATOM     49  O   UNL     1     -10.014  -6.608  -0.499  0.00  0.00    +0.000 OA
ATOM     50  H   UNL     1      -9.480  -5.888  -0.110  0.00  0.00    +0.000 HD
ENDBRANCH  39  49
ENDBRANCH   6  39
BRANCH   9  51
ATOM     51  C   UNL     1      -8.857  -3.082  -4.212  0.00  0.00    +0.000 C 
BRANCH  51  52
ATOM     52  O   UNL     1      -9.117  -2.376  -5.313  0.00  0.00    +0.000 OA
ATOM     53  H   UNL     1     -10.008  -1.982  -5.266  0.00  0.00    +0.000 HD
ENDBRANCH  51  52
ENDBRANCH   9  51
TORSDOF 13
ENDMDL
MODEL 2
REMARK VINA RESULT:      -6.3     21.569     26.546
REMARK  Name = 101808841_CandidaspongiolideA.pdbqt.pdb
REMARK  13 active torsions:
REMARK  status: ('A' for Active; 'I' for Inactive)
REMARK    1  A    between atoms: C_6  and  C_39
REMARK    2  A    between atoms: C_9  and  O_27
REMARK    3  A    between atoms: C_9  and  C_51
REMARK    4  A    between atoms: C_10  and  O_29
REMARK    5  A    between atoms: C_14  and  O_31
REMARK    6  A    between atoms: C_15  and  O_33
REMARK    7  A    between atoms: C_20  and  O_35
REMARK    8  A    between atoms: O_35  and  C_37
REMARK    9  A    between atoms: C_39  and  C_41
REMARK   10  A    between atoms: C_39  and  O_49
REMARK   11  A    between atoms: C_42  and  C_44
REMARK   12  A    between atoms: C_44  and  C_46
REMARK   13  A    between atoms: C_51  and  O_52
REMARK                            x       y       z     vdW  Elec       q    Type
REMARK                         _______ _______ _______ _____ _____    ______ ____
ROOT
ATOM      1  O   UNL     1      -7.121  -1.523  24.374  0.00  0.00    +0.000 OA
ATOM      2  O   UNL     1     -11.077  -2.801  24.320  0.00  0.00    +0.000 OA
ATOM      3  O   UNL     1      -7.390  -0.107  22.573  0.00  0.00    +0.000 OA
ATOM      4  O   UNL     1      -7.895  -7.791  27.231  0.00  0.00    +0.000 OA
ATOM      5  O   UNL     1      -6.205  -2.330  26.943  0.00  0.00    +0.000 OA
ATOM      6  C   UNL     1      -8.967  -3.324  23.414  0.00  0.00    +0.000 C 
ATOM      7  C   UNL     1     -10.134  -3.594  24.311  0.00  0.00    +0.000 C 
ATOM      8  C   UNL     1      -7.991  -2.396  23.871  0.00  0.00    +0.000 C 
ATOM      9  C   UNL     1     -10.009  -4.829  25.245  0.00  0.00    +0.000 C 
ATOM     10  C   UNL     1      -9.056  -4.536  26.392  0.00  0.00    +0.000 C 
ATOM     11  C   UNL     1      -8.256  -5.543  27.007  0.00  0.00    +0.000 C 
ATOM     12  C   UNL     1      -6.968  -0.363  23.692  0.00  0.00    +0.000 C 
ATOM     13  C   UNL     1      -7.505  -6.670  27.538  0.00  0.00    +0.000 C 
ATOM     14  C   UNL     1      -6.240   0.641  24.502  0.00  0.00    +0.000 C 
ATOM     15  C   UNL     1      -5.629   0.378  25.789  0.00  0.00    +0.000 C 
ATOM     16  C   UNL     1      -6.315  -6.432  28.418  0.00  0.00    +0.000 C 
ATOM     17  C   UNL     1      -4.695  -0.696  26.103  0.00  0.00    +0.000 C 
ATOM     18  C   UNL     1      -4.163  -2.094  28.172  0.00  0.00    +0.000 C 
ATOM     19  C   UNL     1      -5.129  -1.745  27.078  0.00  0.00    +0.000 C 
ATOM     20  C   UNL     1      -4.360  -3.334  28.925  0.00  0.00    +0.000 C 
ATOM     21  C   UNL     1      -5.944  -5.133  28.850  0.00  0.00    +0.000 C 
ATOM     22  C   UNL     1      -5.633  -3.939  29.244  0.00  0.00    +0.000 C 
ATOM     23  C   UNL     1      -5.427  -7.547  28.928  0.00  0.00    +0.000 C 
ATOM     24  C   UNL     1      -3.684  -1.125  25.038  0.00  0.00    +0.000 C 
ATOM     25  C   UNL     1      -3.051  -1.129  28.568  0.00  0.00    +0.000 C 
ATOM     26  C   UNL     1      -6.743  -3.158  29.902  0.00  0.00    +0.000 C 
ENDROOT
BRANCH   9  27
ATOM     27  O   UNL     1      -9.488  -5.929  24.498  0.00  0.00    +0.000 OA
ATOM     28  H   UNL     1     -10.250  -6.403  24.118  0.00  0.00    +0.000 HD
ENDBRANCH   9  27
BRANCH  10  29
ATOM     29  O   UNL     1      -8.991  -3.244  26.873  0.00  0.00    +0.000 OA
ATOM     30  H   UNL     1      -9.852  -2.786  26.895  0.00  0.00    +0.000 HD
ENDBRANCH  10  29
BRANCH  14  31
ATOM     31  O   UNL     1      -6.169   1.943  24.040  0.00  0.00    +0.000 OA
ATOM     32  H   UNL     1      -7.055   2.362  24.049  0.00  0.00    +0.000 HD
ENDBRANCH  14  31
BRANCH  15  33
ATOM     33  O   UNL     1      -5.547   1.489  26.612  0.00  0.00    +0.000 OA
ATOM     34  C   UNL     1      -6.656   1.544  27.469  0.00  0.00    +0.000 C 
ENDBRANCH  15  33
BRANCH  20  35
ATOM     35  O   UNL     1      -3.290  -3.828  29.718  0.00  0.00    +0.000 OA
BRANCH  35  37
ATOM     36  O   UNL     1      -2.242  -4.969  27.973  0.00  0.00    +0.000 OA
ATOM     37  C   UNL     1      -2.575  -4.824  29.134  0.00  0.00    +0.000 C 
ATOM     38  C   UNL     1      -2.189  -5.926  30.049  0.00  0.00    +0.000 C 
ENDBRANCH  35  37
ENDBRANCH  20  35
BRANCH   6  39
ATOM     39  C   UNL     1      -8.904  -3.912  22.092  0.00  0.00    +0.000 C 
BRANCH  39  41
ATOM     40  O   UNL     1     -10.591  -2.456  20.850  0.00  0.00    +0.000 OA
ATOM     41  C   UNL     1     -10.022  -3.763  21.117  0.00  0.00    +0.000 C 
ATOM     42  C   UNL     1      -9.696  -2.952  19.947  0.00  0.00    +0.000 C 
ATOM     43  C   UNL     1     -11.188  -4.809  21.172  0.00  0.00    +0.000 C 
BRANCH  42  44
ATOM     44  C   UNL     1     -10.157  -3.289  18.630  0.00  0.00    +0.000 C 
ATOM     45  C   UNL     1     -10.873  -2.259  17.794  0.00  0.00    +0.000 C 
BRANCH  44  46
ATOM     46  C   UNL     1      -9.492  -4.321  17.915  0.00  0.00    +0.000 C 
ATOM     47  C   UNL     1      -8.885  -5.117  17.256  0.00  0.00    +0.000 C 
ATOM     48  C   UNL     1      -8.074  -6.028  16.322  0.00  0.00    +0.000 C 
ENDBRANCH  44  46
ENDBRANCH  42  44
ENDBRANCH  39  41
BRANCH  39  49
ATOM     49  O   UNL     1      -7.637  -4.307  21.686  0.00  0.00    +0.000 OA
ATOM     50  H   UNL     1      -7.341  -3.843  20.879  0.00  0.00    +0.000 HD
ENDBRANCH  39  49
ENDBRANCH   6  39
BRANCH   9  51
ATOM     51  C   UNL     1     -11.331  -5.205  25.800  0.00  0.00    +0.000 C 
BRANCH  51  52
ATOM     52  O   UNL     1     -12.507  -5.562  26.314  0.00  0.00    +0.000 OA
ATOM     53  H   UNL     1     -13.201  -4.924  26.063  0.00  0.00    +0.000 HD
ENDBRANCH  51  52
ENDBRANCH   9  51
TORSDOF 13
ENDMDL
MODEL 3
REMARK VINA RESULT:      -6.3     23.192     27.404
REMARK  Name = 101808841_CandidaspongiolideA.pdbqt.pdb
REMARK  13 active torsions:
REMARK  status: ('A' for Active; 'I' for Inactive)
REMARK    1  A    between atoms: C_6  and  C_39
REMARK    2  A    between atoms: C_9  and  O_27
REMARK    3  A    between atoms: C_9  and  C_51
REMARK    4  A    between atoms: C_10  and  O_29
REMARK    5  A    between atoms: C_14  and  O_31
REMARK    6  A    between atoms: C_15  and  O_33
REMARK    7  A    between atoms: C_20  and  O_35
REMARK    8  A    between atoms: O_35  and  C_37
REMARK    9  A    between atoms: C_39  and  C_41
REMARK   10  A    between atoms: C_39  and  O_49
REMARK   11  A    between atoms: C_42  and  C_44
REMARK   12  A    between atoms: C_44  and  C_46
REMARK   13  A    between atoms: C_51  and  O_52
REMARK                            x       y       z     vdW  Elec       q    Type
REMARK                         _______ _______ _______ _____ _____    ______ ____
ROOT
ATOM      1  O   UNL     1      -9.811  -4.989  25.148  0.00  0.00    +0.000 OA
ATOM      2  O   UNL     1      -9.776  -0.870  24.585  0.00  0.00    +0.000 OA
ATOM      3  O   UNL     1      -8.169  -5.376  23.576  0.00  0.00    +0.000 OA
ATOM      4  O   UNL     1     -15.830  -2.045  26.923  0.00  0.00    +0.000 OA
ATOM      5  O   UNL     1     -11.176  -5.302  27.625  0.00  0.00    +0.000 OA
ATOM      6  C   UNL     1     -10.814  -2.824  23.777  0.00  0.00    +0.000 C 
ATOM      7  C   UNL     1     -10.816  -1.529  24.527  0.00  0.00    +0.000 C 
ATOM      8  C   UNL     1     -10.299  -3.968  24.449  0.00  0.00    +0.000 C 
ATOM      9  C   UNL     1     -12.134  -1.166  25.263  0.00  0.00    +0.000 C 
ATOM     10  C   UNL     1     -12.298  -2.014  26.513  0.00  0.00    +0.000 C 
ATOM     11  C   UNL     1     -13.573  -2.398  27.024  0.00  0.00    +0.000 C 
ATOM     12  C   UNL     1      -8.681  -5.563  24.670  0.00  0.00    +0.000 C 
ATOM     13  C   UNL     1     -14.933  -2.710  27.431  0.00  0.00    +0.000 C 
ATOM     14  C   UNL     1      -8.063  -6.451  25.682  0.00  0.00    +0.000 C 
ATOM     15  C   UNL     1      -8.660  -6.793  26.956  0.00  0.00    +0.000 C 
ATOM     16  C   UNL     1     -15.190  -3.799  28.428  0.00  0.00    +0.000 C 
ATOM     17  C   UNL     1     -10.002  -7.320  27.171  0.00  0.00    +0.000 C 
ATOM     18  C   UNL     1     -11.742  -7.156  29.032  0.00  0.00    +0.000 C 
ATOM     19  C   UNL     1     -10.976  -6.478  27.933  0.00  0.00    +0.000 C 
ATOM     20  C   UNL     1     -12.943  -6.508  29.564  0.00  0.00    +0.000 C 
ATOM     21  C   UNL     1     -14.136  -4.483  29.084  0.00  0.00    +0.000 C 
ATOM     22  C   UNL     1     -13.157  -5.083  29.683  0.00  0.00    +0.000 C 
ATOM     23  C   UNL     1     -16.580  -4.247  28.826  0.00  0.00    +0.000 C 
ATOM     24  C   UNL     1     -10.589  -8.281  26.135  0.00  0.00    +0.000 C 
ATOM     25  C   UNL     1     -11.229  -8.446  29.659  0.00  0.00    +0.000 C 
ATOM     26  C   UNL     1     -12.157  -4.184  30.366  0.00  0.00    +0.000 C 
ENDROOT
BRANCH   9  27
ATOM     27  O   UNL     1     -13.240  -1.425  24.397  0.00  0.00    +0.000 OA
ATOM     28  H   UNL     1     -13.083  -0.924  23.576  0.00  0.00    +0.000 HD
ENDBRANCH   9  27
BRANCH  10  29
ATOM     29  O   UNL     1     -11.161  -2.401  27.194  0.00  0.00    +0.000 OA
ATOM     30  H   UNL     1     -11.281  -2.468  28.160  0.00  0.00    +0.000 HD
ENDBRANCH  10  29
BRANCH  14  31
ATOM     31  O   UNL     1      -6.800  -6.961  25.436  0.00  0.00    +0.000 OA
ATOM     32  H   UNL     1      -6.348  -6.442  24.738  0.00  0.00    +0.000 HD
ENDBRANCH  14  31
BRANCH  15  33
ATOM     33  O   UNL     1      -7.741  -7.100  27.946  0.00  0.00    +0.000 OA
ATOM     34  C   UNL     1      -7.416  -5.950  28.682  0.00  0.00    +0.000 C 
ENDBRANCH  15  33
BRANCH  20  35
ATOM     35  O   UNL     1     -13.841  -7.278  30.352  0.00  0.00    +0.000 OA
BRANCH  35  37
ATOM     36  O   UNL     1     -15.045  -8.010  28.493  0.00  0.00    +0.000 OA
ATOM     37  C   UNL     1     -14.920  -7.745  29.673  0.00  0.00    +0.000 C 
ATOM     38  C   UNL     1     -16.145  -7.905  30.496  0.00  0.00    +0.000 C 
ENDBRANCH  35  37
ENDBRANCH  20  35
BRANCH   6  39
ATOM     39  C   UNL     1     -11.222  -2.872  22.388  0.00  0.00    +0.000 C 
BRANCH  39  41
ATOM     40  O   UNL     1     -10.048  -4.621  20.951  0.00  0.00    +0.000 OA
ATOM     41  C   UNL     1     -10.264  -3.232  21.304  0.00  0.00    +0.000 C 
ATOM     42  C   UNL     1     -10.877  -3.888  20.153  0.00  0.00    +0.000 C 
ATOM     43  C   UNL     1      -8.883  -2.492  21.270  0.00  0.00    +0.000 C 
BRANCH  42  44
ATOM     44  C   UNL     1     -10.471  -3.606  18.805  0.00  0.00    +0.000 C 
ATOM     45  C   UNL     1     -10.612  -2.212  18.249  0.00  0.00    +0.000 C 
BRANCH  44  46
ATOM     46  C   UNL     1      -9.469  -4.418  18.209  0.00  0.00    +0.000 C 
ATOM     47  C   UNL     1      -8.657  -5.069  17.613  0.00  0.00    +0.000 C 
ATOM     48  C   UNL     1      -7.691  -5.872  16.729  0.00  0.00    +0.000 C 
ENDBRANCH  44  46
ENDBRANCH  42  44
ENDBRANCH  39  41
BRANCH  39  49
ATOM     49  O   UNL     1     -12.594  -2.903  22.182  0.00  0.00    +0.000 OA
ATOM     50  H   UNL     1     -13.099  -2.693  22.992  0.00  0.00    +0.000 HD
ENDBRANCH  39  49
ENDBRANCH   6  39
BRANCH   9  51
ATOM     51  C   UNL     1     -12.146   0.265  25.647  0.00  0.00    +0.000 C 
BRANCH  51  52
ATOM     52  O   UNL     1     -12.160   1.545  26.017  0.00  0.00    +0.000 OA
ATOM     53  H   UNL     1     -11.586   1.685  26.793  0.00  0.00    +0.000 HD
ENDBRANCH  51  52
ENDBRANCH   9  51
TORSDOF 13
ENDMDL
MODEL 4
REMARK VINA RESULT:      -5.9     17.376     22.279
REMARK  Name = 101808841_CandidaspongiolideA.pdbqt.pdb
REMARK  13 active torsions:
REMARK  status: ('A' for Active; 'I' for Inactive)
REMARK    1  A    between atoms: C_6  and  C_39
REMARK    2  A    between atoms: C_9  and  O_27
REMARK    3  A    between atoms: C_9  and  C_51
REMARK    4  A    between atoms: C_10  and  O_29
REMARK    5  A    between atoms: C_14  and  O_31
REMARK    6  A    between atoms: C_15  and  O_33
REMARK    7  A    between atoms: C_20  and  O_35
REMARK    8  A    between atoms: O_35  and  C_37
REMARK    9  A    between atoms: C_39  and  C_41
REMARK   10  A    between atoms: C_39  and  O_49
REMARK   11  A    between atoms: C_42  and  C_44
REMARK   12  A    between atoms: C_44  and  C_46
REMARK   13  A    between atoms: C_51  and  O_52
REMARK                            x       y       z     vdW  Elec       q    Type
REMARK                         _______ _______ _______ _____ _____    ______ ____
ROOT
ATOM      1  O   UNL     1     -23.992  -0.909  11.359  0.00  0.00    +0.000 OA
ATOM      2  O   UNL     1     -22.855  -3.313  14.555  0.00  0.00    +0.000 OA
ATOM      3  O   UNL     1     -24.671   0.834  12.708  0.00  0.00    +0.000 OA
ATOM      4  O   UNL     1     -24.137  -7.652   9.757  0.00  0.00    +0.000 OA
ATOM      5  O   UNL     1     -22.726  -2.141   9.129  0.00  0.00    +0.000 OA
ATOM      6  C   UNL     1     -24.720  -2.813  13.208  0.00  0.00    +0.000 C 
ATOM      7  C   UNL     1     -23.621  -3.713  13.677  0.00  0.00    +0.000 C 
ATOM      8  C   UNL     1     -24.385  -1.811  12.254  0.00  0.00    +0.000 C 
ATOM      9  C   UNL     1     -23.480  -5.068  12.931  0.00  0.00    +0.000 C 
ATOM     10  C   UNL     1     -22.869  -4.859  11.556  0.00  0.00    +0.000 C 
ATOM     11  C   UNL     1     -23.176  -5.692  10.440  0.00  0.00    +0.000 C 
ATOM     12  C   UNL     1     -24.089   0.390  11.728  0.00  0.00    +0.000 C 
ATOM     13  C   UNL     1     -23.579  -6.621   9.397  0.00  0.00    +0.000 C 
ATOM     14  C   UNL     1     -23.335   1.267  10.803  0.00  0.00    +0.000 C 
ATOM     15  C   UNL     1     -22.705   0.825   9.576  0.00  0.00    +0.000 C 
ATOM     16  C   UNL     1     -23.305  -6.301   7.958  0.00  0.00    +0.000 C 
ATOM     17  C   UNL     1     -23.336   0.070   8.500  0.00  0.00    +0.000 C 
ATOM     18  C   UNL     1     -22.554  -1.655   6.790  0.00  0.00    +0.000 C 
ATOM     19  C   UNL     1     -22.837  -1.312   8.223  0.00  0.00    +0.000 C 
ATOM     20  C   UNL     1     -22.416  -3.063   6.410  0.00  0.00    +0.000 C 
ATOM     21  C   UNL     1     -22.564  -5.157   7.568  0.00  0.00    +0.000 C 
ATOM     22  C   UNL     1     -21.870  -4.115   7.237  0.00  0.00    +0.000 C 
ATOM     23  C   UNL     1     -23.781  -7.169   6.812  0.00  0.00    +0.000 C 
ATOM     24  C   UNL     1     -24.804   0.349   8.170  0.00  0.00    +0.000 C 
ATOM     25  C   UNL     1     -22.310  -0.559   5.759  0.00  0.00    +0.000 C 
ATOM     26  C   UNL     1     -20.526  -3.984   7.908  0.00  0.00    +0.000 C 
ENDROOT
BRANCH   9  27
ATOM     27  O   UNL     1     -24.775  -5.646  12.764  0.00  0.00    +0.000 OA
ATOM     28  H   UNL     1     -25.292  -5.035  12.209  0.00  0.00    +0.000 HD
ENDBRANCH   9  27
BRANCH  10  29
ATOM     29  O   UNL     1     -21.957  -3.835  11.395  0.00  0.00    +0.000 OA
ATOM     30  H   UNL     1     -21.090  -4.009  11.808  0.00  0.00    +0.000 HD
ENDBRANCH  10  29
BRANCH  14  31
ATOM     31  O   UNL     1     -23.162   2.598  11.142  0.00  0.00    +0.000 OA
ATOM     32  H   UNL     1     -22.300   2.731  11.591  0.00  0.00    +0.000 HD
ENDBRANCH  14  31
BRANCH  15  33
ATOM     33  O   UNL     1     -21.611   1.585   9.198  0.00  0.00    +0.000 OA
ATOM     34  C   UNL     1     -20.463   1.161   9.884  0.00  0.00    +0.000 C 
ENDBRANCH  15  33
BRANCH  20  35
ATOM     35  O   UNL     1     -22.477  -3.407   5.032  0.00  0.00    +0.000 OA
BRANCH  35  37
ATOM     36  O   UNL     1     -24.800  -3.619   4.981  0.00  0.00    +0.000 OA
ATOM     37  C   UNL     1     -23.672  -3.916   4.637  0.00  0.00    +0.000 C 
ATOM     38  C   UNL     1     -23.575  -5.044   3.677  0.00  0.00    +0.000 C 
ENDBRANCH  35  37
ENDBRANCH  20  35
BRANCH   6  39
ATOM     39  C   UNL     1     -26.044  -2.901  13.792  0.00  0.00    +0.000 C 
BRANCH  39  41
ATOM     40  O   UNL     1     -27.544  -3.390  15.795  0.00  0.00    +0.000 OA
ATOM     41  C   UNL     1     -26.240  -3.048  15.262  0.00  0.00    +0.000 C 
ATOM     42  C   UNL     1     -26.624  -4.391  15.687  0.00  0.00    +0.000 C 
ATOM     43  C   UNL     1     -25.587  -1.976  16.200  0.00  0.00    +0.000 C 
BRANCH  42  44
ATOM     44  C   UNL     1     -26.109  -4.991  16.885  0.00  0.00    +0.000 C 
ATOM     45  C   UNL     1     -26.865  -4.857  18.183  0.00  0.00    +0.000 C 
BRANCH  44  46
ATOM     46  C   UNL     1     -25.257  -6.123  16.773  0.00  0.00    +0.000 C 
ATOM     47  C   UNL     1     -24.623  -7.137  16.687  0.00  0.00    +0.000 C 
ATOM     48  C   UNL     1     -23.931  -8.506  16.620  0.00  0.00    +0.000 C 
ENDBRANCH  44  46
ENDBRANCH  42  44
ENDBRANCH  39  41
BRANCH  39  49
ATOM     49  O   UNL     1     -27.079  -2.501  12.959  0.00  0.00    +0.000 OA
ATOM     50  H   UNL     1     -27.096  -1.535  12.821  0.00  0.00    +0.000 HD
ENDBRANCH  39  49
ENDBRANCH   6  39
BRANCH   9  51
ATOM     51  C   UNL     1     -22.628  -6.006  13.700  0.00  0.00    +0.000 C 
BRANCH  51  52
ATOM     52  O   UNL     1     -21.869  -6.869  14.375  0.00  0.00    +0.000 OA
ATOM     53  H   UNL     1     -22.293  -7.746  14.410  0.00  0.00    +0.000 HD
ENDBRANCH  51  52
ENDBRANCH   9  51
TORSDOF 13
ENDMDL
MODEL 5
REMARK VINA RESULT:      -5.8      1.749      2.890
REMARK  Name = 101808841_CandidaspongiolideA.pdbqt.pdb
REMARK  13 active torsions:
REMARK  status: ('A' for Active; 'I' for Inactive)
REMARK    1  A    between atoms: C_6  and  C_39
REMARK    2  A    between atoms: C_9  and  O_27
REMARK    3  A    between atoms: C_9  and  C_51
REMARK    4  A    between atoms: C_10  and  O_29
REMARK    5  A    between atoms: C_14  and  O_31
REMARK    6  A    between atoms: C_15  and  O_33
REMARK    7  A    between atoms: C_20  and  O_35
REMARK    8  A    between atoms: O_35  and  C_37
REMARK    9  A    between atoms: C_39  and  C_41
REMARK   10  A    between atoms: C_39  and  O_49
REMARK   11  A    between atoms: C_42  and  C_44
REMARK   12  A    between atoms: C_44  and  C_46
REMARK   13  A    between atoms: C_51  and  O_52
REMARK                            x       y       z     vdW  Elec       q    Type
REMARK                         _______ _______ _______ _____ _____    ______ ____
ROOT
ATOM      1  O   UNL     1      -6.174  -6.799  -0.940  0.00  0.00    +0.000 OA
ATOM      2  O   UNL     1      -8.194  -5.482  -4.326  0.00  0.00    +0.000 OA
ATOM      3  O   UNL     1      -6.643  -9.023  -1.333  0.00  0.00    +0.000 OA
ATOM      4  O   UNL     1      -8.331  -0.240  -0.326  0.00  0.00    +0.000 OA
ATOM      5  O   UNL     1      -4.577  -4.559  -0.215  0.00  0.00    +0.000 OA
ATOM      6  C   UNL     1      -8.548  -5.955  -2.046  0.00  0.00    +0.000 C 
ATOM      7  C   UNL     1      -8.423  -5.019  -3.207  0.00  0.00    +0.000 C 
ATOM      8  C   UNL     1      -7.343  -6.419  -1.447  0.00  0.00    +0.000 C 
ATOM      9  C   UNL     1      -8.500  -3.504  -2.876  0.00  0.00    +0.000 C 
ATOM     10  C   UNL     1      -7.213  -3.034  -2.221  0.00  0.00    +0.000 C 
ATOM     11  C   UNL     1      -7.174  -1.975  -1.267  0.00  0.00    +0.000 C 
ATOM     12  C   UNL     1      -5.880  -8.119  -1.022  0.00  0.00    +0.000 C 
ATOM     13  C   UNL     1      -7.285  -0.882  -0.315  0.00  0.00    +0.000 C 
ATOM     14  C   UNL     1      -4.450  -8.368  -0.730  0.00  0.00    +0.000 C 
ATOM     15  C   UNL     1      -3.515  -7.364  -0.263  0.00  0.00    +0.000 C 
ATOM     16  C   UNL     1      -6.153  -0.581   0.620  0.00  0.00    +0.000 C 
ATOM     17  C   UNL     1      -3.694  -6.478   0.880  0.00  0.00    +0.000 C 
ATOM     18  C   UNL     1      -2.944  -4.113   1.480  0.00  0.00    +0.000 C 
ATOM     19  C   UNL     1      -3.791  -5.007   0.622  0.00  0.00    +0.000 C 
ATOM     20  C   UNL     1      -3.250  -2.681   1.532  0.00  0.00    +0.000 C 
ATOM     21  C   UNL     1      -4.912  -1.262   0.546  0.00  0.00    +0.000 C 
ATOM     22  C   UNL     1      -3.782  -1.887   0.448  0.00  0.00    +0.000 C 
ATOM     23  C   UNL     1      -6.232   0.475   1.703  0.00  0.00    +0.000 C 
ATOM     24  C   UNL     1      -4.428  -7.008   2.113  0.00  0.00    +0.000 C 
ATOM     25  C   UNL     1      -1.720  -4.659   2.206  0.00  0.00    +0.000 C 
ATOM     26  C   UNL     1      -3.146  -1.879  -0.919  0.00  0.00    +0.000 C 
ENDROOT
BRANCH   9  27
ATOM     27  O   UNL     1      -9.577  -3.279  -1.965  0.00  0.00    +0.000 OA
ATOM     28  H   UNL     1      -9.278  -3.582  -1.088  0.00  0.00    +0.000 HD
ENDBRANCH   9  27
BRANCH  10  29
ATOM     29  O   UNL     1      -6.031  -3.644  -2.591  0.00  0.00    +0.000 OA
ATOM     30  H   UNL     1      -6.141  -4.559  -2.910  0.00  0.00    +0.000 HD
ENDBRANCH  10  29
BRANCH  14  31
ATOM     31  O   UNL     1      -3.934  -9.631  -0.962  0.00  0.00    +0.000 OA
ATOM     32  H   UNL     1      -4.448 -10.309  -0.474  0.00  0.00    +0.000 HD
ENDBRANCH  14  31
BRANCH  15  33
ATOM     33  O   UNL     1      -2.199  -7.612  -0.616  0.00  0.00    +0.000 OA
ATOM     34  C   UNL     1      -1.861  -6.891  -1.771  0.00  0.00    +0.000 C 
ENDBRANCH  15  33
BRANCH  20  35
ATOM     35  O   UNL     1      -2.678  -1.899   2.572  0.00  0.00    +0.000 OA
BRANCH  35  37
ATOM     36  O   UNL     1      -4.593  -1.960   3.903  0.00  0.00    +0.000 OA
ATOM     37  C   UNL     1      -3.391  -1.901   3.727  0.00  0.00    +0.000 C 
ATOM     38  C   UNL     1      -2.574  -1.756   4.957  0.00  0.00    +0.000 C 
ENDBRANCH  35  37
ENDBRANCH  20  35
BRANCH   6  39
ATOM     39  C   UNL     1      -9.847  -6.443  -1.631  0.00  0.00    +0.000 C 
BRANCH  39  41
ATOM     40  O   UNL     1     -12.323  -6.746  -2.159  0.00  0.00    +0.000 OA
ATOM     41  C   UNL     1     -10.949  -6.662  -2.611  0.00  0.00    +0.000 C 
ATOM     42  C   UNL     1     -11.906  -5.563  -2.694  0.00  0.00    +0.000 C 
ATOM     43  C   UNL     1     -10.730  -7.733  -3.734  0.00  0.00    +0.000 C 
BRANCH  42  44
ATOM     44  C   UNL     1     -12.469  -5.131  -3.942  0.00  0.00    +0.000 C 
ATOM     45  C   UNL     1     -13.776  -4.381  -3.963  0.00  0.00    +0.000 C 
BRANCH  44  46
ATOM     46  C   UNL     1     -11.599  -4.900  -5.042  0.00  0.00    +0.000 C 
ATOM     47  C   UNL     1     -10.908  -4.787  -6.016  0.00  0.00    +0.000 C 
ATOM     48  C   UNL     1     -10.072  -4.772  -7.303  0.00  0.00    +0.000 C 
ENDBRANCH  44  46
ENDBRANCH  42  44
ENDBRANCH  39  41
BRANCH  39  49
ATOM     49  O   UNL     1      -9.882  -7.006  -0.363  0.00  0.00    +0.000 OA
ATOM     50  H   UNL     1      -9.016  -6.969   0.088  0.00  0.00    +0.000 HD
ENDBRANCH  39  49
ENDBRANCH   6  39
BRANCH   9  51
ATOM     51  C   UNL     1      -8.734  -2.708  -4.105  0.00  0.00    +0.000 C 
BRANCH  51  52
ATOM     52  O   UNL     1      -8.967  -1.983  -5.199  0.00  0.00    +0.000 OA
ATOM     53  H   UNL     1      -8.807  -2.511  -6.003  0.00  0.00    +0.000 HD
ENDBRANCH  51  52
ENDBRANCH   9  51
TORSDOF 13
ENDMDL
MODEL 6
REMARK VINA RESULT:      -5.8     17.504     21.527
REMARK  Name = 101808841_CandidaspongiolideA.pdbqt.pdb
REMARK  13 active torsions:
REMARK  status: ('A' for Active; 'I' for Inactive)
REMARK    1  A    between atoms: C_6  and  C_39
REMARK    2  A    between atoms: C_9  and  O_27
REMARK    3  A    between atoms: C_9  and  C_51
REMARK    4  A    between atoms: C_10  and  O_29
REMARK    5  A    between atoms: C_14  and  O_31
REMARK    6  A    between atoms: C_15  and  O_33
REMARK    7  A    between atoms: C_20  and  O_35
REMARK    8  A    between atoms: O_35  and  C_37
REMARK    9  A    between atoms: C_39  and  C_41
REMARK   10  A    between atoms: C_39  and  O_49
REMARK   11  A    between atoms: C_42  and  C_44
REMARK   12  A    between atoms: C_44  and  C_46
REMARK   13  A    between atoms: C_51  and  O_52
REMARK                            x       y       z     vdW  Elec       q    Type
REMARK                         _______ _______ _______ _____ _____    ______ ____
ROOT
ATOM      1  O   UNL     1     -23.838  -4.620  12.486  0.00  0.00    +0.000 OA
ATOM      2  O   UNL     1     -21.229  -6.671   9.983  0.00  0.00    +0.000 OA
ATOM      3  O   UNL     1     -24.571  -6.531  13.548  0.00  0.00    +0.000 OA
ATOM      4  O   UNL     1     -22.539  -1.145   6.630  0.00  0.00    +0.000 OA
ATOM      5  O   UNL     1     -22.955  -1.922  12.286  0.00  0.00    +0.000 OA
ATOM      6  C   UNL     1     -23.459  -5.924  10.092  0.00  0.00    +0.000 C 
ATOM      7  C   UNL     1     -22.067  -5.880   9.546  0.00  0.00    +0.000 C 
ATOM      8  C   UNL     1     -23.697  -5.265  11.331  0.00  0.00    +0.000 C 
ATOM      9  C   UNL     1     -21.768  -4.753   8.521  0.00  0.00    +0.000 C 
ATOM     10  C   UNL     1     -21.650  -3.410   9.223  0.00  0.00    +0.000 C 
ATOM     11  C   UNL     1     -22.012  -2.180   8.601  0.00  0.00    +0.000 C 
ATOM     12  C   UNL     1     -24.186  -5.370  13.558  0.00  0.00    +0.000 C 
ATOM     13  C   UNL     1     -22.414  -1.006   7.842  0.00  0.00    +0.000 C 
ATOM     14  C   UNL     1     -23.997  -4.620  14.821  0.00  0.00    +0.000 C 
ATOM     15  C   UNL     1     -23.639  -3.218  14.903  0.00  0.00    +0.000 C 
ATOM     16  C   UNL     1     -22.655   0.296   8.544  0.00  0.00    +0.000 C 
ATOM     17  C   UNL     1     -24.309  -2.111  14.232  0.00  0.00    +0.000 C 
ATOM     18  C   UNL     1     -23.587   0.153  13.301  0.00  0.00    +0.000 C 
ATOM     19  C   UNL     1     -23.542  -1.344  13.202  0.00  0.00    +0.000 C 
ATOM     20  C   UNL     1     -23.174   0.954  12.146  0.00  0.00    +0.000 C 
ATOM     21  C   UNL     1     -22.402   0.465   9.929  0.00  0.00    +0.000 C 
ATOM     22  C   UNL     1     -22.148   0.600  11.192  0.00  0.00    +0.000 C 
ATOM     23  C   UNL     1     -23.170   1.533   7.839  0.00  0.00    +0.000 C 
ATOM     24  C   UNL     1     -25.827  -2.171  14.054  0.00  0.00    +0.000 C 
ATOM     25  C   UNL     1     -23.957   0.838  14.611  0.00  0.00    +0.000 C 
ATOM     26  C   UNL     1     -20.762   0.195  11.627  0.00  0.00    +0.000 C 
ENDROOT
BRANCH   9  27
ATOM     27  O   UNL     1     -22.843  -4.676   7.583  0.00  0.00    +0.000 OA
ATOM     28  H   UNL     1     -22.649  -3.932   6.985  0.00  0.00    +0.000 HD
ENDBRANCH   9  27
BRANCH  10  29
ATOM     29  O   UNL     1     -21.142  -3.387  10.506  0.00  0.00    +0.000 OA
ATOM     30  H   UNL     1     -21.505  -2.672  11.062  0.00  0.00    +0.000 HD
ENDBRANCH  10  29
BRANCH  14  31
ATOM     31  O   UNL     1     -24.114  -5.298  16.021  0.00  0.00    +0.000 OA
ATOM     32  H   UNL     1     -24.624  -6.127  15.901  0.00  0.00    +0.000 HD
ENDBRANCH  14  31
BRANCH  15  33
ATOM     33  O   UNL     1     -22.951  -2.879  16.056  0.00  0.00    +0.000 OA
ATOM     34  C   UNL     1     -23.743  -2.057  16.871  0.00  0.00    +0.000 C 
ENDBRANCH  15  33
BRANCH  20  35
ATOM     35  O   UNL     1     -23.520   2.332  12.113  0.00  0.00    +0.000 OA
BRANCH  35  37
ATOM     36  O   UNL     1     -25.849   2.222  12.027  0.00  0.00    +0.000 OA
ATOM     37  C   UNL     1     -24.761   2.584  11.622  0.00  0.00    +0.000 C 
ATOM     38  C   UNL     1     -24.780   3.381  10.371  0.00  0.00    +0.000 C 
ENDBRANCH  35  37
ENDBRANCH  20  35
BRANCH   6  39
ATOM     39  C   UNL     1     -24.487  -6.699   9.429  0.00  0.00    +0.000 C 
BRANCH  39  41
ATOM     40  O   UNL     1     -27.029  -6.829   9.580  0.00  0.00    +0.000 OA
ATOM     41  C   UNL     1     -25.836  -6.130   9.148  0.00  0.00    +0.000 C 
ATOM     42  C   UNL     1     -26.602  -5.780  10.341  0.00  0.00    +0.000 C 
ATOM     43  C   UNL     1     -26.099  -5.537   7.721  0.00  0.00    +0.000 C 
BRANCH  42  44
ATOM     44  C   UNL     1     -27.414  -4.599  10.410  0.00  0.00    +0.000 C 
ATOM     45  C   UNL     1     -28.789  -4.661  11.023  0.00  0.00    +0.000 C 
BRANCH  44  46
ATOM     46  C   UNL     1     -26.775  -3.330  10.437  0.00  0.00    +0.000 C 
ATOM     47  C   UNL     1     -26.320  -2.221  10.415  0.00  0.00    +0.000 C 
ATOM     48  C   UNL     1     -25.846  -0.765  10.297  0.00  0.00    +0.000 C 
ENDBRANCH  44  46
ENDBRANCH  42  44
ENDBRANCH  39  41
BRANCH  39  49
ATOM     49  O   UNL     1     -24.033  -7.840   8.783  0.00  0.00    +0.000 OA
ATOM     50  H   UNL     1     -24.152  -7.795   7.814  0.00  0.00    +0.000 HD
ENDBRANCH  39  49
ENDBRANCH   6  39
BRANCH   9  51
ATOM     51  C   UNL     1     -20.509  -5.027   7.789  0.00  0.00    +0.000 C 
BRANCH  51  52
ATOM     52  O   UNL     1     -19.391  -5.278   7.108  0.00  0.00    +0.000 OA
ATOM     53  H   UNL     1     -18.678  -5.563   7.710  0.00  0.00    +0.000 HD
ENDBRANCH  51  52
ENDBRANCH   9  51
TORSDOF 13
ENDMDL
MODEL 7
REMARK VINA RESULT:      -5.7     22.294     26.558
REMARK  Name = 101808841_CandidaspongiolideA.pdbqt.pdb
REMARK  13 active torsions:
REMARK  status: ('A' for Active; 'I' for Inactive)
REMARK    1  A    between atoms: C_6  and  C_39
REMARK    2  A    between atoms: C_9  and  O_27
REMARK    3  A    between atoms: C_9  and  C_51
REMARK    4  A    between atoms: C_10  and  O_29
REMARK    5  A    between atoms: C_14  and  O_31
REMARK    6  A    between atoms: C_15  and  O_33
REMARK    7  A    between atoms: C_20  and  O_35
REMARK    8  A    between atoms: O_35  and  C_37
REMARK    9  A    between atoms: C_39  and  C_41
REMARK   10  A    between atoms: C_39  and  O_49
REMARK   11  A    between atoms: C_42  and  C_44
REMARK   12  A    between atoms: C_44  and  C_46
REMARK   13  A    between atoms: C_51  and  O_52
REMARK                            x       y       z     vdW  Elec       q    Type
REMARK                         _______ _______ _______ _____ _____    ______ ____
ROOT
ATOM      1  O   UNL     1     -12.202  -3.188  24.406  0.00  0.00    +0.000 OA
ATOM      2  O   UNL     1     -15.421  -0.559  24.328  0.00  0.00    +0.000 OA
ATOM      3  O   UNL     1     -13.514  -5.028  24.868  0.00  0.00    +0.000 OA
ATOM      4  O   UNL     1     -10.308   3.327  25.829  0.00  0.00    +0.000 OA
ATOM      5  O   UNL     1     -10.124  -1.719  23.134  0.00  0.00    +0.000 OA
ATOM      6  C   UNL     1     -13.845  -1.485  25.812  0.00  0.00    +0.000 C 
ATOM      7  C   UNL     1     -14.426  -0.353  25.026  0.00  0.00    +0.000 C 
ATOM      8  C   UNL     1     -12.992  -2.392  25.121  0.00  0.00    +0.000 C 
ATOM      9  C   UNL     1     -13.651   0.992  25.085  0.00  0.00    +0.000 C 
ATOM     10  C   UNL     1     -12.387   0.916  24.245  0.00  0.00    +0.000 C 
ATOM     11  C   UNL     1     -11.204   1.646  24.564  0.00  0.00    +0.000 C 
ATOM     12  C   UNL     1     -12.609  -4.471  24.262  0.00  0.00    +0.000 C 
ATOM     13  C   UNL     1     -10.075   2.449  25.006  0.00  0.00    +0.000 C 
ATOM     14  C   UNL     1     -11.839  -5.160  23.200  0.00  0.00    +0.000 C 
ATOM     15  C   UNL     1     -10.696  -4.597  22.512  0.00  0.00    +0.000 C 
ATOM     16  C   UNL     1      -8.706   2.186  24.457  0.00  0.00    +0.000 C 
ATOM     17  C   UNL     1      -9.510  -4.017  23.130  0.00  0.00    +0.000 C 
ATOM     18  C   UNL     1      -7.856  -2.174  22.512  0.00  0.00    +0.000 C 
ATOM     19  C   UNL     1      -9.248  -2.559  22.920  0.00  0.00    +0.000 C 
ATOM     20  C   UNL     1      -7.440  -0.775  22.640  0.00  0.00    +0.000 C 
ATOM     21  C   UNL     1      -8.475   1.240  23.427  0.00  0.00    +0.000 C 
ATOM     22  C   UNL     1      -8.290   0.382  22.474  0.00  0.00    +0.000 C 
ATOM     23  C   UNL     1      -7.467   2.912  24.940  0.00  0.00    +0.000 C 
ATOM     24  C   UNL     1      -8.986  -4.628  24.431  0.00  0.00    +0.000 C 
ATOM     25  C   UNL     1      -6.918  -3.194  21.877  0.00  0.00    +0.000 C 
ATOM     26  C   UNL     1      -9.151   0.568  21.250  0.00  0.00    +0.000 C 
ENDROOT
BRANCH   9  27
ATOM     27  O   UNL     1     -13.277   1.256  26.438  0.00  0.00    +0.000 OA
ATOM     28  H   UNL     1     -13.432   2.205  26.597  0.00  0.00    +0.000 HD
ENDBRANCH   9  27
BRANCH  10  29
ATOM     29  O   UNL     1     -12.402   0.127  23.112  0.00  0.00    +0.000 OA
ATOM     30  H   UNL     1     -13.265   0.104  22.657  0.00  0.00    +0.000 HD
ENDBRANCH  10  29
BRANCH  14  31
ATOM     31  O   UNL     1     -12.255  -6.412  22.784  0.00  0.00    +0.000 OA
ATOM     32  H   UNL     1     -11.693  -7.112  23.179  0.00  0.00    +0.000 HD
ENDBRANCH  14  31
BRANCH  15  33
ATOM     33  O   UNL     1     -10.511  -5.089  21.231  0.00  0.00    +0.000 OA
ATOM     34  C   UNL     1     -11.061  -4.210  20.286  0.00  0.00    +0.000 C 
ENDBRANCH  15  33
BRANCH  20  35
ATOM     35  O   UNL     1      -6.054  -0.467  22.572  0.00  0.00    +0.000 OA
BRANCH  35  37
ATOM     36  O   UNL     1      -5.791  -0.504  24.890  0.00  0.00    +0.000 OA
ATOM     37  C   UNL     1      -5.391  -0.618  23.747  0.00  0.00    +0.000 C 
ATOM     38  C   UNL     1      -3.944  -0.916  23.606  0.00  0.00    +0.000 C 
ENDBRANCH  35  37
ENDBRANCH  20  35
BRANCH   6  39
ATOM     39  C   UNL     1     -14.229  -1.697  27.193  0.00  0.00    +0.000 C 
BRANCH  39  41
ATOM     40  O   UNL     1     -13.645  -2.563  29.519  0.00  0.00    +0.000 OA
ATOM     41  C   UNL     1     -13.222  -2.025  28.242  0.00  0.00    +0.000 C 
ATOM     42  C   UNL     1     -13.159  -3.440  28.595  0.00  0.00    +0.000 C 
ATOM     43  C   UNL     1     -12.067  -0.997  28.496  0.00  0.00    +0.000 C 
BRANCH  42  44
ATOM     44  C   UNL     1     -11.916  -4.108  28.860  0.00  0.00    +0.000 C 
ATOM     45  C   UNL     1     -11.397  -4.204  30.272  0.00  0.00    +0.000 C 
BRANCH  44  46
ATOM     46  C   UNL     1     -11.476  -5.117  27.962  0.00  0.00    +0.000 C 
ATOM     47  C   UNL     1     -11.199  -6.010  27.211  0.00  0.00    +0.000 C 
ATOM     48  C   UNL     1     -10.970  -7.216  26.289  0.00  0.00    +0.000 C 
ENDBRANCH  44  46
ENDBRANCH  42  44
ENDBRANCH  39  41
BRANCH  39  49
ATOM     49  O   UNL     1     -15.499  -1.245  27.523  0.00  0.00    +0.000 OA
ATOM     50  H   UNL     1     -15.487  -0.597  28.253  0.00  0.00    +0.000 HD
ENDBRANCH  39  49
ENDBRANCH   6  39
BRANCH   9  51
ATOM     51  C   UNL     1     -14.493   2.107  24.590  0.00  0.00    +0.000 C 
BRANCH  51  52
ATOM     52  O   UNL     1     -15.247   3.100  24.120  0.00  0.00    +0.000 OA
ATOM     53  H   UNL     1     -14.822   3.962  24.285  0.00  0.00    +0.000 HD
ENDBRANCH  51  52
ENDBRANCH   9  51
TORSDOF 13
ENDMDL
MODEL 8
REMARK VINA RESULT:      -5.7     17.070     21.186
REMARK  Name = 101808841_CandidaspongiolideA.pdbqt.pdb
REMARK  13 active torsions:
REMARK  status: ('A' for Active; 'I' for Inactive)
REMARK    1  A    between atoms: C_6  and  C_39
REMARK    2  A    between atoms: C_9  and  O_27
REMARK    3  A    between atoms: C_9  and  C_51
REMARK    4  A    between atoms: C_10  and  O_29
REMARK    5  A    between atoms: C_14  and  O_31
REMARK    6  A    between atoms: C_15  and  O_33
REMARK    7  A    between atoms: C_20  and  O_35
REMARK    8  A    between atoms: O_35  and  C_37
REMARK    9  A    between atoms: C_39  and  C_41
REMARK   10  A    between atoms: C_39  and  O_49
REMARK   11  A    between atoms: C_42  and  C_44
REMARK   12  A    between atoms: C_44  and  C_46
REMARK   13  A    between atoms: C_51  and  O_52
REMARK                            x       y       z     vdW  Elec       q    Type
REMARK                         _______ _______ _______ _____ _____    ______ ____
ROOT
ATOM      1  O   UNL     1     -23.777  -4.644  12.467  0.00  0.00    +0.000 OA
ATOM      2  O   UNL     1     -21.093  -6.630   9.990  0.00  0.00    +0.000 OA
ATOM      3  O   UNL     1     -24.473  -6.573  13.523  0.00  0.00    +0.000 OA
ATOM      4  O   UNL     1     -22.508  -1.138   6.623  0.00  0.00    +0.000 OA
ATOM      5  O   UNL     1     -22.960  -1.925  12.274  0.00  0.00    +0.000 OA
ATOM      6  C   UNL     1     -23.343  -5.938  10.078  0.00  0.00    +0.000 C 
ATOM      7  C   UNL     1     -21.947  -5.860   9.545  0.00  0.00    +0.000 C 
ATOM      8  C   UNL     1     -23.609  -5.285  11.314  0.00  0.00    +0.000 C 
ATOM      9  C   UNL     1     -21.666  -4.726   8.522  0.00  0.00    +0.000 C 
ATOM     10  C   UNL     1     -21.588  -3.381   9.225  0.00  0.00    +0.000 C 
ATOM     11  C   UNL     1     -21.974  -2.160   8.599  0.00  0.00    +0.000 C 
ATOM     12  C   UNL     1     -24.117  -5.402  13.535  0.00  0.00    +0.000 C 
ATOM     13  C   UNL     1     -22.399  -0.996   7.836  0.00  0.00    +0.000 C 
ATOM     14  C   UNL     1     -23.959  -4.647  14.800  0.00  0.00    +0.000 C 
ATOM     15  C   UNL     1     -23.637  -3.238  14.885  0.00  0.00    +0.000 C 
ATOM     16  C   UNL     1     -22.678   0.300   8.535  0.00  0.00    +0.000 C 
ATOM     17  C   UNL     1     -24.328  -2.147  14.208  0.00  0.00    +0.000 C 
ATOM     18  C   UNL     1     -23.653   0.134  13.282  0.00  0.00    +0.000 C 
ATOM     19  C   UNL     1     -23.570  -1.362  13.185  0.00  0.00    +0.000 C 
ATOM     20  C   UNL     1     -23.249   0.944  12.131  0.00  0.00    +0.000 C 
ATOM     21  C   UNL     1     -22.443   0.475   9.922  0.00  0.00    +0.000 C 
ATOM     22  C   UNL     1     -22.205   0.616  11.187  0.00  0.00    +0.000 C 
ATOM     23  C   UNL     1     -23.217   1.523   7.825  0.00  0.00    +0.000 C 
ATOM     24  C   UNL     1     -25.842  -2.245  14.015  0.00  0.00    +0.000 C 
ATOM     25  C   UNL     1     -24.053   0.809  14.589  0.00  0.00    +0.000 C 
ATOM     26  C   UNL     1     -20.814   0.245  11.636  0.00  0.00    +0.000 C 
ENDROOT
BRANCH   9  27
ATOM     27  O   UNL     1     -22.733  -4.676   7.574  0.00  0.00    +0.000 OA
ATOM     28  H   UNL     1     -23.206  -5.527   7.632  0.00  0.00    +0.000 HD
ENDBRANCH   9  27
BRANCH  10  29
ATOM     29  O   UNL     1     -21.094  -3.345  10.513  0.00  0.00    +0.000 OA
ATOM     30  H   UNL     1     -21.723  -2.989  11.169  0.00  0.00    +0.000 HD
ENDBRANCH  10  29
BRANCH  14  31
ATOM     31  O   UNL     1     -24.071  -5.328  16.000  0.00  0.00    +0.000 OA
ATOM     32  H   UNL     1     -23.216  -5.327  16.479  0.00  0.00    +0.000 HD
ENDBRANCH  14  31
BRANCH  15  33
ATOM     33  O   UNL     1     -22.969  -2.881  16.045  0.00  0.00    +0.000 OA
ATOM     34  C   UNL     1     -23.789  -2.078  16.852  0.00  0.00    +0.000 C 
ENDBRANCH  15  33
BRANCH  20  35
ATOM     35  O   UNL     1     -23.628   2.313  12.094  0.00  0.00    +0.000 OA
BRANCH  35  37
ATOM     36  O   UNL     1     -25.560   1.780  10.898  0.00  0.00    +0.000 OA
ATOM     37  C   UNL     1     -24.771   2.557  11.401  0.00  0.00    +0.000 C 
ATOM     38  C   UNL     1     -25.066   3.995  11.184  0.00  0.00    +0.000 C 
ENDBRANCH  35  37
ENDBRANCH  20  35
BRANCH   6  39
ATOM     39  C   UNL     1     -24.344  -6.739   9.404  0.00  0.00    +0.000 C 
BRANCH  39  41
ATOM     40  O   UNL     1     -23.773  -8.861  10.699  0.00  0.00    +0.000 OA
ATOM     41  C   UNL     1     -24.386  -8.222   9.551  0.00  0.00    +0.000 C 
ATOM     42  C   UNL     1     -25.127  -8.691  10.719  0.00  0.00    +0.000 C 
ATOM     43  C   UNL     1     -24.090  -9.094   8.282  0.00  0.00    +0.000 C 
BRANCH  42  44
ATOM     44  C   UNL     1     -25.971  -9.851  10.675  0.00  0.00    +0.000 C 
ATOM     45  C   UNL     1     -27.211  -9.850   9.817  0.00  0.00    +0.000 C 
BRANCH  44  46
ATOM     46  C   UNL     1     -25.402 -11.123  10.948  0.00  0.00    +0.000 C 
ATOM     47  C   UNL     1     -24.867 -12.152  11.255  0.00  0.00    +0.000 C 
ATOM     48  C   UNL     1     -24.093 -13.390  11.730  0.00  0.00    +0.000 C 
ENDBRANCH  44  46
ENDBRANCH  42  44
ENDBRANCH  39  41
BRANCH  39  49
ATOM     49  O   UNL     1     -25.432  -6.029   8.917  0.00  0.00    +0.000 OA
ATOM     50  H   UNL     1     -25.958  -5.615   9.628  0.00  0.00    +0.000 HD
ENDBRANCH  39  49
ENDBRANCH   6  39
BRANCH   9  51
ATOM     51  C   UNL     1     -20.393  -4.969   7.803  0.00  0.00    +0.000 C 
BRANCH  51  52
ATOM     52  O   UNL     1     -19.244  -5.160   7.155  0.00  0.00    +0.000 OA
ATOM     53  H   UNL     1     -18.741  -5.893   7.556  0.00  0.00    +0.000 HD
ENDBRANCH  51  52
ENDBRANCH   9  51
TORSDOF 13
ENDMDL
MODEL 9
REMARK VINA RESULT:      -5.7     17.676     23.181
REMARK  Name = 101808841_CandidaspongiolideA.pdbqt.pdb
REMARK  13 active torsions:
REMARK  status: ('A' for Active; 'I' for Inactive)
REMARK    1  A    between atoms: C_6  and  C_39
REMARK    2  A    between atoms: C_9  and  O_27
REMARK    3  A    between atoms: C_9  and  C_51
REMARK    4  A    between atoms: C_10  and  O_29
REMARK    5  A    between atoms: C_14  and  O_31
REMARK    6  A    between atoms: C_15  and  O_33
REMARK    7  A    between atoms: C_20  and  O_35
REMARK    8  A    between atoms: O_35  and  C_37
REMARK    9  A    between atoms: C_39  and  C_41
REMARK   10  A    between atoms: C_39  and  O_49
REMARK   11  A    between atoms: C_42  and  C_44
REMARK   12  A    between atoms: C_44  and  C_46
REMARK   13  A    between atoms: C_51  and  O_52
REMARK                            x       y       z     vdW  Elec       q    Type
REMARK                         _______ _______ _______ _____ _____    ______ ____
ROOT
ATOM      1  O   UNL     1     -25.399  -9.548  11.367  0.00  0.00    +0.000 OA
ATOM      2  O   UNL     1     -22.053  -7.720   9.710  0.00  0.00    +0.000 OA
ATOM      3  O   UNL     1     -25.681 -10.996   9.594  0.00  0.00    +0.000 OA
ATOM      4  O   UNL     1     -24.477  -3.104  13.750  0.00  0.00    +0.000 OA
ATOM      5  O   UNL     1     -25.294  -8.758  14.098  0.00  0.00    +0.000 OA
ATOM      6  C   UNL     1     -24.402  -7.548   9.761  0.00  0.00    +0.000 C 
ATOM      7  C   UNL     1     -23.025  -7.071  10.102  0.00  0.00    +0.000 C 
ATOM      8  C   UNL     1     -24.953  -8.585  10.565  0.00  0.00    +0.000 C 
ATOM      9  C   UNL     1     -22.941  -5.824  11.024  0.00  0.00    +0.000 C 
ATOM     10  C   UNL     1     -23.285  -6.195  12.457  0.00  0.00    +0.000 C 
ATOM     11  C   UNL     1     -23.906  -5.285  13.362  0.00  0.00    +0.000 C 
ATOM     12  C   UNL     1     -25.642 -10.749  10.791  0.00  0.00    +0.000 C 
ATOM     13  C   UNL     1     -24.534  -4.254  14.172  0.00  0.00    +0.000 C 
ATOM     14  C   UNL     1     -25.815 -11.807  11.813  0.00  0.00    +0.000 C 
ATOM     15  C   UNL     1     -25.877 -11.573  13.241  0.00  0.00    +0.000 C 
ATOM     16  C   UNL     1     -25.209  -4.617  15.461  0.00  0.00    +0.000 C 
ATOM     17  C   UNL     1     -26.751 -10.631  13.929  0.00  0.00    +0.000 C 
ATOM     18  C   UNL     1     -26.594  -9.226  16.054  0.00  0.00    +0.000 C 
ATOM     19  C   UNL     1     -26.119  -9.485  14.654  0.00  0.00    +0.000 C 
ATOM     20  C   UNL     1     -26.295  -7.935  16.679  0.00  0.00    +0.000 C 
ATOM     21  C   UNL     1     -25.171  -5.933  15.986  0.00  0.00    +0.000 C 
ATOM     22  C   UNL     1     -25.110  -7.139  16.455  0.00  0.00    +0.000 C 
ATOM     23  C   UNL     1     -25.968  -3.618  16.308  0.00  0.00    +0.000 C 
ATOM     24  C   UNL     1     -28.161 -10.403  13.381  0.00  0.00    +0.000 C 
ATOM     25  C   UNL     1     -27.288 -10.320  16.858  0.00  0.00    +0.000 C 
ATOM     26  C   UNL     1     -23.724  -7.721  16.585  0.00  0.00    +0.000 C 
ENDROOT
BRANCH   9  27
ATOM     27  O   UNL     1     -23.881  -4.847  10.575  0.00  0.00    +0.000 OA
ATOM     28  H   UNL     1     -23.774  -4.064  11.145  0.00  0.00    +0.000 HD
ENDBRANCH   9  27
BRANCH  10  29
ATOM     29  O   UNL     1     -22.953  -7.459  12.902  0.00  0.00    +0.000 OA
ATOM     30  H   UNL     1     -22.695  -7.492  13.842  0.00  0.00    +0.000 HD
ENDBRANCH  10  29
BRANCH  14  31
ATOM     31  O   UNL     1     -25.872 -13.127  11.401  0.00  0.00    +0.000 OA
ATOM     32  H   UNL     1     -25.537 -13.217  10.483  0.00  0.00    +0.000 HD
ENDBRANCH  14  31
BRANCH  15  33
ATOM     33  O   UNL     1     -25.447 -12.644  14.007  0.00  0.00    +0.000 OA
ATOM     34  C   UNL     1     -26.525 -13.204  14.710  0.00  0.00    +0.000 C 
ENDBRANCH  15  33
BRANCH  20  35
ATOM     35  O   UNL     1     -27.008  -7.563  17.850  0.00  0.00    +0.000 OA
BRANCH  35  37
ATOM     36  O   UNL     1     -28.105  -5.554  18.302  0.00  0.00    +0.000 OA
ATOM     37  C   UNL     1     -27.913  -6.568  17.660  0.00  0.00    +0.000 C 
ATOM     38  C   UNL     1     -28.838  -6.785  16.520  0.00  0.00    +0.000 C 
ENDBRANCH  35  37
ENDBRANCH  20  35
BRANCH   6  39
ATOM     39  C   UNL     1     -25.088  -7.040   8.591  0.00  0.00    +0.000 C 
BRANCH  39  41
ATOM     40  O   UNL     1     -24.928  -6.302   6.155  0.00  0.00    +0.000 OA
ATOM     41  C   UNL     1     -24.515  -7.191   7.222  0.00  0.00    +0.000 C 
ATOM     42  C   UNL     1     -23.736  -6.043   6.766  0.00  0.00    +0.000 C 
ATOM     43  C   UNL     1     -24.382  -8.639   6.638  0.00  0.00    +0.000 C 
BRANCH  42  44
ATOM     44  C   UNL     1     -22.524  -6.192   6.012  0.00  0.00    +0.000 C 
ATOM     45  C   UNL     1     -22.554  -6.105   4.507  0.00  0.00    +0.000 C 
BRANCH  44  46
ATOM     46  C   UNL     1     -21.288  -5.865   6.632  0.00  0.00    +0.000 C 
ATOM     47  C   UNL     1     -20.272  -5.489   7.146  0.00  0.00    +0.000 C 
ATOM     48  C   UNL     1     -19.006  -4.874   7.761  0.00  0.00    +0.000 C 
ENDBRANCH  44  46
ENDBRANCH  42  44
ENDBRANCH  39  41
BRANCH  39  49
ATOM     49  O   UNL     1     -26.426  -6.730   8.785  0.00  0.00    +0.000 OA
ATOM     50  H   UNL     1     -26.559  -5.801   9.056  0.00  0.00    +0.000 HD
ENDBRANCH  39  49
ENDBRANCH   6  39
BRANCH   9  51
ATOM     51  C   UNL     1     -21.581  -5.236  10.991  0.00  0.00    +0.000 C 
BRANCH  51  52
ATOM     52  O   UNL     1     -20.368  -4.685  10.974  0.00  0.00    +0.000 OA
ATOM     53  H   UNL     1     -20.062  -4.497  11.881  0.00  0.00    +0.000 HD
ENDBRANCH  51  52
ENDBRANCH   9  51
TORSDOF 13
ENDMDL
