MODEL 1
REMARK VINA RESULT:      -6.6      0.000      0.000
REMARK  Name = 102471178_CandidaspongiolideCore.pdbqt.pdb
REMARK  13 active torsions:
REMARK  status: ('A' for Active; 'I' for Inactive)
REMARK    1  A    between atoms: C_6  and  C_39
REMARK    2  A    between atoms: C_8  and  O_27
REMARK    3  A    between atoms: C_8  and  C_51
REMARK    4  A    between atoms: C_10  and  O_29
REMARK    5  A    between atoms: C_15  and  O_31
REMARK    6  A    between atoms: C_16  and  O_33
REMARK    7  A    between atoms: C_21  and  O_35
REMARK    8  A    between atoms: O_35  and  C_37
REMARK    9  A    between atoms: C_39  and  C_41
REMARK   10  A    between atoms: C_39  and  O_49
REMARK   11  A    between atoms: C_42  and  C_44
REMARK   12  A    between atoms: C_44  and  C_46
REMARK   13  A    between atoms: C_51  and  O_52
REMARK                            x       y       z     vdW  Elec       q    Type
REMARK                         _______ _______ _______ _____ _____    ______ ____
ROOT
ATOM      1  O   UNL     1      -8.673  -1.002  24.315  0.00  0.00    +0.000 OA
ATOM      2  O   UNL     1      -9.409  -2.857  25.451  0.00  0.00    +0.000 OA
ATOM      3  O   UNL     1     -12.075  -6.955  26.191  0.00  0.00    +0.000 OA
ATOM      4  O   UNL     1      -6.437  -1.204  24.556  0.00  0.00    +0.000 OA
ATOM      5  O   UNL     1      -6.713  -3.034  27.550  0.00  0.00    +0.000 OA
ATOM      6  C   UNL     1     -10.621  -2.008  23.564  0.00  0.00    +0.000 C 
ATOM      7  C   UNL     1     -11.916  -2.502  23.885  0.00  0.00    +0.000 C 
ATOM      8  C   UNL     1     -13.310  -2.878  24.133  0.00  0.00    +0.000 C 
ATOM      9  C   UNL     1      -9.511  -2.032  24.553  0.00  0.00    +0.000 C 
ATOM     10  C   UNL     1     -13.511  -4.378  24.101  0.00  0.00    +0.000 C 
ATOM     11  C   UNL     1     -12.620  -5.321  24.679  0.00  0.00    +0.000 C 
ATOM     12  C   UNL     1     -11.665  -6.211  25.306  0.00  0.00    +0.000 C 
ATOM     13  C   UNL     1      -7.541  -0.996  25.045  0.00  0.00    +0.000 C 
ATOM     14  C   UNL     1     -10.225  -6.177  24.911  0.00  0.00    +0.000 C 
ATOM     15  C   UNL     1      -7.648  -0.415  26.406  0.00  0.00    +0.000 C 
ATOM     16  C   UNL     1      -8.682  -0.748  27.364  0.00  0.00    +0.000 C 
ATOM     17  C   UNL     1      -8.627  -1.841  28.326  0.00  0.00    +0.000 C 
ATOM     18  C   UNL     1      -9.229  -6.478  25.871  0.00  0.00    +0.000 C 
ATOM     19  C   UNL     1      -8.592  -4.391  28.062  0.00  0.00    +0.000 C 
ATOM     20  C   UNL     1      -9.753  -5.554  23.604  0.00  0.00    +0.000 C 
ATOM     21  C   UNL     1      -7.870  -5.591  27.652  0.00  0.00    +0.000 C 
ATOM     22  C   UNL     1      -7.871  -3.080  27.970  0.00  0.00    +0.000 C 
ATOM     23  C   UNL     1      -8.365  -6.678  26.820  0.00  0.00    +0.000 C 
ATOM     24  C   UNL     1      -9.046  -1.639  29.779  0.00  0.00    +0.000 C 
ATOM     25  C   UNL     1     -10.097  -4.470  28.273  0.00  0.00    +0.000 C 
ATOM     26  C   UNL     1      -7.869  -8.092  26.973  0.00  0.00    +0.000 C 
ENDROOT
BRANCH   8  27
ATOM     27  O   UNL     1     -14.064  -2.295  23.068  0.00  0.00    +0.000 OA
ATOM     28  H   UNL     1     -13.965  -2.926  22.327  0.00  0.00    +0.000 HD
ENDBRANCH   8  27
BRANCH  10  29
ATOM     29  O   UNL     1     -14.675  -4.843  23.509  0.00  0.00    +0.000 OA
ATOM     30  H   UNL     1     -14.918  -4.327  22.717  0.00  0.00    +0.000 HD
ENDBRANCH  10  29
BRANCH  15  31
ATOM     31  O   UNL     1      -6.492   0.082  26.987  0.00  0.00    +0.000 OA
ATOM     32  H   UNL     1      -6.692   0.484  27.859  0.00  0.00    +0.000 HD
ENDBRANCH  15  31
BRANCH  16  33
ATOM     33  O   UNL     1      -9.517   0.297  27.717  0.00  0.00    +0.000 OA
ATOM     34  C   UNL     1     -10.762   0.131  27.084  0.00  0.00    +0.000 C 
ENDBRANCH  16  33
BRANCH  21  35
ATOM     35  O   UNL     1      -6.615  -5.765  28.290  0.00  0.00    +0.000 OA
BRANCH  35  37
ATOM     36  O   UNL     1      -7.372  -6.823  30.234  0.00  0.00    +0.000 OA
ATOM     37  C   UNL     1      -6.725  -5.987  29.628  0.00  0.00    +0.000 C 
ATOM     38  C   UNL     1      -5.895  -5.090  30.474  0.00  0.00    +0.000 C 
ENDBRANCH  35  37
ENDBRANCH  21  35
BRANCH   6  39
ATOM     39  C   UNL     1     -10.395  -1.562  22.208  0.00  0.00    +0.000 C 
BRANCH  39  41
ATOM     40  O   UNL     1     -10.501  -3.806  21.001  0.00  0.00    +0.000 OA
ATOM     41  C   UNL     1      -9.881  -2.512  21.182  0.00  0.00    +0.000 C 
ATOM     42  C   UNL     1     -10.874  -2.802  20.152  0.00  0.00    +0.000 C 
ATOM     43  C   UNL     1      -8.330  -2.642  20.971  0.00  0.00    +0.000 C 
BRANCH  42  44
ATOM     44  C   UNL     1     -10.575  -2.970  18.762  0.00  0.00    +0.000 C 
ATOM     45  C   UNL     1     -10.692  -1.799  17.813  0.00  0.00    +0.000 C 
BRANCH  44  46
ATOM     46  C   UNL     1      -9.749  -4.037  18.327  0.00  0.00    +0.000 C 
ATOM     47  C   UNL     1      -9.039  -4.913  17.919  0.00  0.00    +0.000 C 
ATOM     48  C   UNL     1      -8.105  -5.988  17.348  0.00  0.00    +0.000 C 
ENDBRANCH  44  46
ENDBRANCH  42  44
ENDBRANCH  39  41
BRANCH  39  49
ATOM     49  O   UNL     1     -10.614  -0.220  21.945  0.00  0.00    +0.000 OA
ATOM     50  H   UNL     1     -11.508  -0.014  21.611  0.00  0.00    +0.000 HD
ENDBRANCH  39  49
ENDBRANCH   6  39
BRANCH   8  51
ATOM     51  C   UNL     1     -13.816  -2.320  25.398  0.00  0.00    +0.000 C 
BRANCH  51  52
ATOM     52  O   UNL     1     -14.290  -1.855  26.554  0.00  0.00    +0.000 OA
ATOM     53  H   UNL     1     -13.747  -1.108  26.879  0.00  0.00    +0.000 HD
ENDBRANCH  51  52
ENDBRANCH   8  51
TORSDOF 13
ENDMDL
MODEL 2
REMARK VINA RESULT:      -6.4      2.107      4.739
REMARK  Name = 102471178_CandidaspongiolideCore.pdbqt.pdb
REMARK  13 active torsions:
REMARK  status: ('A' for Active; 'I' for Inactive)
REMARK    1  A    between atoms: C_6  and  C_39
REMARK    2  A    between atoms: C_8  and  O_27
REMARK    3  A    between atoms: C_8  and  C_51
REMARK    4  A    between atoms: C_10  and  O_29
REMARK    5  A    between atoms: C_15  and  O_31
REMARK    6  A    between atoms: C_16  and  O_33
REMARK    7  A    between atoms: C_21  and  O_35
REMARK    8  A    between atoms: O_35  and  C_37
REMARK    9  A    between atoms: C_39  and  C_41
REMARK   10  A    between atoms: C_39  and  O_49
REMARK   11  A    between atoms: C_42  and  C_44
REMARK   12  A    between atoms: C_44  and  C_46
REMARK   13  A    between atoms: C_51  and  O_52
REMARK                            x       y       z     vdW  Elec       q    Type
REMARK                         _______ _______ _______ _____ _____    ______ ____
ROOT
ATOM      1  O   UNL     1      -8.816  -5.108  24.587  0.00  0.00    +0.000 OA
ATOM      2  O   UNL     1     -10.442  -3.886  25.656  0.00  0.00    +0.000 OA
ATOM      3  O   UNL     1     -13.980  -0.463  26.099  0.00  0.00    +0.000 OA
ATOM      4  O   UNL     1      -9.370  -7.206  25.210  0.00  0.00    +0.000 OA
ATOM      5  O   UNL     1     -10.919  -6.141  28.185  0.00  0.00    +0.000 OA
ATOM      6  C   UNL     1      -9.535  -3.158  23.559  0.00  0.00    +0.000 C 
ATOM      7  C   UNL     1      -9.784  -1.762  23.676  0.00  0.00    +0.000 C 
ATOM      8  C   UNL     1      -9.906  -0.303  23.700  0.00  0.00    +0.000 C 
ATOM      9  C   UNL     1      -9.674  -4.075  24.721  0.00  0.00    +0.000 C 
ATOM     10  C   UNL     1     -11.350   0.150  23.695  0.00  0.00    +0.000 C 
ATOM     11  C   UNL     1     -12.386  -0.460  24.453  0.00  0.00    +0.000 C 
ATOM     12  C   UNL     1     -13.377  -1.131  25.267  0.00  0.00    +0.000 C 
ATOM     13  C   UNL     1      -8.948  -6.092  25.496  0.00  0.00    +0.000 C 
ATOM     14  C   UNL     1     -13.610  -2.600  25.119  0.00  0.00    +0.000 C 
ATOM     15  C   UNL     1      -8.266  -5.873  26.795  0.00  0.00    +0.000 C 
ATOM     16  C   UNL     1      -8.357  -4.657  27.577  0.00  0.00    +0.000 C 
ATOM     17  C   UNL     1      -9.375  -4.366  28.578  0.00  0.00    +0.000 C 
ATOM     18  C   UNL     1     -14.005  -3.362  26.246  0.00  0.00    +0.000 C 
ATOM     19  C   UNL     1     -11.907  -3.997  28.426  0.00  0.00    +0.000 C 
ATOM     20  C   UNL     1     -13.165  -3.375  23.887  0.00  0.00    +0.000 C 
ATOM     21  C   UNL     1     -13.235  -4.554  28.193  0.00  0.00    +0.000 C 
ATOM     22  C   UNL     1     -10.744  -4.941  28.405  0.00  0.00    +0.000 C 
ATOM     23  C   UNL     1     -14.279  -4.015  27.333  0.00  0.00    +0.000 C 
ATOM     24  C   UNL     1      -9.007  -3.762  29.930  0.00  0.00    +0.000 C 
ATOM     25  C   UNL     1     -11.721  -2.487  28.384  0.00  0.00    +0.000 C 
ATOM     26  C   UNL     1     -15.743  -4.225  27.624  0.00  0.00    +0.000 C 
ENDROOT
BRANCH   8  27
ATOM     27  O   UNL     1      -9.280   0.159  22.501  0.00  0.00    +0.000 OA
ATOM     28  H   UNL     1      -9.990   0.637  22.026  0.00  0.00    +0.000 HD
ENDBRANCH   8  27
BRANCH  10  29
ATOM     29  O   UNL     1     -11.655   1.267  22.934  0.00  0.00    +0.000 OA
ATOM     30  H   UNL     1     -11.117   1.320  22.123  0.00  0.00    +0.000 HD
ENDBRANCH  10  29
BRANCH  15  31
ATOM     31  O   UNL     1      -7.929  -6.990  27.542  0.00  0.00    +0.000 OA
ATOM     32  H   UNL     1      -7.316  -7.568  27.038  0.00  0.00    +0.000 HD
ENDBRANCH  15  31
BRANCH  16  33
ATOM     33  O   UNL     1      -7.166  -3.972  27.742  0.00  0.00    +0.000 OA
ATOM     34  C   UNL     1      -7.282  -2.693  27.170  0.00  0.00    +0.000 C 
ENDBRANCH  16  33
BRANCH  21  35
ATOM     35  O   UNL     1     -13.571  -5.641  29.039  0.00  0.00    +0.000 OA
BRANCH  35  37
ATOM     36  O   UNL     1     -14.348  -4.410  30.871  0.00  0.00    +0.000 OA
ATOM     37  C   UNL     1     -13.677  -5.283  30.349  0.00  0.00    +0.000 C 
ATOM     38  C   UNL     1     -12.873  -6.113  31.283  0.00  0.00    +0.000 C 
ENDBRANCH  35  37
ENDBRANCH  21  35
BRANCH   6  39
ATOM     39  C   UNL     1      -9.226  -3.671  22.243  0.00  0.00    +0.000 C 
BRANCH  39  41
ATOM     40  O   UNL     1     -11.033  -2.543  20.842  0.00  0.00    +0.000 OA
ATOM     41  C   UNL     1     -10.282  -3.728  21.194  0.00  0.00    +0.000 C 
ATOM     42  C   UNL     1      -9.969  -2.875  20.051  0.00  0.00    +0.000 C 
ATOM     43  C   UNL     1     -11.224  -4.983  21.124  0.00  0.00    +0.000 C 
BRANCH  42  44
ATOM     44  C   UNL     1     -10.243  -3.214  18.687  0.00  0.00    +0.000 C 
ATOM     45  C   UNL     1     -10.962  -2.234  17.790  0.00  0.00    +0.000 C 
BRANCH  44  46
ATOM     46  C   UNL     1      -9.484  -4.213  18.027  0.00  0.00    +0.000 C 
ATOM     47  C   UNL     1      -8.863  -5.045  17.427  0.00  0.00    +0.000 C 
ATOM     48  C   UNL     1      -8.090  -6.078  16.597  0.00  0.00    +0.000 C 
ENDBRANCH  44  46
ENDBRANCH  42  44
ENDBRANCH  39  41
BRANCH  39  49
ATOM     49  O   UNL     1      -7.945  -4.158  22.045  0.00  0.00    +0.000 OA
ATOM     50  H   UNL     1      -7.235  -3.515  22.231  0.00  0.00    +0.000 HD
ENDBRANCH  39  49
ENDBRANCH   6  39
BRANCH   8  51
ATOM     51  C   UNL     1      -9.187   0.293  24.838  0.00  0.00    +0.000 C 
BRANCH  51  52
ATOM     52  O   UNL     1      -8.498   0.812  25.856  0.00  0.00    +0.000 OA
ATOM     53  H   UNL     1      -7.990   1.597  25.569  0.00  0.00    +0.000 HD
ENDBRANCH  51  52
ENDBRANCH   8  51
TORSDOF 13
ENDMDL
MODEL 3
REMARK VINA RESULT:      -6.0      1.942      2.811
REMARK  Name = 102471178_CandidaspongiolideCore.pdbqt.pdb
REMARK  13 active torsions:
REMARK  status: ('A' for Active; 'I' for Inactive)
REMARK    1  A    between atoms: C_6  and  C_39
REMARK    2  A    between atoms: C_8  and  O_27
REMARK    3  A    between atoms: C_8  and  C_51
REMARK    4  A    between atoms: C_10  and  O_29
REMARK    5  A    between atoms: C_15  and  O_31
REMARK    6  A    between atoms: C_16  and  O_33
REMARK    7  A    between atoms: C_21  and  O_35
REMARK    8  A    between atoms: O_35  and  C_37
REMARK    9  A    between atoms: C_39  and  C_41
REMARK   10  A    between atoms: C_39  and  O_49
REMARK   11  A    between atoms: C_42  and  C_44
REMARK   12  A    between atoms: C_44  and  C_46
REMARK   13  A    between atoms: C_51  and  O_52
REMARK                            x       y       z     vdW  Elec       q    Type
REMARK                         _______ _______ _______ _____ _____    ______ ____
ROOT
ATOM      1  O   UNL     1      -9.598  -2.198  26.027  0.00  0.00    +0.000 OA
ATOM      2  O   UNL     1      -9.573  -4.211  27.133  0.00  0.00    +0.000 OA
ATOM      3  O   UNL     1     -10.133  -9.094  27.668  0.00  0.00    +0.000 OA
ATOM      4  O   UNL     1      -7.594  -1.348  26.625  0.00  0.00    +0.000 OA
ATOM      5  O   UNL     1      -7.482  -3.171  29.634  0.00  0.00    +0.000 OA
ATOM      6  C   UNL     1     -10.712  -3.973  25.036  0.00  0.00    +0.000 C 
ATOM      7  C   UNL     1     -11.667  -5.017  25.177  0.00  0.00    +0.000 C 
ATOM      8  C   UNL     1     -12.751  -6.003  25.224  0.00  0.00    +0.000 C 
ATOM      9  C   UNL     1      -9.894  -3.504  26.186  0.00  0.00    +0.000 C 
ATOM     10  C   UNL     1     -12.231  -7.424  25.242  0.00  0.00    +0.000 C 
ATOM     11  C   UNL     1     -11.114  -7.861  26.003  0.00  0.00    +0.000 C 
ATOM     12  C   UNL     1      -9.974  -8.223  26.819  0.00  0.00    +0.000 C 
ATOM     13  C   UNL     1      -8.733  -1.687  26.923  0.00  0.00    +0.000 C 
ATOM     14  C   UNL     1      -8.668  -7.516  26.652  0.00  0.00    +0.000 C 
ATOM     15  C   UNL     1      -9.316  -1.255  28.217  0.00  0.00    +0.000 C 
ATOM     16  C   UNL     1     -10.222  -2.053  29.018  0.00  0.00    +0.000 C 
ATOM     17  C   UNL     1      -9.829  -3.019  30.035  0.00  0.00    +0.000 C 
ATOM     18  C   UNL     1      -7.817  -7.346  27.772  0.00  0.00    +0.000 C 
ATOM     19  C   UNL     1      -8.581  -5.255  29.918  0.00  0.00    +0.000 C 
ATOM     20  C   UNL     1      -8.329  -6.714  25.404  0.00  0.00    +0.000 C 
ATOM     21  C   UNL     1      -7.331  -5.974  29.693  0.00  0.00    +0.000 C 
ATOM     22  C   UNL     1      -8.540  -3.758  29.869  0.00  0.00    +0.000 C 
ATOM     23  C   UNL     1      -7.127  -7.146  28.853  0.00  0.00    +0.000 C 
ATOM     24  C   UNL     1     -10.525  -3.070  31.392  0.00  0.00    +0.000 C 
ATOM     25  C   UNL     1      -9.893  -6.027  29.896  0.00  0.00    +0.000 C 
ATOM     26  C   UNL     1      -6.068  -8.174  29.158  0.00  0.00    +0.000 C 
ENDROOT
BRANCH   8  27
ATOM     27  O   UNL     1     -13.504  -5.808  24.024  0.00  0.00    +0.000 OA
ATOM     28  H   UNL     1     -13.278  -4.899  23.742  0.00  0.00    +0.000 HD
ENDBRANCH   8  27
BRANCH  10  29
ATOM     29  O   UNL     1     -12.935  -8.360  24.501  0.00  0.00    +0.000 OA
ATOM     30  H   UNL     1     -12.551  -8.494  23.615  0.00  0.00    +0.000 HD
ENDBRANCH  10  29
BRANCH  15  31
ATOM     31  O   UNL     1      -8.632  -0.294  28.944  0.00  0.00    +0.000 OA
ATOM     32  H   UNL     1      -8.956   0.604  28.716  0.00  0.00    +0.000 HD
ENDBRANCH  15  31
BRANCH  16  33
ATOM     33  O   UNL     1     -11.490  -1.522  29.179  0.00  0.00    +0.000 OA
ATOM     34  C   UNL     1     -12.389  -2.204  28.340  0.00  0.00    +0.000 C 
ENDBRANCH  16  33
BRANCH  21  35
ATOM     35  O   UNL     1      -6.261  -5.563  30.527  0.00  0.00    +0.000 OA
BRANCH  35  37
ATOM     36  O   UNL     1      -6.758  -6.894  32.385  0.00  0.00    +0.000 OA
ATOM     37  C   UNL     1      -6.475  -5.841  31.842  0.00  0.00    +0.000 C 
ATOM     38  C   UNL     1      -6.299  -4.681  32.755  0.00  0.00    +0.000 C 
ENDBRANCH  35  37
ENDBRANCH  21  35
BRANCH   6  39
ATOM     39  C   UNL     1     -10.499  -3.440  23.710  0.00  0.00    +0.000 C 
BRANCH  39  41
ATOM     40  O   UNL     1      -9.860  -5.477  22.316  0.00  0.00    +0.000 OA
ATOM     41  C   UNL     1      -9.579  -4.131  22.763  0.00  0.00    +0.000 C 
ATOM     42  C   UNL     1     -10.230  -4.449  21.495  0.00  0.00    +0.000 C 
ATOM     43  C   UNL     1      -8.029  -3.950  22.935  0.00  0.00    +0.000 C 
BRANCH  42  44
ATOM     44  C   UNL     1      -9.595  -4.367  20.215  0.00  0.00    +0.000 C 
ATOM     45  C   UNL     1      -8.850  -5.558  19.659  0.00  0.00    +0.000 C 
BRANCH  44  46
ATOM     46  C   UNL     1     -10.013  -3.402  19.265  0.00  0.00    +0.000 C 
ATOM     47  C   UNL     1     -10.384  -2.558  18.497  0.00  0.00    +0.000 C 
ATOM     48  C   UNL     1     -10.869  -1.434  17.572  0.00  0.00    +0.000 C 
ENDBRANCH  44  46
ENDBRANCH  42  44
ENDBRANCH  39  41
BRANCH  39  49
ATOM     49  O   UNL     1     -11.128  -2.244  23.406  0.00  0.00    +0.000 OA
ATOM     50  H   UNL     1     -11.481  -2.193  22.497  0.00  0.00    +0.000 HD
ENDBRANCH  39  49
ENDBRANCH   6  39
BRANCH   8  51
ATOM     51  C   UNL     1     -13.656  -5.773  26.362  0.00  0.00    +0.000 C 
BRANCH  51  52
ATOM     52  O   UNL     1     -14.491  -5.529  27.373  0.00  0.00    +0.000 OA
ATOM     53  H   UNL     1     -14.133  -4.835  27.962  0.00  0.00    +0.000 HD
ENDBRANCH  51  52
ENDBRANCH   8  51
TORSDOF 13
ENDMDL
MODEL 4
REMARK VINA RESULT:      -5.9      2.258      5.995
REMARK  Name = 102471178_CandidaspongiolideCore.pdbqt.pdb
REMARK  13 active torsions:
REMARK  status: ('A' for Active; 'I' for Inactive)
REMARK    1  A    between atoms: C_6  and  C_39
REMARK    2  A    between atoms: C_8  and  O_27
REMARK    3  A    between atoms: C_8  and  C_51
REMARK    4  A    between atoms: C_10  and  O_29
REMARK    5  A    between atoms: C_15  and  O_31
REMARK    6  A    between atoms: C_16  and  O_33
REMARK    7  A    between atoms: C_21  and  O_35
REMARK    8  A    between atoms: O_35  and  C_37
REMARK    9  A    between atoms: C_39  and  C_41
REMARK   10  A    between atoms: C_39  and  O_49
REMARK   11  A    between atoms: C_42  and  C_44
REMARK   12  A    between atoms: C_44  and  C_46
REMARK   13  A    between atoms: C_51  and  O_52
REMARK                            x       y       z     vdW  Elec       q    Type
REMARK                         _______ _______ _______ _____ _____    ______ ____
ROOT
ATOM      1  O   UNL     1     -11.715  -4.020  23.314  0.00  0.00    +0.000 OA
ATOM      2  O   UNL     1     -11.713  -3.306  25.497  0.00  0.00    +0.000 OA
ATOM      3  O   UNL     1     -10.965  -0.157  29.234  0.00  0.00    +0.000 OA
ATOM      4  O   UNL     1     -13.787  -4.902  23.147  0.00  0.00    +0.000 OA
ATOM      5  O   UNL     1     -13.988  -5.619  26.587  0.00  0.00    +0.000 OA
ATOM      6  C   UNL     1     -10.468  -2.132  23.818  0.00  0.00    +0.000 C 
ATOM      7  C   UNL     1      -9.476  -1.536  24.645  0.00  0.00    +0.000 C 
ATOM      8  C   UNL     1      -8.354  -0.929  25.366  0.00  0.00    +0.000 C 
ATOM      9  C   UNL     1     -11.370  -3.198  24.327  0.00  0.00    +0.000 C 
ATOM     10  C   UNL     1      -8.809   0.130  26.346  0.00  0.00    +0.000 C 
ATOM     11  C   UNL     1      -9.948   0.010  27.187  0.00  0.00    +0.000 C 
ATOM     12  C   UNL     1     -11.115  -0.201  28.018  0.00  0.00    +0.000 C 
ATOM     13  C   UNL     1     -12.652  -4.940  23.608  0.00  0.00    +0.000 C 
ATOM     14  C   UNL     1     -12.440  -0.507  27.398  0.00  0.00    +0.000 C 
ATOM     15  C   UNL     1     -12.164  -6.179  24.263  0.00  0.00    +0.000 C 
ATOM     16  C   UNL     1     -11.270  -6.210  25.403  0.00  0.00    +0.000 C 
ATOM     17  C   UNL     1     -11.678  -6.171  26.801  0.00  0.00    +0.000 C 
ATOM     18  C   UNL     1     -13.359  -1.334  28.089  0.00  0.00    +0.000 C 
ATOM     19  C   UNL     1     -12.815  -4.374  28.232  0.00  0.00    +0.000 C 
ATOM     20  C   UNL     1     -12.742  -0.216  25.935  0.00  0.00    +0.000 C 
ATOM     21  C   UNL     1     -14.016  -3.607  28.546  0.00  0.00    +0.000 C 
ATOM     22  C   UNL     1     -12.920  -5.427  27.172  0.00  0.00    +0.000 C 
ATOM     23  C   UNL     1     -14.119  -2.166  28.733  0.00  0.00    +0.000 C 
ATOM     24  C   UNL     1     -11.058  -7.109  27.833  0.00  0.00    +0.000 C 
ATOM     25  C   UNL     1     -11.470  -3.891  28.759  0.00  0.00    +0.000 C 
ATOM     26  C   UNL     1     -15.146  -1.550  29.647  0.00  0.00    +0.000 C 
ENDROOT
BRANCH   8  27
ATOM     27  O   UNL     1      -7.543  -0.307  24.366  0.00  0.00    +0.000 OA
ATOM     28  H   UNL     1      -7.685  -0.852  23.566  0.00  0.00    +0.000 HD
ENDBRANCH   8  27
BRANCH  10  29
ATOM     29  O   UNL     1      -8.023   1.266  26.453  0.00  0.00    +0.000 OA
ATOM     30  H   UNL     1      -8.079   1.831  25.660  0.00  0.00    +0.000 HD
ENDBRANCH  10  29
BRANCH  15  31
ATOM     31  O   UNL     1     -12.932  -7.325  24.128  0.00  0.00    +0.000 OA
ATOM     32  H   UNL     1     -13.235  -7.427  23.201  0.00  0.00    +0.000 HD
ENDBRANCH  15  31
BRANCH  16  33
ATOM     33  O   UNL     1     -10.039  -6.797  25.171  0.00  0.00    +0.000 OA
ATOM     34  C   UNL     1      -9.069  -5.793  25.008  0.00  0.00    +0.000 C 
ENDBRANCH  16  33
BRANCH  21  35
ATOM     35  O   UNL     1     -15.150  -4.398  28.861  0.00  0.00    +0.000 OA
BRANCH  35  37
ATOM     36  O   UNL     1     -14.745  -4.725  31.142  0.00  0.00    +0.000 OA
ATOM     37  C   UNL     1     -14.999  -5.107  30.014  0.00  0.00    +0.000 C 
ATOM     38  C   UNL     1     -15.216  -6.570  29.871  0.00  0.00    +0.000 C 
ENDBRANCH  35  37
ENDBRANCH  21  35
BRANCH   6  39
ATOM     39  C   UNL     1     -10.629  -1.601  22.484  0.00  0.00    +0.000 C 
BRANCH  39  41
ATOM     40  O   UNL     1      -9.584  -3.548  21.212  0.00  0.00    +0.000 OA
ATOM     41  C   UNL     1      -9.800  -2.126  21.363  0.00  0.00    +0.000 C 
ATOM     42  C   UNL     1     -10.571  -2.977  20.459  0.00  0.00    +0.000 C 
ATOM     43  C   UNL     1      -8.499  -1.352  20.946  0.00  0.00    +0.000 C 
BRANCH  42  44
ATOM     44  C   UNL     1     -10.412  -3.001  19.037  0.00  0.00    +0.000 C 
ATOM     45  C   UNL     1     -10.628  -1.744  18.227  0.00  0.00    +0.000 C 
BRANCH  44  46
ATOM     46  C   UNL     1      -9.630  -4.008  18.417  0.00  0.00    +0.000 C 
ATOM     47  C   UNL     1      -8.966  -4.832  17.852  0.00  0.00    +0.000 C 
ATOM     48  C   UNL     1      -8.103  -5.837  17.078  0.00  0.00    +0.000 C 
ENDBRANCH  44  46
ENDBRANCH  42  44
ENDBRANCH  39  41
BRANCH  39  49
ATOM     49  O   UNL     1     -11.523  -0.555  22.329  0.00  0.00    +0.000 OA
ATOM     50  H   UNL     1     -11.451  -0.084  21.477  0.00  0.00    +0.000 HD
ENDBRANCH  39  49
ENDBRANCH   6  39
BRANCH   8  51
ATOM     51  C   UNL     1      -7.526  -1.937  26.049  0.00  0.00    +0.000 C 
BRANCH  51  52
ATOM     52  O   UNL     1      -6.741  -2.826  26.659  0.00  0.00    +0.000 OA
ATOM     53  H   UNL     1      -7.268  -3.432  27.219  0.00  0.00    +0.000 HD
ENDBRANCH  51  52
ENDBRANCH   8  51
TORSDOF 13
ENDMDL
MODEL 5
REMARK VINA RESULT:      -5.9      2.125      5.982
REMARK  Name = 102471178_CandidaspongiolideCore.pdbqt.pdb
REMARK  13 active torsions:
REMARK  status: ('A' for Active; 'I' for Inactive)
REMARK    1  A    between atoms: C_6  and  C_39
REMARK    2  A    between atoms: C_8  and  O_27
REMARK    3  A    between atoms: C_8  and  C_51
REMARK    4  A    between atoms: C_10  and  O_29
REMARK    5  A    between atoms: C_15  and  O_31
REMARK    6  A    between atoms: C_16  and  O_33
REMARK    7  A    between atoms: C_21  and  O_35
REMARK    8  A    between atoms: O_35  and  C_37
REMARK    9  A    between atoms: C_39  and  C_41
REMARK   10  A    between atoms: C_39  and  O_49
REMARK   11  A    between atoms: C_42  and  C_44
REMARK   12  A    between atoms: C_44  and  C_46
REMARK   13  A    between atoms: C_51  and  O_52
REMARK                            x       y       z     vdW  Elec       q    Type
REMARK                         _______ _______ _______ _____ _____    ______ ____
ROOT
ATOM      1  O   UNL     1     -10.392  -5.411  24.263  0.00  0.00    +0.000 OA
ATOM      2  O   UNL     1     -11.227  -3.555  25.329  0.00  0.00    +0.000 OA
ATOM      3  O   UNL     1     -12.149   1.256  25.994  0.00  0.00    +0.000 OA
ATOM      4  O   UNL     1     -12.177  -6.792  24.332  0.00  0.00    +0.000 OA
ATOM      5  O   UNL     1     -13.506  -5.274  27.216  0.00  0.00    +0.000 OA
ATOM      6  C   UNL     1      -9.590  -3.343  23.589  0.00  0.00    +0.000 C 
ATOM      7  C   UNL     1      -9.015  -2.098  23.969  0.00  0.00    +0.000 C 
ATOM      8  C   UNL     1      -8.282  -0.871  24.291  0.00  0.00    +0.000 C 
ATOM      9  C   UNL     1     -10.506  -4.087  24.493  0.00  0.00    +0.000 C 
ATOM     10  C   UNL     1      -9.153   0.361  24.178  0.00  0.00    +0.000 C 
ATOM     11  C   UNL     1     -10.498   0.439  24.631  0.00  0.00    +0.000 C 
ATOM     12  C   UNL     1     -11.856   0.435  25.132  0.00  0.00    +0.000 C 
ATOM     13  C   UNL     1     -11.279  -6.190  24.909  0.00  0.00    +0.000 C 
ATOM     14  C   UNL     1     -12.843  -0.573  24.638  0.00  0.00    +0.000 C 
ATOM     15  C   UNL     1     -10.936  -6.544  26.309  0.00  0.00    +0.000 C 
ATOM     16  C   UNL     1     -10.502  -5.596  27.314  0.00  0.00    +0.000 C 
ATOM     17  C   UNL     1     -11.377  -4.838  28.199  0.00  0.00    +0.000 C 
ATOM     18  C   UNL     1     -13.862  -1.037  25.505  0.00  0.00    +0.000 C 
ATOM     19  C   UNL     1     -13.112  -3.000  27.772  0.00  0.00    +0.000 C 
ATOM     20  C   UNL     1     -12.637  -1.347  23.344  0.00  0.00    +0.000 C 
ATOM     21  C   UNL     1     -14.415  -2.617  27.238  0.00  0.00    +0.000 C 
ATOM     22  C   UNL     1     -12.736  -4.450  27.713  0.00  0.00    +0.000 C 
ATOM     23  C   UNL     1     -14.715  -1.483  26.376  0.00  0.00    +0.000 C 
ATOM     24  C   UNL     1     -11.072  -4.702  29.688  0.00  0.00    +0.000 C 
ATOM     25  C   UNL     1     -12.092  -1.914  28.085  0.00  0.00    +0.000 C 
ATOM     26  C   UNL     1     -16.053  -0.790  26.403  0.00  0.00    +0.000 C 
ENDROOT
BRANCH   8  27
ATOM     27  O   UNL     1      -7.236  -0.779  23.321  0.00  0.00    +0.000 OA
ATOM     28  H   UNL     1      -6.415  -0.761  23.853  0.00  0.00    +0.000 HD
ENDBRANCH   8  27
BRANCH  10  29
ATOM     29  O   UNL     1      -8.568   1.497  23.642  0.00  0.00    +0.000 OA
ATOM     30  H   UNL     1      -7.773   1.290  23.117  0.00  0.00    +0.000 HD
ENDBRANCH  10  29
BRANCH  15  31
ATOM     31  O   UNL     1     -11.492  -7.698  26.837  0.00  0.00    +0.000 OA
ATOM     32  H   UNL     1     -10.788  -8.323  27.114  0.00  0.00    +0.000 HD
ENDBRANCH  15  31
BRANCH  16  33
ATOM     33  O   UNL     1      -9.217  -5.789  27.791  0.00  0.00    +0.000 OA
ATOM     34  C   UNL     1      -8.365  -4.817  27.237  0.00  0.00    +0.000 C 
ENDBRANCH  16  33
BRANCH  21  35
ATOM     35  O   UNL     1     -15.505  -3.349  27.773  0.00  0.00    +0.000 OA
BRANCH  35  37
ATOM     36  O   UNL     1     -15.313  -4.095  29.982  0.00  0.00    +0.000 OA
ATOM     37  C   UNL     1     -15.585  -3.268  29.130  0.00  0.00    +0.000 C 
ATOM     38  C   UNL     1     -16.042  -1.951  29.644  0.00  0.00    +0.000 C 
ENDBRANCH  35  37
ENDBRANCH  21  35
BRANCH   6  39
ATOM     39  C   UNL     1      -9.322  -3.820  22.252  0.00  0.00    +0.000 C 
BRANCH  39  41
ATOM     40  O   UNL     1     -10.780  -2.337  20.776  0.00  0.00    +0.000 OA
ATOM     41  C   UNL     1     -10.341  -3.655  21.178  0.00  0.00    +0.000 C 
ATOM     42  C   UNL     1      -9.813  -2.938  20.021  0.00  0.00    +0.000 C 
ATOM     43  C   UNL     1     -11.555  -4.650  21.119  0.00  0.00    +0.000 C 
BRANCH  42  44
ATOM     44  C   UNL     1     -10.137  -3.246  18.661  0.00  0.00    +0.000 C 
ATOM     45  C   UNL     1     -10.826  -2.218  17.793  0.00  0.00    +0.000 C 
BRANCH  44  46
ATOM     46  C   UNL     1      -9.445  -4.273  17.970  0.00  0.00    +0.000 C 
ATOM     47  C   UNL     1      -8.849  -5.109  17.351  0.00  0.00    +0.000 C 
ATOM     48  C   UNL     1      -8.061  -6.126  16.516  0.00  0.00    +0.000 C 
ENDBRANCH  44  46
ENDBRANCH  42  44
ENDBRANCH  39  41
BRANCH  39  49
ATOM     49  O   UNL     1      -8.122  -4.482  22.051  0.00  0.00    +0.000 OA
ATOM     50  H   UNL     1      -8.216  -5.420  21.797  0.00  0.00    +0.000 HD
ENDBRANCH  39  49
ENDBRANCH   6  39
BRANCH   8  51
ATOM     51  C   UNL     1      -7.655  -0.935  25.621  0.00  0.00    +0.000 C 
BRANCH  51  52
ATOM     52  O   UNL     1      -7.120  -1.020  26.840  0.00  0.00    +0.000 OA
ATOM     53  H   UNL     1      -7.331  -1.880  27.256  0.00  0.00    +0.000 HD
ENDBRANCH  51  52
ENDBRANCH   8  51
TORSDOF 13
ENDMDL
MODEL 6
REMARK VINA RESULT:      -5.8     17.535     20.654
REMARK  Name = 102471178_CandidaspongiolideCore.pdbqt.pdb
REMARK  13 active torsions:
REMARK  status: ('A' for Active; 'I' for Inactive)
REMARK    1  A    between atoms: C_6  and  C_39
REMARK    2  A    between atoms: C_8  and  O_27
REMARK    3  A    between atoms: C_8  and  C_51
REMARK    4  A    between atoms: C_10  and  O_29
REMARK    5  A    between atoms: C_15  and  O_31
REMARK    6  A    between atoms: C_16  and  O_33
REMARK    7  A    between atoms: C_21  and  O_35
REMARK    8  A    between atoms: O_35  and  C_37
REMARK    9  A    between atoms: C_39  and  C_41
REMARK   10  A    between atoms: C_39  and  O_49
REMARK   11  A    between atoms: C_42  and  C_44
REMARK   12  A    between atoms: C_44  and  C_46
REMARK   13  A    between atoms: C_51  and  O_52
REMARK                            x       y       z     vdW  Elec       q    Type
REMARK                         _______ _______ _______ _____ _____    ______ ____
ROOT
ATOM      1  O   UNL     1     -22.756  -6.380  11.818  0.00  0.00    +0.000 OA
ATOM      2  O   UNL     1     -24.607  -7.635  12.341  0.00  0.00    +0.000 OA
ATOM      3  O   UNL     1     -28.338 -10.770  11.508  0.00  0.00    +0.000 OA
ATOM      4  O   UNL     1     -21.386  -6.888  13.539  0.00  0.00    +0.000 OA
ATOM      5  O   UNL     1     -24.050  -7.628  15.717  0.00  0.00    +0.000 OA
ATOM      6  C   UNL     1     -24.014  -7.209  10.056  0.00  0.00    +0.000 C 
ATOM      7  C   UNL     1     -25.298  -7.344   9.459  0.00  0.00    +0.000 C 
ATOM      8  C   UNL     1     -26.568  -7.374   8.729  0.00  0.00    +0.000 C 
ATOM      9  C   UNL     1     -23.845  -7.122  11.531  0.00  0.00    +0.000 C 
ATOM     10  C   UNL     1     -27.197  -8.751   8.734  0.00  0.00    +0.000 C 
ATOM     11  C   UNL     1     -27.239  -9.612   9.863  0.00  0.00    +0.000 C 
ATOM     12  C   UNL     1     -27.250 -10.418  11.065  0.00  0.00    +0.000 C 
ATOM     13  C   UNL     1     -22.402  -6.349  13.116  0.00  0.00    +0.000 C 
ATOM     14  C   UNL     1     -25.971 -10.762  11.758  0.00  0.00    +0.000 C 
ATOM     15  C   UNL     1     -23.124  -5.368  13.964  0.00  0.00    +0.000 C 
ATOM     16  C   UNL     1     -24.562  -5.202  13.988  0.00  0.00    +0.000 C 
ATOM     17  C   UNL     1     -25.487  -5.938  14.841  0.00  0.00    +0.000 C 
ATOM     18  C   UNL     1     -25.959 -10.923  13.165  0.00  0.00    +0.000 C 
ATOM     19  C   UNL     1     -26.158  -8.409  14.954  0.00  0.00    +0.000 C 
ATOM     20  C   UNL     1     -24.618 -10.665  11.066  0.00  0.00    +0.000 C 
ATOM     21  C   UNL     1     -25.796  -9.784  15.282  0.00  0.00    +0.000 C 
ATOM     22  C   UNL     1     -25.147  -7.339  15.235  0.00  0.00    +0.000 C 
ATOM     23  C   UNL     1     -26.000 -10.970  14.461  0.00  0.00    +0.000 C 
ATOM     24  C   UNL     1     -26.615  -5.228  15.584  0.00  0.00    +0.000 C 
ATOM     25  C   UNL     1     -27.384  -8.153  14.089  0.00  0.00    +0.000 C 
ATOM     26  C   UNL     1     -26.219 -12.332  15.066  0.00  0.00    +0.000 C 
ENDROOT
BRANCH   8  27
ATOM     27  O   UNL     1     -26.248  -7.024   7.381  0.00  0.00    +0.000 OA
ATOM     28  H   UNL     1     -26.977  -6.432   7.106  0.00  0.00    +0.000 HD
ENDBRANCH   8  27
BRANCH  10  29
ATOM     29  O   UNL     1     -27.813  -9.164   7.563  0.00  0.00    +0.000 OA
ATOM     30  H   UNL     1     -28.704  -8.780   7.460  0.00  0.00    +0.000 HD
ENDBRANCH  10  29
BRANCH  15  31
ATOM     31  O   UNL     1     -22.494  -4.927  15.118  0.00  0.00    +0.000 OA
ATOM     32  H   UNL     1     -22.610  -3.959  15.223  0.00  0.00    +0.000 HD
ENDBRANCH  15  31
BRANCH  16  33
ATOM     33  O   UNL     1     -25.021  -3.970  13.559  0.00  0.00    +0.000 OA
ATOM     34  C   UNL     1     -25.495  -4.083  12.240  0.00  0.00    +0.000 C 
ENDBRANCH  16  33
BRANCH  21  35
ATOM     35  O   UNL     1     -25.358  -9.971  16.618  0.00  0.00    +0.000 OA
BRANCH  35  37
ATOM     36  O   UNL     1     -27.462 -10.189  17.617  0.00  0.00    +0.000 OA
ATOM     37  C   UNL     1     -26.335  -9.734  17.536  0.00  0.00    +0.000 C 
ATOM     38  C   UNL     1     -25.946  -8.801  18.625  0.00  0.00    +0.000 C 
ENDBRANCH  35  37
ENDBRANCH  21  35
BRANCH   6  39
ATOM     39  C   UNL     1     -22.865  -7.249   9.181  0.00  0.00    +0.000 C 
BRANCH  39  41
ATOM     40  O   UNL     1     -23.473  -5.010   8.122  0.00  0.00    +0.000 OA
ATOM     41  C   UNL     1     -22.717  -6.243   8.092  0.00  0.00    +0.000 C 
ATOM     42  C   UNL     1     -22.187  -4.974   8.582  0.00  0.00    +0.000 C 
ATOM     43  C   UNL     1     -22.583  -6.738   6.608  0.00  0.00    +0.000 C 
BRANCH  42  44
ATOM     44  C   UNL     1     -21.255  -4.155   7.868  0.00  0.00    +0.000 C 
ATOM     45  C   UNL     1     -19.901  -4.704   7.483  0.00  0.00    +0.000 C 
BRANCH  44  46
ATOM     46  C   UNL     1     -21.704  -3.038   7.120  0.00  0.00    +0.000 C 
ATOM     47  C   UNL     1     -22.056  -2.063   6.516  0.00  0.00    +0.000 C 
ATOM     48  C   UNL     1     -22.458  -0.779   5.779  0.00  0.00    +0.000 C 
ENDBRANCH  44  46
ENDBRANCH  42  44
ENDBRANCH  39  41
BRANCH  39  49
ATOM     49  O   UNL     1     -21.972  -8.291   9.365  0.00  0.00    +0.000 OA
ATOM     50  H   UNL     1     -21.963  -8.949   8.643  0.00  0.00    +0.000 HD
ENDBRANCH  39  49
ENDBRANCH   6  39
BRANCH   8  51
ATOM     51  C   UNL     1     -27.521  -6.374   9.238  0.00  0.00    +0.000 C 
BRANCH  51  52
ATOM     52  O   UNL     1     -28.415  -5.500   9.701  0.00  0.00    +0.000 OA
ATOM     53  H   UNL     1     -29.274  -5.936   9.873  0.00  0.00    +0.000 HD
ENDBRANCH  51  52
ENDBRANCH   8  51
TORSDOF 13
ENDMDL
MODEL 7
REMARK VINA RESULT:      -5.7      2.334      5.955
REMARK  Name = 102471178_CandidaspongiolideCore.pdbqt.pdb
REMARK  13 active torsions:
REMARK  status: ('A' for Active; 'I' for Inactive)
REMARK    1  A    between atoms: C_6  and  C_39
REMARK    2  A    between atoms: C_8  and  O_27
REMARK    3  A    between atoms: C_8  and  C_51
REMARK    4  A    between atoms: C_10  and  O_29
REMARK    5  A    between atoms: C_15  and  O_31
REMARK    6  A    between atoms: C_16  and  O_33
REMARK    7  A    between atoms: C_21  and  O_35
REMARK    8  A    between atoms: O_35  and  C_37
REMARK    9  A    between atoms: C_39  and  C_41
REMARK   10  A    between atoms: C_39  and  O_49
REMARK   11  A    between atoms: C_42  and  C_44
REMARK   12  A    between atoms: C_44  and  C_46
REMARK   13  A    between atoms: C_51  and  O_52
REMARK                            x       y       z     vdW  Elec       q    Type
REMARK                         _______ _______ _______ _____ _____    ______ ____
ROOT
ATOM      1  O   UNL     1     -12.622  -3.309  24.005  0.00  0.00    +0.000 OA
ATOM      2  O   UNL     1     -11.338  -3.091  25.897  0.00  0.00    +0.000 OA
ATOM      3  O   UNL     1      -7.445  -3.865  28.844  0.00  0.00    +0.000 OA
ATOM      4  O   UNL     1     -13.150  -1.153  23.588  0.00  0.00    +0.000 OA
ATOM      5  O   UNL     1     -12.832  -0.202  26.962  0.00  0.00    +0.000 OA
ATOM      6  C   UNL     1     -10.909  -4.840  24.314  0.00  0.00    +0.000 C 
ATOM      7  C   UNL     1     -10.284  -5.781  25.178  0.00  0.00    +0.000 C 
ATOM      8  C   UNL     1      -9.700  -6.868  25.968  0.00  0.00    +0.000 C 
ATOM      9  C   UNL     1     -11.621  -3.648  24.844  0.00  0.00    +0.000 C 
ATOM     10  C   UNL     1      -8.347  -6.498  26.537  0.00  0.00    +0.000 C 
ATOM     11  C   UNL     1      -8.032  -5.234  27.102  0.00  0.00    +0.000 C 
ATOM     12  C   UNL     1      -7.801  -3.923  27.672  0.00  0.00    +0.000 C 
ATOM     13  C   UNL     1     -13.250  -2.153  24.290  0.00  0.00    +0.000 C 
ATOM     14  C   UNL     1      -8.038  -2.691  26.860  0.00  0.00    +0.000 C 
ATOM     15  C   UNL     1     -14.321  -2.230  25.315  0.00  0.00    +0.000 C 
ATOM     16  C   UNL     1     -14.183  -2.882  26.601  0.00  0.00    +0.000 C 
ATOM     17  C   UNL     1     -13.686  -2.257  27.820  0.00  0.00    +0.000 C 
ATOM     18  C   UNL     1      -8.470  -1.504  27.501  0.00  0.00    +0.000 C 
ATOM     19  C   UNL     1     -11.395  -1.320  28.485  0.00  0.00    +0.000 C 
ATOM     20  C   UNL     1      -8.120  -2.721  25.340  0.00  0.00    +0.000 C 
ATOM     21  C   UNL     1     -10.378  -0.286  28.326  0.00  0.00    +0.000 C 
ATOM     22  C   UNL     1     -12.669  -1.168  27.711  0.00  0.00    +0.000 C 
ATOM     23  C   UNL     1      -8.947  -0.478  28.136  0.00  0.00    +0.000 C 
ATOM     24  C   UNL     1     -14.390  -2.462  29.158  0.00  0.00    +0.000 C 
ATOM     25  C   UNL     1     -11.020  -2.627  29.171  0.00  0.00    +0.000 C 
ATOM     26  C   UNL     1      -7.935   0.528  28.619  0.00  0.00    +0.000 C 
ENDROOT
BRANCH   8  27
ATOM     27  O   UNL     1      -9.529  -7.958  25.059  0.00  0.00    +0.000 OA
ATOM     28  H   UNL     1     -10.093  -8.669  25.426  0.00  0.00    +0.000 HD
ENDBRANCH   8  27
BRANCH  10  29
ATOM     29  O   UNL     1      -7.378  -7.489  26.546  0.00  0.00    +0.000 OA
ATOM     30  H   UNL     1      -6.530  -7.171  26.909  0.00  0.00    +0.000 HD
ENDBRANCH  10  29
BRANCH  15  31
ATOM     31  O   UNL     1     -15.311  -1.260  25.286  0.00  0.00    +0.000 OA
ATOM     32  H   UNL     1     -15.123  -0.599  24.586  0.00  0.00    +0.000 HD
ENDBRANCH  15  31
BRANCH  16  33
ATOM     33  O   UNL     1     -15.013  -3.971  26.801  0.00  0.00    +0.000 OA
ATOM     34  C   UNL     1     -14.276  -5.155  26.618  0.00  0.00    +0.000 C 
ENDBRANCH  16  33
BRANCH  21  35
ATOM     35  O   UNL     1     -10.844   1.033  28.555  0.00  0.00    +0.000 OA
BRANCH  35  37
ATOM     36  O   UNL     1     -10.600   1.074  30.881  0.00  0.00    +0.000 OA
ATOM     37  C   UNL     1     -11.219   1.248  29.846  0.00  0.00    +0.000 C 
ATOM     38  C   UNL     1     -12.582   1.816  30.008  0.00  0.00    +0.000 C 
ENDBRANCH  35  37
ENDBRANCH  21  35
BRANCH   6  39
ATOM     39  C   UNL     1     -10.753  -5.037  22.890  0.00  0.00    +0.000 C 
BRANCH  39  41
ATOM     40  O   UNL     1     -10.065  -3.868  20.731  0.00  0.00    +0.000 OA
ATOM     41  C   UNL     1      -9.803  -4.190  22.117  0.00  0.00    +0.000 C 
ATOM     42  C   UNL     1     -10.415  -2.941  21.671  0.00  0.00    +0.000 C 
ATOM     43  C   UNL     1      -8.259  -4.388  22.324  0.00  0.00    +0.000 C 
BRANCH  42  44
ATOM     44  C   UNL     1      -9.742  -1.678  21.633  0.00  0.00    +0.000 C 
ATOM     45  C   UNL     1      -9.408  -1.035  20.306  0.00  0.00    +0.000 C 
BRANCH  44  46
ATOM     46  C   UNL     1      -9.786  -0.804  22.748  0.00  0.00    +0.000 C 
ATOM     47  C   UNL     1      -9.832  -0.027  23.661  0.00  0.00    +0.000 C 
ATOM     48  C   UNL     1      -9.916   1.015  24.783  0.00  0.00    +0.000 C 
ENDBRANCH  44  46
ENDBRANCH  42  44
ENDBRANCH  39  41
BRANCH  39  49
ATOM     49  O   UNL     1     -11.567  -5.986  22.295  0.00  0.00    +0.000 OA
ATOM     50  H   UNL     1     -11.934  -6.648  22.912  0.00  0.00    +0.000 HD
ENDBRANCH  39  49
ENDBRANCH   6  39
BRANCH   8  51
ATOM     51  C   UNL     1     -10.602  -7.317  27.041  0.00  0.00    +0.000 C 
BRANCH  51  52
ATOM     52  O   UNL     1     -11.442  -7.686  28.009  0.00  0.00    +0.000 OA
ATOM     53  H   UNL     1     -12.295  -7.988  27.636  0.00  0.00    +0.000 HD
ENDBRANCH  51  52
ENDBRANCH   8  51
TORSDOF 13
ENDMDL
MODEL 8
REMARK VINA RESULT:      -5.7      2.143      7.413
REMARK  Name = 102471178_CandidaspongiolideCore.pdbqt.pdb
REMARK  13 active torsions:
REMARK  status: ('A' for Active; 'I' for Inactive)
REMARK    1  A    between atoms: C_6  and  C_39
REMARK    2  A    between atoms: C_8  and  O_27
REMARK    3  A    between atoms: C_8  and  C_51
REMARK    4  A    between atoms: C_10  and  O_29
REMARK    5  A    between atoms: C_15  and  O_31
REMARK    6  A    between atoms: C_16  and  O_33
REMARK    7  A    between atoms: C_21  and  O_35
REMARK    8  A    between atoms: O_35  and  C_37
REMARK    9  A    between atoms: C_39  and  C_41
REMARK   10  A    between atoms: C_39  and  O_49
REMARK   11  A    between atoms: C_42  and  C_44
REMARK   12  A    between atoms: C_44  and  C_46
REMARK   13  A    between atoms: C_51  and  O_52
REMARK                            x       y       z     vdW  Elec       q    Type
REMARK                         _______ _______ _______ _____ _____    ______ ____
ROOT
ATOM      1  O   UNL     1      -7.411  -3.324  24.844  0.00  0.00    +0.000 OA
ATOM      2  O   UNL     1      -9.502  -2.386  24.693  0.00  0.00    +0.000 OA
ATOM      3  O   UNL     1     -14.353  -1.968  25.550  0.00  0.00    +0.000 OA
ATOM      4  O   UNL     1      -6.152  -1.508  25.305  0.00  0.00    +0.000 OA
ATOM      5  O   UNL     1      -8.393   0.705  23.733  0.00  0.00    +0.000 OA
ATOM      6  C   UNL     1      -9.214  -4.627  25.498  0.00  0.00    +0.000 C 
ATOM      7  C   UNL     1     -10.494  -5.153  25.170  0.00  0.00    +0.000 C 
ATOM      8  C   UNL     1     -11.738  -5.842  24.817  0.00  0.00    +0.000 C 
ATOM      9  C   UNL     1      -8.754  -3.313  24.976  0.00  0.00    +0.000 C 
ATOM     10  C   UNL     1     -12.930  -5.292  25.570  0.00  0.00    +0.000 C 
ATOM     11  C   UNL     1     -13.164  -3.911  25.806  0.00  0.00    +0.000 C 
ATOM     12  C   UNL     1     -13.332  -2.485  25.990  0.00  0.00    +0.000 C 
ATOM     13  C   UNL     1      -6.851  -2.143  24.524  0.00  0.00    +0.000 C 
ATOM     14  C   UNL     1     -12.264  -1.676  26.653  0.00  0.00    +0.000 C 
ATOM     15  C   UNL     1      -6.851  -1.792  23.082  0.00  0.00    +0.000 C 
ATOM     16  C   UNL     1      -8.007  -1.880  22.214  0.00  0.00    +0.000 C 
ATOM     17  C   UNL     1      -8.993  -0.827  22.007  0.00  0.00    +0.000 C 
ATOM     18  C   UNL     1     -12.069  -0.327  26.269  0.00  0.00    +0.000 C 
ATOM     19  C   UNL     1     -10.719   0.269  23.552  0.00  0.00    +0.000 C 
ATOM     20  C   UNL     1     -11.182  -2.307  27.517  0.00  0.00    +0.000 C 
ATOM     21  C   UNL     1     -10.998   1.142  24.688  0.00  0.00    +0.000 C 
ATOM     22  C   UNL     1      -9.290   0.116  23.127  0.00  0.00    +0.000 C 
ATOM     23  C   UNL     1     -11.886   0.874  25.810  0.00  0.00    +0.000 C 
ATOM     24  C   UNL     1      -9.491  -0.473  20.608  0.00  0.00    +0.000 C 
ATOM     25  C   UNL     1     -11.814  -0.659  23.047  0.00  0.00    +0.000 C 
ATOM     26  C   UNL     1     -12.607   1.976  26.540  0.00  0.00    +0.000 C 
ENDROOT
BRANCH   8  27
ATOM     27  O   UNL     1     -11.547  -7.206  25.200  0.00  0.00    +0.000 OA
ATOM     28  H   UNL     1     -10.673  -7.441  24.828  0.00  0.00    +0.000 HD
ENDBRANCH   8  27
BRANCH  10  29
ATOM     29  O   UNL     1     -13.873  -6.208  26.008  0.00  0.00    +0.000 OA
ATOM     30  H   UNL     1     -14.704  -6.154  25.500  0.00  0.00    +0.000 HD
ENDBRANCH  10  29
BRANCH  15  31
ATOM     31  O   UNL     1      -5.886  -0.903  22.635  0.00  0.00    +0.000 OA
ATOM     32  H   UNL     1      -5.112  -1.388  22.278  0.00  0.00    +0.000 HD
ENDBRANCH  15  31
BRANCH  16  33
ATOM     33  O   UNL     1      -7.898  -2.789  21.177  0.00  0.00    +0.000 OA
ATOM     34  C   UNL     1      -8.548  -3.983  21.536  0.00  0.00    +0.000 C 
ENDBRANCH  16  33
BRANCH  21  35
ATOM     35  O   UNL     1     -10.461   2.449  24.567  0.00  0.00    +0.000 OA
BRANCH  35  37
ATOM     36  O   UNL     1     -12.213   3.436  23.372  0.00  0.00    +0.000 OA
ATOM     37  C   UNL     1     -11.041   3.171  23.569  0.00  0.00    +0.000 C 
ATOM     38  C   UNL     1     -10.084   3.754  22.592  0.00  0.00    +0.000 C 
ENDBRANCH  35  37
ENDBRANCH  21  35
BRANCH   6  39
ATOM     39  C   UNL     1      -8.406  -5.376  26.433  0.00  0.00    +0.000 C 
BRANCH  39  41
ATOM     40  O   UNL     1      -7.147  -5.189  28.643  0.00  0.00    +0.000 OA
ATOM     41  C   UNL     1      -8.347  -4.972  27.865  0.00  0.00    +0.000 C 
ATOM     42  C   UNL     1      -7.337  -3.946  28.108  0.00  0.00    +0.000 C 
ATOM     43  C   UNL     1      -9.607  -5.200  28.775  0.00  0.00    +0.000 C 
BRANCH  42  44
ATOM     44  C   UNL     1      -7.494  -2.854  29.021  0.00  0.00    +0.000 C 
ATOM     45  C   UNL     1      -6.827  -2.894  30.376  0.00  0.00    +0.000 C 
BRANCH  44  46
ATOM     46  C   UNL     1      -7.855  -1.567  28.548  0.00  0.00    +0.000 C 
ATOM     47  C   UNL     1      -8.125  -0.482  28.114  0.00  0.00    +0.000 C 
ATOM     48  C   UNL     1      -8.427   0.892  27.503  0.00  0.00    +0.000 C 
ENDBRANCH  44  46
ENDBRANCH  42  44
ENDBRANCH  39  41
BRANCH  39  49
ATOM     49  O   UNL     1      -7.656  -6.420  25.917  0.00  0.00    +0.000 OA
ATOM     50  H   UNL     1      -8.150  -7.020  25.326  0.00  0.00    +0.000 HD
ENDBRANCH  39  49
ENDBRANCH   6  39
BRANCH   8  51
ATOM     51  C   UNL     1     -11.991  -5.815  23.367  0.00  0.00    +0.000 C 
BRANCH  51  52
ATOM     52  O   UNL     1     -12.180  -5.775  22.048  0.00  0.00    +0.000 OA
ATOM     53  H   UNL     1     -12.143  -4.855  21.716  0.00  0.00    +0.000 HD
ENDBRANCH  51  52
ENDBRANCH   8  51
TORSDOF 13
ENDMDL
MODEL 9
REMARK VINA RESULT:      -5.6     17.683     22.221
REMARK  Name = 102471178_CandidaspongiolideCore.pdbqt.pdb
REMARK  13 active torsions:
REMARK  status: ('A' for Active; 'I' for Inactive)
REMARK    1  A    between atoms: C_6  and  C_39
REMARK    2  A    between atoms: C_8  and  O_27
REMARK    3  A    between atoms: C_8  and  C_51
REMARK    4  A    between atoms: C_10  and  O_29
REMARK    5  A    between atoms: C_15  and  O_31
REMARK    6  A    between atoms: C_16  and  O_33
REMARK    7  A    between atoms: C_21  and  O_35
REMARK    8  A    between atoms: O_35  and  C_37
REMARK    9  A    between atoms: C_39  and  C_41
REMARK   10  A    between atoms: C_39  and  O_49
REMARK   11  A    between atoms: C_42  and  C_44
REMARK   12  A    between atoms: C_44  and  C_46
REMARK   13  A    between atoms: C_51  and  O_52
REMARK                            x       y       z     vdW  Elec       q    Type
REMARK                         _______ _______ _______ _____ _____    ______ ____
ROOT
ATOM      1  O   UNL     1       6.713 -14.853  17.715  0.00  0.00    +0.000 OA
ATOM      2  O   UNL     1       6.263 -14.354  15.519  0.00  0.00    +0.000 OA
ATOM      3  O   UNL     1       3.520 -14.017  11.419  0.00  0.00    +0.000 OA
ATOM      4  O   UNL     1       7.744 -12.961  18.388  0.00  0.00    +0.000 OA
ATOM      5  O   UNL     1       8.874 -12.173  15.149  0.00  0.00    +0.000 OA
ATOM      6  C   UNL     1       4.797 -15.768  16.785  0.00  0.00    +0.000 C 
ATOM      7  C   UNL     1       4.219 -16.510  15.717  0.00  0.00    +0.000 C 
ATOM      8  C   UNL     1       3.606 -17.399  14.727  0.00  0.00    +0.000 C 
ATOM      9  C   UNL     1       5.989 -14.904  16.578  0.00  0.00    +0.000 C 
ATOM     10  C   UNL     1       2.712 -16.650  13.763  0.00  0.00    +0.000 C 
ATOM     11  C   UNL     1       3.027 -15.389  13.188  0.00  0.00    +0.000 C 
ATOM     12  C   UNL     1       3.434 -14.113  12.639  0.00  0.00    +0.000 C 
ATOM     13  C   UNL     1       7.739 -13.981  17.710  0.00  0.00    +0.000 C 
ATOM     14  C   UNL     1       3.778 -12.974  13.543  0.00  0.00    +0.000 C 
ATOM     15  C   UNL     1       8.999 -14.464  17.093  0.00  0.00    +0.000 C 
ATOM     16  C   UNL     1       9.086 -15.117  15.803  0.00  0.00    +0.000 C 
ATOM     17  C   UNL     1       9.246 -14.444  14.521  0.00  0.00    +0.000 C 
ATOM     18  C   UNL     1       4.756 -12.032  13.140  0.00  0.00    +0.000 C 
ATOM     19  C   UNL     1       7.734 -12.863  13.185  0.00  0.00    +0.000 C 
ATOM     20  C   UNL     1       3.344 -12.932  15.002  0.00  0.00    +0.000 C 
ATOM     21  C   UNL     1       7.115 -11.549  13.051  0.00  0.00    +0.000 C 
ATOM     22  C   UNL     1       8.661 -13.080  14.342  0.00  0.00    +0.000 C 
ATOM     23  C   UNL     1       5.721 -11.257  12.749  0.00  0.00    +0.000 C 
ATOM     24  C   UNL     1      10.242 -14.948  13.480  0.00  0.00    +0.000 C 
ATOM     25  C   UNL     1       7.202 -14.020  12.350  0.00  0.00    +0.000 C 
ATOM     26  C   UNL     1       5.306 -10.011  12.009  0.00  0.00    +0.000 C 
ENDROOT
BRANCH   8  27
ATOM     27  O   UNL     1       2.803 -18.316  15.474  0.00  0.00    +0.000 OA
ATOM     28  H   UNL     1       3.429 -18.724  16.106  0.00  0.00    +0.000 HD
ENDBRANCH   8  27
BRANCH  10  29
ATOM     29  O   UNL     1       1.533 -17.273  13.386  0.00  0.00    +0.000 OA
ATOM     30  H   UNL     1       0.770 -16.967  13.910  0.00  0.00    +0.000 HD
ENDBRANCH  10  29
BRANCH  15  31
ATOM     31  O   UNL     1      10.183 -13.865  17.494  0.00  0.00    +0.000 OA
ATOM     32  H   UNL     1      10.506 -13.247  16.803  0.00  0.00    +0.000 HD
ENDBRANCH  15  31
BRANCH  16  33
ATOM     33  O   UNL     1       9.534 -16.425  15.834  0.00  0.00    +0.000 OA
ATOM     34  C   UNL     1       8.441 -17.295  15.669  0.00  0.00    +0.000 C 
ENDBRANCH  16  33
BRANCH  21  35
ATOM     35  O   UNL     1       8.032 -10.467  13.053  0.00  0.00    +0.000 OA
BRANCH  35  37
ATOM     36  O   UNL     1       8.558 -10.488  10.774  0.00  0.00    +0.000 OA
ATOM     37  C   UNL     1       8.841 -10.454  11.958  0.00  0.00    +0.000 C 
ATOM     38  C   UNL     1      10.291 -10.344  12.263  0.00  0.00    +0.000 C 
ENDBRANCH  35  37
ENDBRANCH  21  35
BRANCH   6  39
ATOM     39  C   UNL     1       4.129 -15.813  18.065  0.00  0.00    +0.000 C 
BRANCH  39  41
ATOM     40  O   UNL     1       3.200 -14.308  19.903  0.00  0.00    +0.000 OA
ATOM     41  C   UNL     1       3.274 -14.675  18.505  0.00  0.00    +0.000 C 
ATOM     42  C   UNL     1       4.055 -13.598  19.107  0.00  0.00    +0.000 C 
ATOM     43  C   UNL     1       1.866 -14.474  17.838  0.00  0.00    +0.000 C 
BRANCH  42  44
ATOM     44  C   UNL     1       3.785 -12.204  18.929  0.00  0.00    +0.000 C 
ATOM     45  C   UNL     1       3.035 -11.434  19.991  0.00  0.00    +0.000 C 
BRANCH  44  46
ATOM     46  C   UNL     1       4.569 -11.426  18.040  0.00  0.00    +0.000 C 
ATOM     47  C   UNL     1       5.195 -10.768  17.256  0.00  0.00    +0.000 C 
ATOM     48  C   UNL     1       5.935  -9.918  16.216  0.00  0.00    +0.000 C 
ENDBRANCH  44  46
ENDBRANCH  42  44
ENDBRANCH  39  41
BRANCH  39  49
ATOM     49  O   UNL     1       4.380 -16.915  18.865  0.00  0.00    +0.000 OA
ATOM     50  H   UNL     1       3.898 -16.917  19.714  0.00  0.00    +0.000 HD
ENDBRANCH  39  49
ENDBRANCH   6  39
BRANCH   8  51
ATOM     51  C   UNL     1       4.612 -18.181  13.990  0.00  0.00    +0.000 C 
BRANCH  51  52
ATOM     52  O   UNL     1       5.503 -18.879  13.285  0.00  0.00    +0.000 OA
ATOM     53  H   UNL     1       5.058 -19.460  12.636  0.00  0.00    +0.000 HD
ENDBRANCH  51  52
ENDBRANCH   8  51
TORSDOF 13
ENDMDL
