MODEL 1
REMARK VINA RESULT:      -7.1      0.000      0.000
REMARK  Name = 10288191_Binimetinib.pdbqt.pdb
REMARK  6 active torsions:
REMARK  status: ('A' for Active; 'I' for Inactive)
REMARK    1  A    between atoms: C_6  and  N_21
REMARK    2  A    between atoms: C_7  and  C_14
REMARK    3  A    between atoms: N_13  and  O_16
REMARK    4  A    between atoms: O_16  and  C_17
REMARK    5  A    between atoms: C_18  and  O_19
REMARK    6  A    between atoms: N_21  and  C_25
REMARK                            x       y       z     vdW  Elec       q    Type
REMARK                         _______ _______ _______ _____ _____    ______ ____
ROOT
ATOM      1  F   UNL     1      -9.780  -0.259  19.422  0.00  0.00    +0.000 F 
ATOM      2  N   UNL     1      -7.239   1.872  22.493  0.00  0.00    +0.000 N 
ATOM      3  N   UNL     1      -8.418   2.053  20.637  0.00  0.00    +0.000 NA
ATOM      4  C   UNL     1      -7.725   0.615  22.274  0.00  0.00    +0.000 A 
ATOM      5  C   UNL     1      -8.467   0.752  21.104  0.00  0.00    +0.000 A 
ATOM      6  C   UNL     1      -9.037  -1.635  21.234  0.00  0.00    +0.000 A 
ATOM      7  C   UNL     1      -8.256  -1.724  22.416  0.00  0.00    +0.000 A 
ATOM      8  C   UNL     1      -7.594  -0.601  22.946  0.00  0.00    +0.000 A 
ATOM      9  C   UNL     1      -9.122  -0.381  20.585  0.00  0.00    +0.000 A 
ATOM     10  C   UNL     1      -7.667   2.705  21.504  0.00  0.00    +0.000 A 
ATOM     11  C   UNL     1      -6.426   2.265  23.596  0.00  0.00    +0.000 C 
ENDROOT
BRANCH   7  14
ATOM     12  O   UNL     1      -7.275  -3.851  22.704  0.00  0.00    +0.000 OA
ATOM     13  N   UNL     1      -8.850  -3.218  24.263  0.00  0.00    +0.000 N 
ATOM     14  C   UNL     1      -8.077  -3.026  23.135  0.00  0.00    +0.000 C 
ATOM     15  H   UNL     1      -9.726  -2.730  24.400  0.00  0.00    +0.000 HD
BRANCH  13  16
ATOM     16  O   UNL     1      -8.854  -4.551  24.730  0.00  0.00    +0.000 OA
BRANCH  16  17
ATOM     17  C   UNL     1      -9.892  -5.147  24.146  0.00  0.00    +0.000 C 
ATOM     18  C   UNL     1     -11.094  -5.828  23.484  0.00  0.00    +0.000 C 
BRANCH  18  19
ATOM     19  O   UNL     1     -12.142  -6.414  22.915  0.00  0.00    +0.000 OA
ATOM     20  H   UNL     1     -11.876  -7.260  22.515  0.00  0.00    +0.000 HD
ENDBRANCH  18  19
ENDBRANCH  16  17
ENDBRANCH  13  16
ENDBRANCH   7  14
BRANCH   6  21
ATOM     21  N   UNL     1      -9.732  -2.772  20.746  0.00  0.00    +0.000 N 
ATOM     22  H   UNL     1     -10.735  -2.770  20.989  0.00  0.00    +0.000 HD
BRANCH  21  25
ATOM     23 BR   UNL     1      -8.785  -6.535  16.042  0.00  0.00    +0.000 Br
ATOM     24  F   UNL     1     -10.921  -2.378  18.289  0.00  0.00    +0.000 F 
ATOM     25  C   UNL     1      -9.459  -3.639  19.668  0.00  0.00    +0.000 A 
ATOM     26  C   UNL     1     -10.100  -3.432  18.435  0.00  0.00    +0.000 A 
ATOM     27  C   UNL     1      -8.631  -4.758  19.781  0.00  0.00    +0.000 A 
ATOM     28  C   UNL     1      -9.907  -4.281  17.350  0.00  0.00    +0.000 A 
ATOM     29  C   UNL     1      -8.424  -5.621  18.705  0.00  0.00    +0.000 A 
ATOM     30  C   UNL     1      -9.064  -5.374  17.497  0.00  0.00    +0.000 A 
ENDBRANCH  21  25
ENDBRANCH   6  21
TORSDOF 6
ENDMDL
MODEL 2
REMARK VINA RESULT:      -7.1      2.522      5.671
REMARK  Name = 10288191_Binimetinib.pdbqt.pdb
REMARK  6 active torsions:
REMARK  status: ('A' for Active; 'I' for Inactive)
REMARK    1  A    between atoms: C_6  and  N_21
REMARK    2  A    between atoms: C_7  and  C_14
REMARK    3  A    between atoms: N_13  and  O_16
REMARK    4  A    between atoms: O_16  and  C_17
REMARK    5  A    between atoms: C_18  and  O_19
REMARK    6  A    between atoms: N_21  and  C_25
REMARK                            x       y       z     vdW  Elec       q    Type
REMARK                         _______ _______ _______ _____ _____    ______ ____
ROOT
ATOM      1  F   UNL     1     -12.097  -5.156  21.629  0.00  0.00    +0.000 F 
ATOM      2  N   UNL     1     -11.081  -6.488  25.828  0.00  0.00    +0.000 N 
ATOM      3  N   UNL     1     -12.537  -6.577  24.171  0.00  0.00    +0.000 NA
ATOM      4  C   UNL     1     -10.516  -5.740  24.835  0.00  0.00    +0.000 A 
ATOM      5  C   UNL     1     -11.445  -5.813  23.802  0.00  0.00    +0.000 A 
ATOM      6  C   UNL     1      -9.971  -4.402  22.431  0.00  0.00    +0.000 A 
ATOM      7  C   UNL     1      -9.063  -4.347  23.521  0.00  0.00    +0.000 A 
ATOM      8  C   UNL     1      -9.327  -5.015  24.732  0.00  0.00    +0.000 A 
ATOM      9  C   UNL     1     -11.169  -5.137  22.598  0.00  0.00    +0.000 A 
ATOM     10  C   UNL     1     -12.282  -6.972  25.404  0.00  0.00    +0.000 A 
ATOM     11  C   UNL     1     -10.502  -6.744  27.104  0.00  0.00    +0.000 C 
ENDROOT
BRANCH   7  14
ATOM     12  O   UNL     1      -7.022  -3.737  22.506  0.00  0.00    +0.000 OA
ATOM     13  N   UNL     1      -7.581  -2.635  24.451  0.00  0.00    +0.000 N 
ATOM     14  C   UNL     1      -7.798  -3.550  23.441  0.00  0.00    +0.000 C 
ATOM     15  H   UNL     1      -8.008  -2.735  25.364  0.00  0.00    +0.000 HD
BRANCH  13  16
ATOM     16  O   UNL     1      -6.265  -2.124  24.485  0.00  0.00    +0.000 OA
BRANCH  16  17
ATOM     17  C   UNL     1      -6.283  -1.000  23.771  0.00  0.00    +0.000 C 
ATOM     18  C   UNL     1      -6.308   0.286  22.938  0.00  0.00    +0.000 C 
BRANCH  18  19
ATOM     19  O   UNL     1      -6.333   1.397  22.210  0.00  0.00    +0.000 OA
ATOM     20  H   UNL     1      -6.799   1.238  21.372  0.00  0.00    +0.000 HD
ENDBRANCH  18  19
ENDBRANCH  16  17
ENDBRANCH  13  16
ENDBRANCH   7  14
BRANCH   6  21
ATOM     21  N   UNL     1      -9.661  -3.758  21.206  0.00  0.00    +0.000 N 
ATOM     22  H   UNL     1      -9.254  -2.818  21.332  0.00  0.00    +0.000 HD
BRANCH  21  25
ATOM     23 BR   UNL     1      -8.688  -6.007  15.622  0.00  0.00    +0.000 Br
ATOM     24  F   UNL     1     -10.913  -2.734  18.972  0.00  0.00    +0.000 F 
ATOM     25  C   UNL     1      -9.382  -4.276  19.924  0.00  0.00    +0.000 A 
ATOM     26  C   UNL     1     -10.055  -3.754  18.806  0.00  0.00    +0.000 A 
ATOM     27  C   UNL     1      -8.515  -5.349  19.708  0.00  0.00    +0.000 A 
ATOM     28  C   UNL     1      -9.857  -4.256  17.524  0.00  0.00    +0.000 A 
ATOM     29  C   UNL     1      -8.302  -5.866  18.430  0.00  0.00    +0.000 A 
ATOM     30  C   UNL     1      -8.976  -5.313  17.348  0.00  0.00    +0.000 A 
ENDBRANCH  21  25
ENDBRANCH   6  21
TORSDOF 6
ENDMDL
MODEL 3
REMARK VINA RESULT:      -6.8      2.186      2.544
REMARK  Name = 10288191_Binimetinib.pdbqt.pdb
REMARK  6 active torsions:
REMARK  status: ('A' for Active; 'I' for Inactive)
REMARK    1  A    between atoms: C_6  and  N_21
REMARK    2  A    between atoms: C_7  and  C_14
REMARK    3  A    between atoms: N_13  and  O_16
REMARK    4  A    between atoms: O_16  and  C_17
REMARK    5  A    between atoms: C_18  and  O_19
REMARK    6  A    between atoms: N_21  and  C_25
REMARK                            x       y       z     vdW  Elec       q    Type
REMARK                         _______ _______ _______ _____ _____    ______ ____
ROOT
ATOM      1  F   UNL     1      -8.348  -1.337  20.419  0.00  0.00    +0.000 F 
ATOM      2  N   UNL     1     -10.243   2.169  22.552  0.00  0.00    +0.000 N 
ATOM      3  N   UNL     1      -8.664   1.495  21.166  0.00  0.00    +0.000 NA
ATOM      4  C   UNL     1     -10.441   0.824  22.438  0.00  0.00    +0.000 A 
ATOM      5  C   UNL     1      -9.440   0.420  21.559  0.00  0.00    +0.000 A 
ATOM      6  C   UNL     1     -10.267  -1.888  21.741  0.00  0.00    +0.000 A 
ATOM      7  C   UNL     1     -11.260  -1.426  22.644  0.00  0.00    +0.000 A 
ATOM      8  C   UNL     1     -11.356  -0.068  23.001  0.00  0.00    +0.000 A 
ATOM      9  C   UNL     1      -9.355  -0.943  21.214  0.00  0.00    +0.000 A 
ATOM     10  C   UNL     1      -9.180   2.540  21.785  0.00  0.00    +0.000 A 
ATOM     11  C   UNL     1     -11.035   3.060  23.334  0.00  0.00    +0.000 C 
ENDROOT
BRANCH   7  14
ATOM     12  O   UNL     1     -13.313  -2.586  22.742  0.00  0.00    +0.000 OA
ATOM     13  N   UNL     1     -11.834  -2.954  24.470  0.00  0.00    +0.000 N 
ATOM     14  C   UNL     1     -12.231  -2.372  23.283  0.00  0.00    +0.000 C 
ATOM     15  H   UNL     1     -11.144  -2.523  25.072  0.00  0.00    +0.000 HD
BRANCH  13  16
ATOM     16  O   UNL     1     -12.879  -3.601  25.164  0.00  0.00    +0.000 OA
BRANCH  16  17
ATOM     17  C   UNL     1     -12.856  -4.873  24.771  0.00  0.00    +0.000 C 
ATOM     18  C   UNL     1     -12.832  -6.333  24.306  0.00  0.00    +0.000 C 
BRANCH  18  19
ATOM     19  O   UNL     1     -12.812  -7.596  23.894  0.00  0.00    +0.000 OA
ATOM     20  H   UNL     1     -13.457  -8.122  24.396  0.00  0.00    +0.000 HD
ENDBRANCH  18  19
ENDBRANCH  16  17
ENDBRANCH  13  16
ENDBRANCH   7  14
BRANCH   6  21
ATOM     21  N   UNL     1     -10.220  -3.254  21.362  0.00  0.00    +0.000 N 
ATOM     22  H   UNL     1     -10.938  -3.830  21.829  0.00  0.00    +0.000 HD
BRANCH  21  25
ATOM     23 BR   UNL     1      -8.285  -6.018  16.283  0.00  0.00    +0.000 Br
ATOM     24  F   UNL     1     -11.239  -2.636  18.875  0.00  0.00    +0.000 F 
ATOM     25  C   UNL     1      -9.721  -3.885  20.203  0.00  0.00    +0.000 A 
ATOM     26  C   UNL     1     -10.278  -3.571  18.952  0.00  0.00    +0.000 A 
ATOM     27  C   UNL     1      -8.738  -4.876  20.239  0.00  0.00    +0.000 A 
ATOM     28  C   UNL     1      -9.860  -4.194  17.781  0.00  0.00    +0.000 A 
ATOM     29  C   UNL     1      -8.305  -5.512  19.075  0.00  0.00    +0.000 A 
ATOM     30  C   UNL     1      -8.870  -5.164  17.854  0.00  0.00    +0.000 A 
ENDBRANCH  21  25
ENDBRANCH   6  21
TORSDOF 6
ENDMDL
MODEL 4
REMARK VINA RESULT:      -6.7      3.156      5.601
REMARK  Name = 10288191_Binimetinib.pdbqt.pdb
REMARK  6 active torsions:
REMARK  status: ('A' for Active; 'I' for Inactive)
REMARK    1  A    between atoms: C_6  and  N_21
REMARK    2  A    between atoms: C_7  and  C_14
REMARK    3  A    between atoms: N_13  and  O_16
REMARK    4  A    between atoms: O_16  and  C_17
REMARK    5  A    between atoms: C_18  and  O_19
REMARK    6  A    between atoms: N_21  and  C_25
REMARK                            x       y       z     vdW  Elec       q    Type
REMARK                         _______ _______ _______ _____ _____    ______ ____
ROOT
ATOM      1  F   UNL     1     -10.941  -5.810  21.782  0.00  0.00    +0.000 F 
ATOM      2  N   UNL     1     -13.306  -3.395  24.783  0.00  0.00    +0.000 N 
ATOM      3  N   UNL     1     -13.028  -5.356  23.810  0.00  0.00    +0.000 NA
ATOM      4  C   UNL     1     -12.244  -3.213  23.945  0.00  0.00    +0.000 A 
ATOM      5  C   UNL     1     -12.084  -4.459  23.346  0.00  0.00    +0.000 A 
ATOM      6  C   UNL     1     -10.184  -3.557  22.073  0.00  0.00    +0.000 A 
ATOM      7  C   UNL     1     -10.400  -2.303  22.702  0.00  0.00    +0.000 A 
ATOM      8  C   UNL     1     -11.430  -2.120  23.643  0.00  0.00    +0.000 A 
ATOM      9  C   UNL     1     -11.050  -4.626  22.405  0.00  0.00    +0.000 A 
ATOM     10  C   UNL     1     -13.751  -4.678  24.681  0.00  0.00    +0.000 A 
ATOM     11  C   UNL     1     -13.857  -2.407  25.650  0.00  0.00    +0.000 C 
ENDROOT
BRANCH   7  14
ATOM     12  O   UNL     1      -8.341  -1.164  22.527  0.00  0.00    +0.000 OA
ATOM     13  N   UNL     1     -10.225   0.002  21.894  0.00  0.00    +0.000 N 
ATOM     14  C   UNL     1      -9.558  -1.110  22.368  0.00  0.00    +0.000 C 
ATOM     15  H   UNL     1     -11.201   0.168  22.101  0.00  0.00    +0.000 HD
BRANCH  13  16
ATOM     16  O   UNL     1      -9.435   1.172  21.867  0.00  0.00    +0.000 OA
BRANCH  16  17
ATOM     17  C   UNL     1      -9.473   1.619  20.613  0.00  0.00    +0.000 C 
ATOM     18  C   UNL     1      -9.528   2.125  19.168  0.00  0.00    +0.000 C 
BRANCH  18  19
ATOM     19  O   UNL     1      -9.583   2.560  17.914  0.00  0.00    +0.000 OA
ATOM     20  H   UNL     1      -8.818   2.232  17.411  0.00  0.00    +0.000 HD
ENDBRANCH  18  19
ENDBRANCH  16  17
ENDBRANCH  13  16
ENDBRANCH   7  14
BRANCH   6  21
ATOM     21  N   UNL     1      -9.110  -3.728  21.162  0.00  0.00    +0.000 N 
ATOM     22  H   UNL     1      -8.191  -3.799  21.626  0.00  0.00    +0.000 HD
BRANCH  21  25
ATOM     23 BR   UNL     1      -9.181  -5.968  15.491  0.00  0.00    +0.000 Br
ATOM     24  F   UNL     1     -10.591  -2.570  19.145  0.00  0.00    +0.000 F 
ATOM     25  C   UNL     1      -9.072  -4.249  19.852  0.00  0.00    +0.000 A 
ATOM     26  C   UNL     1      -9.858  -3.656  18.850  0.00  0.00    +0.000 A 
ATOM     27  C   UNL     1      -8.342  -5.387  19.505  0.00  0.00    +0.000 A 
ATOM     28  C   UNL     1      -9.898  -4.153  17.551  0.00  0.00    +0.000 A 
ATOM     29  C   UNL     1      -8.367  -5.901  18.209  0.00  0.00    +0.000 A 
ATOM     30  C   UNL     1      -9.146  -5.278  17.242  0.00  0.00    +0.000 A 
ENDBRANCH  21  25
ENDBRANCH   6  21
TORSDOF 6
ENDMDL
MODEL 5
REMARK VINA RESULT:      -6.4      2.969      5.193
REMARK  Name = 10288191_Binimetinib.pdbqt.pdb
REMARK  6 active torsions:
REMARK  status: ('A' for Active; 'I' for Inactive)
REMARK    1  A    between atoms: C_6  and  N_21
REMARK    2  A    between atoms: C_7  and  C_14
REMARK    3  A    between atoms: N_13  and  O_16
REMARK    4  A    between atoms: O_16  and  C_17
REMARK    5  A    between atoms: C_18  and  O_19
REMARK    6  A    between atoms: N_21  and  C_25
REMARK                            x       y       z     vdW  Elec       q    Type
REMARK                         _______ _______ _______ _____ _____    ______ ____
ROOT
ATOM      1  F   UNL     1     -11.139  -5.241  21.809  0.00  0.00    +0.000 F 
ATOM      2  N   UNL     1     -12.729  -2.156  24.704  0.00  0.00    +0.000 N 
ATOM      3  N   UNL     1     -12.890  -4.222  23.947  0.00  0.00    +0.000 NA
ATOM      4  C   UNL     1     -11.748  -2.250  23.759  0.00  0.00    +0.000 A 
ATOM      5  C   UNL     1     -11.864  -3.559  23.299  0.00  0.00    +0.000 A 
ATOM      6  C   UNL     1      -9.990  -3.142  21.765  0.00  0.00    +0.000 A 
ATOM      7  C   UNL     1      -9.923  -1.812  22.258  0.00  0.00    +0.000 A 
ATOM      8  C   UNL     1     -10.801  -1.355  23.259  0.00  0.00    +0.000 A 
ATOM      9  C   UNL     1     -10.981  -4.001  22.296  0.00  0.00    +0.000 A 
ATOM     10  C   UNL     1     -13.391  -3.343  24.793  0.00  0.00    +0.000 A 
ATOM     11  C   UNL     1     -13.010  -1.003  25.494  0.00  0.00    +0.000 C 
ENDROOT
BRANCH   7  14
ATOM     12  O   UNL     1      -8.908  -0.602  20.506  0.00  0.00    +0.000 OA
ATOM     13  N   UNL     1      -8.095  -0.227  22.629  0.00  0.00    +0.000 N 
ATOM     14  C   UNL     1      -8.935  -0.828  21.713  0.00  0.00    +0.000 C 
ATOM     15  H   UNL     1      -7.875  -0.660  23.517  0.00  0.00    +0.000 HD
BRANCH  13  16
ATOM     16  O   UNL     1      -7.011   0.462  22.042  0.00  0.00    +0.000 OA
BRANCH  16  17
ATOM     17  C   UNL     1      -5.906  -0.097  22.528  0.00  0.00    +0.000 C 
ATOM     18  C   UNL     1      -4.633  -0.751  23.078  0.00  0.00    +0.000 C 
BRANCH  18  19
ATOM     19  O   UNL     1      -3.530  -1.322  23.547  0.00  0.00    +0.000 OA
ATOM     20  H   UNL     1      -3.665  -2.280  23.648  0.00  0.00    +0.000 HD
ENDBRANCH  18  19
ENDBRANCH  16  17
ENDBRANCH  13  16
ENDBRANCH   7  14
BRANCH   6  21
ATOM     21  N   UNL     1      -9.064  -3.592  20.788  0.00  0.00    +0.000 N 
ATOM     22  H   UNL     1      -8.163  -3.892  21.191  0.00  0.00    +0.000 HD
BRANCH  21  25
ATOM     23 BR   UNL     1      -9.659  -5.881  15.167  0.00  0.00    +0.000 Br
ATOM     24  F   UNL     1      -7.726  -5.864  19.979  0.00  0.00    +0.000 F 
ATOM     25  C   UNL     1      -9.256  -4.117  19.493  0.00  0.00    +0.000 A 
ATOM     26  C   UNL     1      -8.540  -5.260  19.098  0.00  0.00    +0.000 A 
ATOM     27  C   UNL     1     -10.075  -3.510  18.538  0.00  0.00    +0.000 A 
ATOM     28  C   UNL     1      -8.652  -5.795  17.819  0.00  0.00    +0.000 A 
ATOM     29  C   UNL     1     -10.201  -4.032  17.251  0.00  0.00    +0.000 A 
ATOM     30  C   UNL     1      -9.488  -5.173  16.903  0.00  0.00    +0.000 A 
ENDBRANCH  21  25
ENDBRANCH   6  21
TORSDOF 6
ENDMDL
MODEL 6
REMARK VINA RESULT:      -6.4      3.511      5.706
REMARK  Name = 10288191_Binimetinib.pdbqt.pdb
REMARK  6 active torsions:
REMARK  status: ('A' for Active; 'I' for Inactive)
REMARK    1  A    between atoms: C_6  and  N_21
REMARK    2  A    between atoms: C_7  and  C_14
REMARK    3  A    between atoms: N_13  and  O_16
REMARK    4  A    between atoms: O_16  and  C_17
REMARK    5  A    between atoms: C_18  and  O_19
REMARK    6  A    between atoms: N_21  and  C_25
REMARK                            x       y       z     vdW  Elec       q    Type
REMARK                         _______ _______ _______ _____ _____    ______ ____
ROOT
ATOM      1  F   UNL     1      -7.400  -4.629  23.315  0.00  0.00    +0.000 F 
ATOM      2  N   UNL     1      -9.902  -5.711  26.921  0.00  0.00    +0.000 N 
ATOM      3  N   UNL     1      -7.890  -5.701  26.015  0.00  0.00    +0.000 NA
ATOM      4  C   UNL     1     -10.079  -5.120  25.704  0.00  0.00    +0.000 A 
ATOM      5  C   UNL     1      -8.801  -5.119  25.152  0.00  0.00    +0.000 A 
ATOM      6  C   UNL     1      -9.709  -4.017  23.151  0.00  0.00    +0.000 A 
ATOM      7  C   UNL     1     -10.994  -4.056  23.753  0.00  0.00    +0.000 A 
ATOM      8  C   UNL     1     -11.191  -4.606  25.032  0.00  0.00    +0.000 A 
ATOM      9  C   UNL     1      -8.621  -4.567  23.870  0.00  0.00    +0.000 A 
ATOM     10  C   UNL     1      -8.592  -6.045  27.078  0.00  0.00    +0.000 A 
ATOM     11  C   UNL     1     -10.923  -5.929  27.892  0.00  0.00    +0.000 C 
ENDROOT
BRANCH   7  14
ATOM     12  O   UNL     1     -12.300  -3.689  21.821  0.00  0.00    +0.000 OA
ATOM     13  N   UNL     1     -13.156  -2.907  23.812  0.00  0.00    +0.000 N 
ATOM     14  C   UNL     1     -12.204  -3.538  23.037  0.00  0.00    +0.000 C 
ATOM     15  H   UNL     1     -12.923  -2.477  24.699  0.00  0.00    +0.000 HD
BRANCH  13  16
ATOM     16  O   UNL     1     -14.121  -2.197  23.065  0.00  0.00    +0.000 OA
BRANCH  16  17
ATOM     17  C   UNL     1     -14.051  -0.932  23.472  0.00  0.00    +0.000 C 
ATOM     18  C   UNL     1     -13.984   0.526  23.941  0.00  0.00    +0.000 C 
BRANCH  18  19
ATOM     19  O   UNL     1     -13.934   1.789  24.351  0.00  0.00    +0.000 OA
ATOM     20  H   UNL     1     -13.331   1.871  25.109  0.00  0.00    +0.000 HD
ENDBRANCH  18  19
ENDBRANCH  16  17
ENDBRANCH  13  16
ENDBRANCH   7  14
BRANCH   6  21
ATOM     21  N   UNL     1      -9.529  -3.415  21.879  0.00  0.00    +0.000 N 
ATOM     22  H   UNL     1      -9.185  -2.444  21.934  0.00  0.00    +0.000 HD
BRANCH  21  25
ATOM     23 BR   UNL     1      -8.768  -5.817  16.325  0.00  0.00    +0.000 Br
ATOM     24  F   UNL     1     -10.550  -2.223  19.612  0.00  0.00    +0.000 F 
ATOM     25  C   UNL     1      -9.300  -3.977  20.606  0.00  0.00    +0.000 A 
ATOM     26  C   UNL     1      -9.855  -3.364  19.470  0.00  0.00    +0.000 A 
ATOM     27  C   UNL     1      -8.603  -5.172  20.414  0.00  0.00    +0.000 A 
ATOM     28  C   UNL     1      -9.703  -3.897  18.194  0.00  0.00    +0.000 A 
ATOM     29  C   UNL     1      -8.439  -5.722  19.143  0.00  0.00    +0.000 A 
ATOM     30  C   UNL     1      -8.990  -5.078  18.042  0.00  0.00    +0.000 A 
ENDBRANCH  21  25
ENDBRANCH   6  21
TORSDOF 6
ENDMDL
MODEL 7
REMARK VINA RESULT:      -5.9      4.454      7.529
REMARK  Name = 10288191_Binimetinib.pdbqt.pdb
REMARK  6 active torsions:
REMARK  status: ('A' for Active; 'I' for Inactive)
REMARK    1  A    between atoms: C_6  and  N_21
REMARK    2  A    between atoms: C_7  and  C_14
REMARK    3  A    between atoms: N_13  and  O_16
REMARK    4  A    between atoms: O_16  and  C_17
REMARK    5  A    between atoms: C_18  and  O_19
REMARK    6  A    between atoms: N_21  and  C_25
REMARK                            x       y       z     vdW  Elec       q    Type
REMARK                         _______ _______ _______ _____ _____    ______ ____
ROOT
ATOM      1  F   UNL     1      -6.580  -3.257  22.388  0.00  0.00    +0.000 F 
ATOM      2  N   UNL     1      -9.967  -3.528  19.408  0.00  0.00    +0.000 N 
ATOM      3  N   UNL     1      -8.381  -4.613  20.493  0.00  0.00    +0.000 NA
ATOM      4  C   UNL     1      -9.380  -2.578  20.194  0.00  0.00    +0.000 A 
ATOM      5  C   UNL     1      -8.389  -3.283  20.871  0.00  0.00    +0.000 A 
ATOM      6  C   UNL     1      -7.759  -1.206  22.026  0.00  0.00    +0.000 A 
ATOM      7  C   UNL     1      -8.775  -0.532  21.298  0.00  0.00    +0.000 A 
ATOM      8  C   UNL     1      -9.593  -1.211  20.377  0.00  0.00    +0.000 A 
ATOM      9  C   UNL     1      -7.576  -2.589  21.788  0.00  0.00    +0.000 A 
ATOM     10  C   UNL     1      -9.352  -4.727  19.607  0.00  0.00    +0.000 A 
ATOM     11  C   UNL     1     -11.067  -3.310  18.527  0.00  0.00    +0.000 C 
ENDROOT
BRANCH   7  14
ATOM     12  O   UNL     1      -8.941   1.445  22.576  0.00  0.00    +0.000 OA
ATOM     13  N   UNL     1      -9.264   1.652  20.304  0.00  0.00    +0.000 N 
ATOM     14  C   UNL     1      -8.999   0.941  21.458  0.00  0.00    +0.000 C 
ATOM     15  H   UNL     1      -9.656   1.210  19.482  0.00  0.00    +0.000 HD
BRANCH  13  16
ATOM     16  O   UNL     1      -9.742   2.959  20.538  0.00  0.00    +0.000 OA
BRANCH  16  17
ATOM     17  C   UNL     1      -9.692   3.590  19.367  0.00  0.00    +0.000 C 
ATOM     18  C   UNL     1      -9.635   4.328  18.025  0.00  0.00    +0.000 C 
BRANCH  18  19
ATOM     19  O   UNL     1      -9.586   4.975  16.866  0.00  0.00    +0.000 OA
ATOM     20  H   UNL     1     -10.329   5.599  16.798  0.00  0.00    +0.000 HD
ENDBRANCH  18  19
ENDBRANCH  16  17
ENDBRANCH  13  16
ENDBRANCH   7  14
BRANCH   6  21
ATOM     21  N   UNL     1      -6.978  -0.508  22.982  0.00  0.00    +0.000 N 
ATOM     22  H   UNL     1      -7.405  -0.490  23.921  0.00  0.00    +0.000 HD
BRANCH  21  25
ATOM     23 BR   UNL     1      -1.003   0.713  22.978  0.00  0.00    +0.000 Br
ATOM     24  F   UNL     1      -5.928   1.682  21.676  0.00  0.00    +0.000 F 
ATOM     25  C   UNL     1      -5.595  -0.233  23.035  0.00  0.00    +0.000 A 
ATOM     26  C   UNL     1      -5.084   0.874  22.338  0.00  0.00    +0.000 A 
ATOM     27  C   UNL     1      -4.679  -1.058  23.692  0.00  0.00    +0.000 A 
ATOM     28  C   UNL     1      -3.724   1.168  22.314  0.00  0.00    +0.000 A 
ATOM     29  C   UNL     1      -3.313  -0.779  23.681  0.00  0.00    +0.000 A 
ATOM     30  C   UNL     1      -2.846   0.334  22.992  0.00  0.00    +0.000 A 
ENDBRANCH  21  25
ENDBRANCH   6  21
TORSDOF 6
ENDMDL
MODEL 8
REMARK VINA RESULT:      -5.8      4.057      5.987
REMARK  Name = 10288191_Binimetinib.pdbqt.pdb
REMARK  6 active torsions:
REMARK  status: ('A' for Active; 'I' for Inactive)
REMARK    1  A    between atoms: C_6  and  N_21
REMARK    2  A    between atoms: C_7  and  C_14
REMARK    3  A    between atoms: N_13  and  O_16
REMARK    4  A    between atoms: O_16  and  C_17
REMARK    5  A    between atoms: C_18  and  O_19
REMARK    6  A    between atoms: N_21  and  C_25
REMARK                            x       y       z     vdW  Elec       q    Type
REMARK                         _______ _______ _______ _____ _____    ______ ____
ROOT
ATOM      1  F   UNL     1      -4.298  -1.314  23.133  0.00  0.00    +0.000 F 
ATOM      2  N   UNL     1      -2.159   2.360  21.599  0.00  0.00    +0.000 N 
ATOM      3  N   UNL     1      -1.957   0.304  22.374  0.00  0.00    +0.000 NA
ATOM      4  C   UNL     1      -3.443   1.945  21.802  0.00  0.00    +0.000 A 
ATOM      5  C   UNL     1      -3.293   0.648  22.286  0.00  0.00    +0.000 A 
ATOM      6  C   UNL     1      -5.740   0.465  22.435  0.00  0.00    +0.000 A 
ATOM      7  C   UNL     1      -5.837   1.796  21.953  0.00  0.00    +0.000 A 
ATOM      8  C   UNL     1      -4.691   2.547  21.632  0.00  0.00    +0.000 A 
ATOM      9  C   UNL     1      -4.449  -0.090  22.605  0.00  0.00    +0.000 A 
ATOM     10  C   UNL     1      -1.298   1.365  21.947  0.00  0.00    +0.000 A 
ATOM     11  C   UNL     1      -1.772   3.631  21.082  0.00  0.00    +0.000 C 
ENDROOT
BRANCH   7  14
ATOM     12  O   UNL     1      -7.972   2.447  22.718  0.00  0.00    +0.000 OA
ATOM     13  N   UNL     1      -7.399   3.090  20.581  0.00  0.00    +0.000 N 
ATOM     14  C   UNL     1      -7.165   2.471  21.792  0.00  0.00    +0.000 C 
ATOM     15  H   UNL     1      -6.917   2.810  19.736  0.00  0.00    +0.000 HD
BRANCH  13  16
ATOM     16  O   UNL     1      -8.748   3.456  20.379  0.00  0.00    +0.000 OA
BRANCH  16  17
ATOM     17  C   UNL     1      -9.115   2.903  19.224  0.00  0.00    +0.000 C 
ATOM     18  C   UNL     1      -9.534   2.256  17.900  0.00  0.00    +0.000 C 
BRANCH  18  19
ATOM     19  O   UNL     1      -9.895   1.687  16.755  0.00  0.00    +0.000 OA
ATOM     20  H   UNL     1      -9.116   1.548  16.190  0.00  0.00    +0.000 HD
ENDBRANCH  18  19
ENDBRANCH  16  17
ENDBRANCH  13  16
ENDBRANCH   7  14
BRANCH   6  21
ATOM     21  N   UNL     1      -6.912  -0.287  22.708  0.00  0.00    +0.000 N 
ATOM     22  H   UNL     1      -7.641   0.258  23.194  0.00  0.00    +0.000 HD
BRANCH  21  25
ATOM     23 BR   UNL     1      -9.448  -5.156  20.052  0.00  0.00    +0.000 Br
ATOM     24  F   UNL     1      -8.745  -0.054  20.660  0.00  0.00    +0.000 F 
ATOM     25  C   UNL     1      -7.449  -1.435  22.089  0.00  0.00    +0.000 A 
ATOM     26  C   UNL     1      -8.401  -1.287  21.067  0.00  0.00    +0.000 A 
ATOM     27  C   UNL     1      -7.137  -2.735  22.493  0.00  0.00    +0.000 A 
ATOM     28  C   UNL     1      -9.000  -2.382  20.452  0.00  0.00    +0.000 A 
ATOM     29  C   UNL     1      -7.726  -3.845  21.889  0.00  0.00    +0.000 A 
ATOM     30  C   UNL     1      -8.653  -3.659  20.871  0.00  0.00    +0.000 A 
ENDBRANCH  21  25
ENDBRANCH   6  21
TORSDOF 6
ENDMDL
MODEL 9
REMARK VINA RESULT:      -5.6      4.589      7.264
REMARK  Name = 10288191_Binimetinib.pdbqt.pdb
REMARK  6 active torsions:
REMARK  status: ('A' for Active; 'I' for Inactive)
REMARK    1  A    between atoms: C_6  and  N_21
REMARK    2  A    between atoms: C_7  and  C_14
REMARK    3  A    between atoms: N_13  and  O_16
REMARK    4  A    between atoms: O_16  and  C_17
REMARK    5  A    between atoms: C_18  and  O_19
REMARK    6  A    between atoms: N_21  and  C_25
REMARK                            x       y       z     vdW  Elec       q    Type
REMARK                         _______ _______ _______ _____ _____    ______ ____
ROOT
ATOM      1  F   UNL     1      -9.792  -6.226  24.310  0.00  0.00    +0.000 F 
ATOM      2  N   UNL     1     -13.335  -6.828  27.051  0.00  0.00    +0.000 N 
ATOM      3  N   UNL     1     -11.375  -7.592  26.384  0.00  0.00    +0.000 NA
ATOM      4  C   UNL     1     -12.914  -5.922  26.121  0.00  0.00    +0.000 A 
ATOM      5  C   UNL     1     -11.678  -6.419  25.717  0.00  0.00    +0.000 A 
ATOM      6  C   UNL     1     -11.457  -4.511  24.184  0.00  0.00    +0.000 A 
ATOM      7  C   UNL     1     -12.729  -4.055  24.619  0.00  0.00    +0.000 A 
ATOM      8  C   UNL     1     -13.469  -4.756  25.590  0.00  0.00    +0.000 A 
ATOM      9  C   UNL     1     -10.952  -5.709  24.743  0.00  0.00    +0.000 A 
ATOM     10  C   UNL     1     -12.400  -7.809  27.186  0.00  0.00    +0.000 A 
ATOM     11  C   UNL     1     -14.554  -6.755  27.786  0.00  0.00    +0.000 C 
ENDROOT
BRANCH   7  14
ATOM     12  O   UNL     1     -13.551  -2.755  22.829  0.00  0.00    +0.000 OA
ATOM     13  N   UNL     1     -13.674  -1.818  24.930  0.00  0.00    +0.000 N 
ATOM     14  C   UNL     1     -13.354  -2.823  24.040  0.00  0.00    +0.000 C 
ATOM     15  H   UNL     1     -13.202  -1.723  25.821  0.00  0.00    +0.000 HD
BRANCH  13  16
ATOM     16  O   UNL     1     -13.989  -0.588  24.312  0.00  0.00    +0.000 OA
BRANCH  16  17
ATOM     17  C   UNL     1     -15.236  -0.297  24.676  0.00  0.00    +0.000 C 
ATOM     18  C   UNL     1     -16.667   0.044  25.107  0.00  0.00    +0.000 C 
BRANCH  18  19
ATOM     19  O   UNL     1     -17.904   0.343  25.487  0.00  0.00    +0.000 OA
ATOM     20  H   UNL     1     -18.085   1.285  25.328  0.00  0.00    +0.000 HD
ENDBRANCH  18  19
ENDBRANCH  16  17
ENDBRANCH  13  16
ENDBRANCH   7  14
BRANCH   6  21
ATOM     21  N   UNL     1     -10.712  -3.762  23.237  0.00  0.00    +0.000 N 
ATOM     22  H   UNL     1     -10.087  -3.066  23.671  0.00  0.00    +0.000 HD
BRANCH  21  25
ATOM     23 BR   UNL     1      -8.839  -4.899  17.546  0.00  0.00    +0.000 Br
ATOM     24  F   UNL     1      -8.131  -4.554  22.671  0.00  0.00    +0.000 F 
ATOM     25  C   UNL     1     -10.323  -4.056  21.913  0.00  0.00    +0.000 A 
ATOM     26  C   UNL     1      -8.995  -4.430  21.650  0.00  0.00    +0.000 A 
ATOM     27  C   UNL     1     -11.181  -3.920  20.819  0.00  0.00    +0.000 A 
ATOM     28  C   UNL     1      -8.541  -4.686  20.360  0.00  0.00    +0.000 A 
ATOM     29  C   UNL     1     -10.745  -4.173  19.519  0.00  0.00    +0.000 A 
ATOM     30  C   UNL     1      -9.428  -4.555  19.300  0.00  0.00    +0.000 A 
ENDBRANCH  21  25
ENDBRANCH   6  21
TORSDOF 6
ENDMDL
