MODEL 1
REMARK VINA RESULT:      -5.2      0.000      0.000
REMARK  Name = 10281_Thymoquinone.pdbqt.pdb
REMARK  1 active torsions:
REMARK  status: ('A' for Active; 'I' for Inactive)
REMARK    1  A    between atoms: C_3  and  C_10
REMARK                            x       y       z     vdW  Elec       q    Type
REMARK                         _______ _______ _______ _____ _____    ______ ____
ROOT
ATOM      1  O   UNL     1      -7.252  -3.881  22.207  0.00  0.00    +0.000 OA
ATOM      2  O   UNL     1      -9.753   0.290  19.908  0.00  0.00    +0.000 OA
ATOM      3  C   UNL     1      -8.973  -3.155  20.671  0.00  0.00    +0.000 C 
ATOM      4  C   UNL     1      -7.854  -2.981  21.656  0.00  0.00    +0.000 C 
ATOM      5  C   UNL     1      -9.419  -1.997  20.253  0.00  0.00    +0.000 C 
ATOM      6  C   UNL     1      -7.983  -0.419  21.486  0.00  0.00    +0.000 C 
ATOM      7  C   UNL     1      -9.126  -0.580  20.481  0.00  0.00    +0.000 C 
ATOM      8  C   UNL     1      -7.543  -1.577  21.899  0.00  0.00    +0.000 C 
ATOM      9  C   UNL     1      -7.403   0.871  21.967  0.00  0.00    +0.000 C 
ENDROOT
BRANCH   3  10
ATOM     10  C   UNL     1      -9.424  -4.457  20.306  0.00  0.00    +0.000 C 
ATOM     11  C   UNL     1      -8.641  -5.293  19.323  0.00  0.00    +0.000 C 
ATOM     12  C   UNL     1     -10.417  -5.196  21.170  0.00  0.00    +0.000 C 
ENDBRANCH   3  10
TORSDOF 1
ENDMDL
MODEL 2
REMARK VINA RESULT:      -5.1      1.472      2.561
REMARK  Name = 10281_Thymoquinone.pdbqt.pdb
REMARK  1 active torsions:
REMARK  status: ('A' for Active; 'I' for Inactive)
REMARK    1  A    between atoms: C_3  and  C_10
REMARK                            x       y       z     vdW  Elec       q    Type
REMARK                         _______ _______ _______ _____ _____    ______ ____
ROOT
ATOM      1  O   UNL     1     -10.762  -2.828  19.119  0.00  0.00    +0.000 OA
ATOM      2  O   UNL     1      -6.961  -0.957  22.434  0.00  0.00    +0.000 OA
ATOM      3  C   UNL     1      -9.012  -3.373  20.698  0.00  0.00    +0.000 C 
ATOM      4  C   UNL     1      -9.889  -2.467  19.883  0.00  0.00    +0.000 C 
ATOM      5  C   UNL     1      -8.167  -2.684  21.425  0.00  0.00    +0.000 C 
ATOM      6  C   UNL     1      -8.745  -0.365  20.824  0.00  0.00    +0.000 C 
ATOM      7  C   UNL     1      -7.842  -1.276  21.661  0.00  0.00    +0.000 C 
ATOM      8  C   UNL     1      -9.585  -1.058  20.103  0.00  0.00    +0.000 C 
ATOM      9  C   UNL     1      -8.714   1.128  20.798  0.00  0.00    +0.000 C 
ENDROOT
BRANCH   3  10
ATOM     10  C   UNL     1      -9.156  -4.789  20.618  0.00  0.00    +0.000 C 
ATOM     11  C   UNL     1     -10.191  -5.504  21.451  0.00  0.00    +0.000 C 
ATOM     12  C   UNL     1      -8.607  -5.549  19.436  0.00  0.00    +0.000 C 
ENDBRANCH   3  10
TORSDOF 1
ENDMDL
MODEL 3
REMARK VINA RESULT:      -4.7      2.990      4.769
REMARK  Name = 10281_Thymoquinone.pdbqt.pdb
REMARK  1 active torsions:
REMARK  status: ('A' for Active; 'I' for Inactive)
REMARK    1  A    between atoms: C_3  and  C_10
REMARK                            x       y       z     vdW  Elec       q    Type
REMARK                         _______ _______ _______ _____ _____    ______ ____
ROOT
ATOM      1  O   UNL     1     -11.355  -3.092  20.721  0.00  0.00    +0.000 OA
ATOM      2  O   UNL     1      -7.522  -6.256  18.662  0.00  0.00    +0.000 OA
ATOM      3  C   UNL     1      -9.503  -4.580  21.177  0.00  0.00    +0.000 C 
ATOM      4  C   UNL     1     -10.470  -3.820  20.316  0.00  0.00    +0.000 C 
ATOM      5  C   UNL     1      -8.668  -5.277  20.448  0.00  0.00    +0.000 C 
ATOM      6  C   UNL     1      -9.411  -4.737  18.161  0.00  0.00    +0.000 C 
ATOM      7  C   UNL     1      -8.418  -5.519  19.025  0.00  0.00    +0.000 C 
ATOM      8  C   UNL     1     -10.240  -4.045  18.894  0.00  0.00    +0.000 C 
ATOM      9  C   UNL     1      -9.469  -4.729  16.668  0.00  0.00    +0.000 C 
ENDROOT
BRANCH   3  10
ATOM     10  C   UNL     1      -9.570  -4.491  22.598  0.00  0.00    +0.000 C 
ATOM     11  C   UNL     1     -10.495  -5.391  23.381  0.00  0.00    +0.000 C 
ATOM     12  C   UNL     1      -8.460  -3.831  23.379  0.00  0.00    +0.000 C 
ENDBRANCH   3  10
TORSDOF 1
ENDMDL
MODEL 4
REMARK VINA RESULT:      -4.6     16.641     17.250
REMARK  Name = 10281_Thymoquinone.pdbqt.pdb
REMARK  1 active torsions:
REMARK  status: ('A' for Active; 'I' for Inactive)
REMARK    1  A    between atoms: C_3  and  C_10
REMARK                            x       y       z     vdW  Elec       q    Type
REMARK                         _______ _______ _______ _____ _____    ______ ____
ROOT
ATOM      1  O   UNL     1       5.648 -11.436  14.292  0.00  0.00    +0.000 OA
ATOM      2  O   UNL     1       2.576  -8.603  10.904  0.00  0.00    +0.000 OA
ATOM      3  C   UNL     1       3.790 -11.467  12.743  0.00  0.00    +0.000 C 
ATOM      4  C   UNL     1       4.921 -10.850  13.514  0.00  0.00    +0.000 C 
ATOM      5  C   UNL     1       3.193 -10.579  11.988  0.00  0.00    +0.000 C 
ATOM      6  C   UNL     1       4.482  -8.538  12.482  0.00  0.00    +0.000 C 
ATOM      7  C   UNL     1       3.325  -9.152  11.689  0.00  0.00    +0.000 C 
ATOM      8  C   UNL     1       5.072  -9.428  13.231  0.00  0.00    +0.000 C 
ATOM      9  C   UNL     1       4.924  -7.111  12.439  0.00  0.00    +0.000 C 
ENDROOT
BRANCH   3  10
ATOM     10  C   UNL     1       3.482 -12.851  12.888  0.00  0.00    +0.000 C 
ATOM     11  C   UNL     1       4.140 -13.881  12.002  0.00  0.00    +0.000 C 
ATOM     12  C   UNL     1       2.848 -13.368  14.157  0.00  0.00    +0.000 C 
ENDBRANCH   3  10
TORSDOF 1
ENDMDL
MODEL 5
REMARK VINA RESULT:      -4.5      1.694      4.641
REMARK  Name = 10281_Thymoquinone.pdbqt.pdb
REMARK  1 active torsions:
REMARK  status: ('A' for Active; 'I' for Inactive)
REMARK    1  A    between atoms: C_3  and  C_10
REMARK                            x       y       z     vdW  Elec       q    Type
REMARK                         _______ _______ _______ _____ _____    ______ ____
ROOT
ATOM      1  O   UNL     1     -10.968  -0.887  22.712  0.00  0.00    +0.000 OA
ATOM      2  O   UNL     1      -8.445  -4.925  20.208  0.00  0.00    +0.000 OA
ATOM      3  C   UNL     1      -9.231  -1.527  21.155  0.00  0.00    +0.000 C 
ATOM      4  C   UNL     1     -10.361  -1.755  22.117  0.00  0.00    +0.000 C 
ATOM      5  C   UNL     1      -8.781  -2.661  20.677  0.00  0.00    +0.000 C 
ATOM      6  C   UNL     1     -10.231  -4.304  21.805  0.00  0.00    +0.000 C 
ATOM      7  C   UNL     1      -9.077  -4.088  20.822  0.00  0.00    +0.000 C 
ATOM      8  C   UNL     1     -10.674  -3.170  22.277  0.00  0.00    +0.000 C 
ATOM      9  C   UNL     1     -10.816  -5.618  22.207  0.00  0.00    +0.000 C 
ENDROOT
BRANCH   3  10
ATOM     10  C   UNL     1      -8.776  -0.207  20.869  0.00  0.00    +0.000 C 
ATOM     11  C   UNL     1      -9.572   0.700  19.963  0.00  0.00    +0.000 C 
ATOM     12  C   UNL     1      -7.756   0.463  21.757  0.00  0.00    +0.000 C 
ENDBRANCH   3  10
TORSDOF 1
ENDMDL
MODEL 6
REMARK VINA RESULT:      -4.4      2.779      3.567
REMARK  Name = 10281_Thymoquinone.pdbqt.pdb
REMARK  1 active torsions:
REMARK  status: ('A' for Active; 'I' for Inactive)
REMARK    1  A    between atoms: C_3  and  C_10
REMARK                            x       y       z     vdW  Elec       q    Type
REMARK                         _______ _______ _______ _____ _____    ______ ____
ROOT
ATOM      1  O   UNL     1      -8.851  -1.662  20.408  0.00  0.00    +0.000 OA
ATOM      2  O   UNL     1     -12.901  -4.108  22.968  0.00  0.00    +0.000 OA
ATOM      3  C   UNL     1     -10.305  -3.592  20.507  0.00  0.00    +0.000 C 
ATOM      4  C   UNL     1      -9.761  -2.262  20.944  0.00  0.00    +0.000 C 
ATOM      5  C   UNL     1     -11.284  -3.980  21.285  0.00  0.00    +0.000 C 
ATOM      6  C   UNL     1     -11.429  -2.119  22.895  0.00  0.00    +0.000 C 
ATOM      7  C   UNL     1     -11.994  -3.475  22.462  0.00  0.00    +0.000 C 
ATOM      8  C   UNL     1     -10.454  -1.738  22.115  0.00  0.00    +0.000 C 
ATOM      9  C   UNL     1     -11.895  -1.294  24.049  0.00  0.00    +0.000 C 
ENDROOT
BRANCH   3  10
ATOM     10  C   UNL     1      -9.754  -4.267  19.379  0.00  0.00    +0.000 C 
ATOM     11  C   UNL     1     -10.059  -3.796  17.978  0.00  0.00    +0.000 C 
ATOM     12  C   UNL     1      -8.554  -5.169  19.536  0.00  0.00    +0.000 C 
ENDBRANCH   3  10
TORSDOF 1
ENDMDL
MODEL 7
REMARK VINA RESULT:      -4.4     16.751     17.425
REMARK  Name = 10281_Thymoquinone.pdbqt.pdb
REMARK  1 active torsions:
REMARK  status: ('A' for Active; 'I' for Inactive)
REMARK    1  A    between atoms: C_3  and  C_10
REMARK                            x       y       z     vdW  Elec       q    Type
REMARK                         _______ _______ _______ _____ _____    ______ ____
ROOT
ATOM      1  O   UNL     1     -21.295  -6.457  10.421  0.00  0.00    +0.000 OA
ATOM      2  O   UNL     1     -22.459  -1.270   9.596  0.00  0.00    +0.000 OA
ATOM      3  C   UNL     1     -20.987  -4.518   9.008  0.00  0.00    +0.000 C 
ATOM      4  C   UNL     1     -21.521  -5.288  10.182  0.00  0.00    +0.000 C 
ATOM      5  C   UNL     1     -21.410  -3.278   9.025  0.00  0.00    +0.000 C 
ATOM      6  C   UNL     1     -22.794  -3.236  11.063  0.00  0.00    +0.000 C 
ATOM      7  C   UNL     1     -22.258  -2.437   9.872  0.00  0.00    +0.000 C 
ATOM      8  C   UNL     1     -22.369  -4.470  11.041  0.00  0.00    +0.000 C 
ATOM      9  C   UNL     1     -23.688  -2.720  12.143  0.00  0.00    +0.000 C 
ENDROOT
BRANCH   3  10
ATOM     10  C   UNL     1     -20.139  -5.148   8.051  0.00  0.00    +0.000 C 
ATOM     11  C   UNL     1     -20.706  -5.684   6.759  0.00  0.00    +0.000 C 
ATOM     12  C   UNL     1     -18.646  -4.930   8.088  0.00  0.00    +0.000 C 
ENDBRANCH   3  10
TORSDOF 1
ENDMDL
MODEL 8
REMARK VINA RESULT:      -4.3     19.244     20.799
REMARK  Name = 10281_Thymoquinone.pdbqt.pdb
REMARK  1 active torsions:
REMARK  status: ('A' for Active; 'I' for Inactive)
REMARK    1  A    between atoms: C_3  and  C_10
REMARK                            x       y       z     vdW  Elec       q    Type
REMARK                         _______ _______ _______ _____ _____    ______ ____
ROOT
ATOM      1  O   UNL     1      -4.086  -4.124   1.749  0.00  0.00    +0.000 OA
ATOM      2  O   UNL     1       0.174  -7.396   1.451  0.00  0.00    +0.000 OA
ATOM      3  C   UNL     1      -3.292  -6.409   1.718  0.00  0.00    +0.000 C 
ATOM      4  C   UNL     1      -3.164  -4.913   1.686  0.00  0.00    +0.000 C 
ATOM      5  C   UNL     1      -2.119  -6.985   1.631  0.00  0.00    +0.000 C 
ATOM      6  C   UNL     1      -0.605  -5.047   1.481  0.00  0.00    +0.000 C 
ATOM      7  C   UNL     1      -0.719  -6.573   1.511  0.00  0.00    +0.000 C 
ATOM      8  C   UNL     1      -1.778  -4.479   1.568  0.00  0.00    +0.000 C 
ATOM      9  C   UNL     1       0.658  -4.256   1.370  0.00  0.00    +0.000 C 
ENDROOT
BRANCH   3  10
ATOM     10  C   UNL     1      -4.573  -7.026   1.826  0.00  0.00    +0.000 C 
ATOM     11  C   UNL     1      -5.349  -7.405   0.588  0.00  0.00    +0.000 C 
ATOM     12  C   UNL     1      -4.997  -7.692   3.112  0.00  0.00    +0.000 C 
ENDBRANCH   3  10
TORSDOF 1
ENDMDL
MODEL 9
REMARK VINA RESULT:      -4.3     17.476     18.423
REMARK  Name = 10281_Thymoquinone.pdbqt.pdb
REMARK  1 active torsions:
REMARK  status: ('A' for Active; 'I' for Inactive)
REMARK    1  A    between atoms: C_3  and  C_10
REMARK                            x       y       z     vdW  Elec       q    Type
REMARK                         _______ _______ _______ _____ _____    ______ ____
ROOT
ATOM      1  O   UNL     1     -10.571   8.232   4.718  0.00  0.00    +0.000 OA
ATOM      2  O   UNL     1     -14.420   5.241   6.994  0.00  0.00    +0.000 OA
ATOM      3  C   UNL     1     -11.554   6.033   4.940  0.00  0.00    +0.000 C 
ATOM      4  C   UNL     1     -11.417   7.505   5.201  0.00  0.00    +0.000 C 
ATOM      5  C   UNL     1     -12.562   5.528   5.606  0.00  0.00    +0.000 C 
ATOM      6  C   UNL     1     -13.438   7.504   6.789  0.00  0.00    +0.000 C 
ATOM      7  C   UNL     1     -13.591   6.002   6.534  0.00  0.00    +0.000 C 
ATOM      8  C   UNL     1     -12.432   8.001   6.122  0.00  0.00    +0.000 C 
ATOM      9  C   UNL     1     -14.301   8.343   7.674  0.00  0.00    +0.000 C 
ENDROOT
BRANCH   3  10
ATOM     10  C   UNL     1     -10.650   5.362   4.066  0.00  0.00    +0.000 C 
ATOM     11  C   UNL     1     -10.949   5.249   2.591  0.00  0.00    +0.000 C 
ATOM     12  C   UNL     1      -9.217   5.128   4.478  0.00  0.00    +0.000 C 
ENDBRANCH   3  10
TORSDOF 1
ENDMDL
