REMARK  Name = 10281_Thymoquinone.pdbqt.pdb
REMARK  1 active torsions:
REMARK  status: ('A' for Active; 'I' for Inactive)
REMARK    1  A    between atoms: C_3  and  C_10
REMARK                            x       y       z     vdW  Elec       q    Type
REMARK                         _______ _______ _______ _____ _____    ______ ____
ROOT
ATOM      1  O   UNL     1       0.877   2.327   0.001  0.00  0.00    +0.000 OA
ATOM      2  O   UNL     1      -2.059  -2.181  -0.002  0.00  0.00    +0.000 OA
ATOM      3  C   UNL     1       0.890  -0.092  -0.002  0.00  0.00    +0.000 C 
ATOM      4  C   UNL     1       0.269   1.275   0.000  0.00  0.00    +0.000 C 
ATOM      5  C   UNL     1      -0.027  -1.027  -0.002  0.00  0.00    +0.000 C 
ATOM      6  C   UNL     1      -2.107   0.294   0.000  0.00  0.00    +0.000 C 
ATOM      7  C   UNL     1      -1.489  -1.107  -0.001  0.00  0.00    +0.000 C 
ATOM      8  C   UNL     1      -1.188   1.221   0.000  0.00  0.00    +0.000 C 
ATOM      9  C   UNL     1      -3.566   0.617  -0.001  0.00  0.00    +0.000 C 
ENDROOT
BRANCH   3  10
ATOM     10  C   UNL     1       2.307  -0.246   0.001  0.00  0.00    +0.000 C 
ATOM     11  C   UNL     1       3.044  -0.544   1.284  0.00  0.00    +0.000 C 
ATOM     12  C   UNL     1       3.050  -0.536  -1.280  0.00  0.00    +0.000 C 
ENDBRANCH   3  10
TORSDOF 1
