MODEL 1
REMARK VINA RESULT:      -6.1      0.000      0.000
REMARK  Name = 10639_Physcion.pdbqt.pdb
REMARK  3 active torsions:
REMARK  status: ('A' for Active; 'I' for Inactive)
REMARK    1  A    between atoms: C_10  and  O_18
REMARK    2  A    between atoms: C_12  and  O_20
REMARK    3  A    between atoms: C_15  and  O_22
REMARK                            x       y       z     vdW  Elec       q    Type
REMARK                         _______ _______ _______ _____ _____    ______ ____
ROOT
ATOM      1  O   UNL     1      -6.971  -0.246  23.276  0.00  0.00    +0.000 OA
ATOM      2  O   UNL     1     -10.157  -0.741  19.036  0.00  0.00    +0.000 OA
ATOM      3  C   UNL     1      -9.054   0.681  20.528  0.00  0.00    +0.000 A 
ATOM      4  C   UNL     1      -8.221   0.801  21.637  0.00  0.00    +0.000 A 
ATOM      5  C   UNL     1      -8.070  -1.754  21.790  0.00  0.00    +0.000 A 
ATOM      6  C   UNL     1      -8.907  -1.844  20.676  0.00  0.00    +0.000 A 
ATOM      7  C   UNL     1      -7.701  -0.411  22.306  0.00  0.00    +0.000 C 
ATOM      8  C   UNL     1      -9.425  -0.640  20.010  0.00  0.00    +0.000 C 
ATOM      9  C   UNL     1      -9.555   1.815  19.884  0.00  0.00    +0.000 A 
ATOM     10  C   UNL     1      -7.892   2.084  22.098  0.00  0.00    +0.000 A 
ATOM     11  C   UNL     1      -9.219   3.080  20.353  0.00  0.00    +0.000 A 
ATOM     12  C   UNL     1      -7.614  -2.943  22.373  0.00  0.00    +0.000 A 
ATOM     13  C   UNL     1      -9.282  -3.087  20.155  0.00  0.00    +0.000 A 
ATOM     14  C   UNL     1      -8.389   3.221  21.460  0.00  0.00    +0.000 A 
ATOM     15  C   UNL     1      -8.825  -4.264  20.739  0.00  0.00    +0.000 A 
ATOM     16  C   UNL     1      -7.989  -4.183  21.851  0.00  0.00    +0.000 A 
ATOM     17  C   UNL     1      -9.758   4.296  19.660  0.00  0.00    +0.000 C 
ENDROOT
BRANCH  10  18
ATOM     18  O   UNL     1      -7.082   2.303  23.179  0.00  0.00    +0.000 OA
ATOM     19  H   UNL     1      -6.142   2.196  22.900  0.00  0.00    +0.000 HD
ENDBRANCH  10  18
BRANCH  12  20
ATOM     20  O   UNL     1      -6.793  -2.934  23.464  0.00  0.00    +0.000 OA
ATOM     21  H   UNL     1      -6.218  -2.149  23.441  0.00  0.00    +0.000 HD
ENDBRANCH  12  20
BRANCH  15  22
ATOM     22  O   UNL     1      -9.250  -5.430  20.153  0.00  0.00    +0.000 OA
ATOM     23  C   UNL     1      -8.382  -5.960  19.188  0.00  0.00    +0.000 C 
ENDBRANCH  15  22
TORSDOF 3
ENDMDL
MODEL 2
REMARK VINA RESULT:      -6.1      4.293      6.387
REMARK  Name = 10639_Physcion.pdbqt.pdb
REMARK  3 active torsions:
REMARK  status: ('A' for Active; 'I' for Inactive)
REMARK    1  A    between atoms: C_10  and  O_18
REMARK    2  A    between atoms: C_12  and  O_20
REMARK    3  A    between atoms: C_15  and  O_22
REMARK                            x       y       z     vdW  Elec       q    Type
REMARK                         _______ _______ _______ _____ _____    ______ ____
ROOT
ATOM      1  O   UNL     1      -7.535  -4.678  23.995  0.00  0.00    +0.000 OA
ATOM      2  O   UNL     1     -12.724  -5.293  22.956  0.00  0.00    +0.000 OA
ATOM      3  C   UNL     1     -10.624  -4.594  22.204  0.00  0.00    +0.000 A 
ATOM      4  C   UNL     1      -9.269  -4.437  22.484  0.00  0.00    +0.000 A 
ATOM      5  C   UNL     1      -9.649  -5.409  24.827  0.00  0.00    +0.000 A 
ATOM      6  C   UNL     1     -11.002  -5.555  24.518  0.00  0.00    +0.000 A 
ATOM      7  C   UNL     1      -8.735  -4.838  23.804  0.00  0.00    +0.000 C 
ATOM      8  C   UNL     1     -11.534  -5.157  23.207  0.00  0.00    +0.000 C 
ATOM      9  C   UNL     1     -11.145  -4.221  20.963  0.00  0.00    +0.000 A 
ATOM     10  C   UNL     1      -8.434  -3.895  21.496  0.00  0.00    +0.000 A 
ATOM     11  C   UNL     1     -10.304  -3.685  19.994  0.00  0.00    +0.000 A 
ATOM     12  C   UNL     1      -9.212  -5.810  26.096  0.00  0.00    +0.000 A 
ATOM     13  C   UNL     1     -11.901  -6.088  25.449  0.00  0.00    +0.000 A 
ATOM     14  C   UNL     1      -8.948  -3.519  20.255  0.00  0.00    +0.000 A 
ATOM     15  C   UNL     1     -11.460  -6.484  26.708  0.00  0.00    +0.000 A 
ATOM     16  C   UNL     1     -10.110  -6.341  27.024  0.00  0.00    +0.000 A 
ATOM     17  C   UNL     1     -10.866  -3.284  18.663  0.00  0.00    +0.000 C 
ENDROOT
BRANCH  10  18
ATOM     18  O   UNL     1      -7.091  -3.702  21.678  0.00  0.00    +0.000 OA
ATOM     19  H   UNL     1      -6.904  -2.733  21.668  0.00  0.00    +0.000 HD
ENDBRANCH  10  18
BRANCH  12  20
ATOM     20  O   UNL     1      -7.904  -5.697  26.469  0.00  0.00    +0.000 OA
ATOM     21  H   UNL     1      -7.627  -6.494  26.955  0.00  0.00    +0.000 HD
ENDBRANCH  12  20
BRANCH  15  22
ATOM     22  O   UNL     1     -12.418  -6.993  27.547  0.00  0.00    +0.000 OA
ATOM     23  C   UNL     1     -12.527  -6.346  28.786  0.00  0.00    +0.000 C 
ENDBRANCH  15  22
TORSDOF 3
ENDMDL
MODEL 3
REMARK VINA RESULT:      -5.9      4.733      6.728
REMARK  Name = 10639_Physcion.pdbqt.pdb
REMARK  3 active torsions:
REMARK  status: ('A' for Active; 'I' for Inactive)
REMARK    1  A    between atoms: C_10  and  O_18
REMARK    2  A    between atoms: C_12  and  O_20
REMARK    3  A    between atoms: C_15  and  O_22
REMARK                            x       y       z     vdW  Elec       q    Type
REMARK                         _______ _______ _______ _____ _____    ______ ____
ROOT
ATOM      1  O   UNL     1     -12.927  -4.898  23.893  0.00  0.00    +0.000 OA
ATOM      2  O   UNL     1      -7.626  -5.261  24.273  0.00  0.00    +0.000 OA
ATOM      3  C   UNL     1      -9.475  -4.121  23.410  0.00  0.00    +0.000 A 
ATOM      4  C   UNL     1     -10.861  -4.034  23.316  0.00  0.00    +0.000 A 
ATOM      5  C   UNL     1     -11.085  -6.109  24.806  0.00  0.00    +0.000 A 
ATOM      6  C   UNL     1      -9.693  -6.172  24.882  0.00  0.00    +0.000 A 
ATOM      7  C   UNL     1     -11.713  -5.024  24.010  0.00  0.00    +0.000 C 
ATOM      8  C   UNL     1      -8.844  -5.189  24.194  0.00  0.00    +0.000 C 
ATOM      9  C   UNL     1      -8.655  -3.195  22.762  0.00  0.00    +0.000 A 
ATOM     10  C   UNL     1     -11.421  -2.997  22.557  0.00  0.00    +0.000 A 
ATOM     11  C   UNL     1      -9.226  -2.172  22.012  0.00  0.00    +0.000 A 
ATOM     12  C   UNL     1     -11.830  -7.080  25.488  0.00  0.00    +0.000 A 
ATOM     13  C   UNL     1      -9.056  -7.176  25.620  0.00  0.00    +0.000 A 
ATOM     14  C   UNL     1     -10.608  -2.068  21.906  0.00  0.00    +0.000 A 
ATOM     15  C   UNL     1      -9.802  -8.137  26.295  0.00  0.00    +0.000 A 
ATOM     16  C   UNL     1     -11.193  -8.081  26.223  0.00  0.00    +0.000 A 
ATOM     17  C   UNL     1      -8.343  -1.179  21.317  0.00  0.00    +0.000 C 
ENDROOT
BRANCH  10  18
ATOM     18  O   UNL     1     -12.772  -2.829  22.405  0.00  0.00    +0.000 OA
ATOM     19  H   UNL     1     -13.086  -2.166  23.064  0.00  0.00    +0.000 HD
ENDBRANCH  10  18
BRANCH  12  20
ATOM     20  O   UNL     1     -13.194  -7.083  25.459  0.00  0.00    +0.000 OA
ATOM     21  H   UNL     1     -13.532  -6.176  25.572  0.00  0.00    +0.000 HD
ENDBRANCH  12  20
BRANCH  15  22
ATOM     22  O   UNL     1      -9.084  -9.078  26.989  0.00  0.00    +0.000 OA
ATOM     23  C   UNL     1      -9.782 -10.255  27.290  0.00  0.00    +0.000 C 
ENDBRANCH  15  22
TORSDOF 3
ENDMDL
MODEL 4
REMARK VINA RESULT:      -5.6     17.524     20.605
REMARK  Name = 10639_Physcion.pdbqt.pdb
REMARK  3 active torsions:
REMARK  status: ('A' for Active; 'I' for Inactive)
REMARK    1  A    between atoms: C_10  and  O_18
REMARK    2  A    between atoms: C_12  and  O_20
REMARK    3  A    between atoms: C_15  and  O_22
REMARK                            x       y       z     vdW  Elec       q    Type
REMARK                         _______ _______ _______ _____ _____    ______ ____
ROOT
ATOM      1  O   UNL     1       7.850 -12.454  12.184  0.00  0.00    +0.000 OA
ATOM      2  O   UNL     1       2.879 -13.863  13.481  0.00  0.00    +0.000 OA
ATOM      3  C   UNL     1       4.309 -12.239  12.598  0.00  0.00    +0.000 A 
ATOM      4  C   UNL     1       5.612 -11.879  12.262  0.00  0.00    +0.000 A 
ATOM      5  C   UNL     1       6.447 -14.155  13.097  0.00  0.00    +0.000 A 
ATOM      6  C   UNL     1       5.133 -14.489  13.423  0.00  0.00    +0.000 A 
ATOM      7  C   UNL     1       6.725 -12.823  12.500  0.00  0.00    +0.000 C 
ATOM      8  C   UNL     1       4.024 -13.551  13.188  0.00  0.00    +0.000 C 
ATOM      9  C   UNL     1       3.246 -11.359  12.381  0.00  0.00    +0.000 A 
ATOM     10  C   UNL     1       5.838 -10.614  11.701  0.00  0.00    +0.000 A 
ATOM     11  C   UNL     1       3.487 -10.109  11.823  0.00  0.00    +0.000 A 
ATOM     12  C   UNL     1       7.452 -15.098  13.349  0.00  0.00    +0.000 A 
ATOM     13  C   UNL     1       4.823 -15.731  13.988  0.00  0.00    +0.000 A 
ATOM     14  C   UNL     1       4.781  -9.730  11.481  0.00  0.00    +0.000 A 
ATOM     15  C   UNL     1       5.826 -16.663  14.235  0.00  0.00    +0.000 A 
ATOM     16  C   UNL     1       7.141 -16.337  13.912  0.00  0.00    +0.000 A 
ATOM     17  C   UNL     1       2.344  -9.167  11.590  0.00  0.00    +0.000 C 
ENDROOT
BRANCH  10  18
ATOM     18  O   UNL     1       7.081 -10.170  11.339  0.00  0.00    +0.000 OA
ATOM     19  H   UNL     1       7.035  -9.201  11.162  0.00  0.00    +0.000 HD
ENDBRANCH  10  18
BRANCH  12  20
ATOM     20  O   UNL     1       8.761 -14.842  13.057  0.00  0.00    +0.000 OA
ATOM     21  H   UNL     1       9.192 -15.650  12.725  0.00  0.00    +0.000 HD
ENDBRANCH  12  20
BRANCH  15  22
ATOM     22  O   UNL     1       5.419 -17.850  14.790  0.00  0.00    +0.000 OA
ATOM     23  C   UNL     1       4.031 -18.010  14.899  0.00  0.00    +0.000 C 
ENDBRANCH  15  22
TORSDOF 3
ENDMDL
MODEL 5
REMARK VINA RESULT:      -5.6      3.119      3.846
REMARK  Name = 10639_Physcion.pdbqt.pdb
REMARK  3 active torsions:
REMARK  status: ('A' for Active; 'I' for Inactive)
REMARK    1  A    between atoms: C_10  and  O_18
REMARK    2  A    between atoms: C_12  and  O_20
REMARK    3  A    between atoms: C_15  and  O_22
REMARK                            x       y       z     vdW  Elec       q    Type
REMARK                         _______ _______ _______ _____ _____    ______ ____
ROOT
ATOM      1  O   UNL     1     -12.735  -3.070  23.254  0.00  0.00    +0.000 OA
ATOM      2  O   UNL     1      -8.539  -0.745  20.936  0.00  0.00    +0.000 OA
ATOM      3  C   UNL     1     -10.440  -0.514  22.277  0.00  0.00    +0.000 A 
ATOM      4  C   UNL     1     -11.534  -1.129  22.879  0.00  0.00    +0.000 A 
ATOM      5  C   UNL     1     -10.810  -3.377  21.878  0.00  0.00    +0.000 A 
ATOM      6  C   UNL     1      -9.722  -2.733  21.287  0.00  0.00    +0.000 A 
ATOM      7  C   UNL     1     -11.757  -2.580  22.701  0.00  0.00    +0.000 C 
ATOM      8  C   UNL     1      -9.499  -1.290  21.463  0.00  0.00    +0.000 C 
ATOM      9  C   UNL     1     -10.215   0.856  22.435  0.00  0.00    +0.000 A 
ATOM     10  C   UNL     1     -12.408  -0.349  23.649  0.00  0.00    +0.000 A 
ATOM     11  C   UNL     1     -11.091   1.616  23.201  0.00  0.00    +0.000 A 
ATOM     12  C   UNL     1     -10.959  -4.753  21.667  0.00  0.00    +0.000 A 
ATOM     13  C   UNL     1      -8.804  -3.441  20.504  0.00  0.00    +0.000 A 
ATOM     14  C   UNL     1     -12.189   1.020  23.811  0.00  0.00    +0.000 A 
ATOM     15  C   UNL     1      -8.958  -4.808  20.299  0.00  0.00    +0.000 A 
ATOM     16  C   UNL     1     -10.042  -5.458  20.885  0.00  0.00    +0.000 A 
ATOM     17  C   UNL     1     -10.846   3.086  23.369  0.00  0.00    +0.000 C 
ENDROOT
BRANCH  10  18
ATOM     18  O   UNL     1     -13.510  -0.863  24.279  0.00  0.00    +0.000 OA
ATOM     19  H   UNL     1     -14.200  -0.161  24.337  0.00  0.00    +0.000 HD
ENDBRANCH  10  18
BRANCH  12  20
ATOM     20  O   UNL     1     -11.998  -5.450  22.213  0.00  0.00    +0.000 OA
ATOM     21  H   UNL     1     -12.811  -5.293  21.700  0.00  0.00    +0.000 HD
ENDBRANCH  12  20
BRANCH  15  22
ATOM     22  O   UNL     1      -8.005  -5.410  19.516  0.00  0.00    +0.000 OA
ATOM     23  C   UNL     1      -8.432  -5.767  18.229  0.00  0.00    +0.000 C 
ENDBRANCH  15  22
TORSDOF 3
ENDMDL
MODEL 6
REMARK VINA RESULT:      -5.4     16.858     17.972
REMARK  Name = 10639_Physcion.pdbqt.pdb
REMARK  3 active torsions:
REMARK  status: ('A' for Active; 'I' for Inactive)
REMARK    1  A    between atoms: C_10  and  O_18
REMARK    2  A    between atoms: C_12  and  O_20
REMARK    3  A    between atoms: C_15  and  O_22
REMARK                            x       y       z     vdW  Elec       q    Type
REMARK                         _______ _______ _______ _____ _____    ______ ____
ROOT
ATOM      1  O   UNL     1     -21.177  -6.414  11.059  0.00  0.00    +0.000 OA
ATOM      2  O   UNL     1     -23.926  -1.869  11.470  0.00  0.00    +0.000 OA
ATOM      3  C   UNL     1     -22.627  -3.283  10.137  0.00  0.00    +0.000 A 
ATOM      4  C   UNL     1     -21.910  -4.473  10.038  0.00  0.00    +0.000 A 
ATOM      5  C   UNL     1     -22.495  -5.018  12.475  0.00  0.00    +0.000 A 
ATOM      6  C   UNL     1     -23.206  -3.819  12.545  0.00  0.00    +0.000 A 
ATOM      7  C   UNL     1     -21.820  -5.381  11.202  0.00  0.00    +0.000 C 
ATOM      8  C   UNL     1     -23.297  -2.916  11.389  0.00  0.00    +0.000 C 
ATOM      9  C   UNL     1     -22.722  -2.414   9.047  0.00  0.00    +0.000 A 
ATOM     10  C   UNL     1     -21.285  -4.785   8.823  0.00  0.00    +0.000 A 
ATOM     11  C   UNL     1     -22.096  -2.738   7.849  0.00  0.00    +0.000 A 
ATOM     12  C   UNL     1     -22.451  -5.829  13.616  0.00  0.00    +0.000 A 
ATOM     13  C   UNL     1     -23.859  -3.435  13.721  0.00  0.00    +0.000 A 
ATOM     14  C   UNL     1     -21.376  -3.921   7.730  0.00  0.00    +0.000 A 
ATOM     15  C   UNL     1     -23.811  -4.246  14.851  0.00  0.00    +0.000 A 
ATOM     16  C   UNL     1     -23.103  -5.445  14.790  0.00  0.00    +0.000 A 
ATOM     17  C   UNL     1     -22.201  -1.803   6.681  0.00  0.00    +0.000 C 
ENDROOT
BRANCH  10  18
ATOM     18  O   UNL     1     -20.559  -5.929   8.629  0.00  0.00    +0.000 OA
ATOM     19  H   UNL     1     -20.689  -6.524   9.405  0.00  0.00    +0.000 HD
ENDBRANCH  10  18
BRANCH  12  20
ATOM     20  O   UNL     1     -21.776  -7.015  13.623  0.00  0.00    +0.000 OA
ATOM     21  H   UNL     1     -22.002  -7.522  14.423  0.00  0.00    +0.000 HD
ENDBRANCH  12  20
BRANCH  15  22
ATOM     22  O   UNL     1     -24.483  -3.781  15.954  0.00  0.00    +0.000 OA
ATOM     23  C   UNL     1     -25.100  -2.533  15.790  0.00  0.00    +0.000 C 
ENDBRANCH  15  22
TORSDOF 3
ENDMDL
MODEL 7
REMARK VINA RESULT:      -5.3     17.864     19.091
REMARK  Name = 10639_Physcion.pdbqt.pdb
REMARK  3 active torsions:
REMARK  status: ('A' for Active; 'I' for Inactive)
REMARK    1  A    between atoms: C_10  and  O_18
REMARK    2  A    between atoms: C_12  and  O_20
REMARK    3  A    between atoms: C_15  and  O_22
REMARK                            x       y       z     vdW  Elec       q    Type
REMARK                         _______ _______ _______ _____ _____    ______ ____
ROOT
ATOM      1  O   UNL     1       1.816  -1.722   3.471  0.00  0.00    +0.000 OA
ATOM      2  O   UNL     1      -3.375  -1.654   4.670  0.00  0.00    +0.000 OA
ATOM      3  C   UNL     1      -1.230  -0.838   5.114  0.00  0.00    +0.000 A 
ATOM      4  C   UNL     1       0.125  -0.862   4.794  0.00  0.00    +0.000 A 
ATOM      5  C   UNL     1      -0.346  -2.598   2.965  0.00  0.00    +0.000 A 
ATOM      6  C   UNL     1      -1.698  -2.553   3.308  0.00  0.00    +0.000 A 
ATOM      7  C   UNL     1       0.614  -1.742   3.710  0.00  0.00    +0.000 C 
ATOM      8  C   UNL     1      -2.185  -1.679   4.385  0.00  0.00    +0.000 C 
ATOM      9  C   UNL     1      -1.708  -0.013   6.134  0.00  0.00    +0.000 A 
ATOM     10  C   UNL     1       1.003  -0.042   5.516  0.00  0.00    +0.000 A 
ATOM     11  C   UNL     1      -0.825   0.795   6.841  0.00  0.00    +0.000 A 
ATOM     12  C   UNL     1       0.047  -3.454   1.928  0.00  0.00    +0.000 A 
ATOM     13  C   UNL     1      -2.639  -3.340   2.635  0.00  0.00    +0.000 A 
ATOM     14  C   UNL     1       0.532   0.785   6.537  0.00  0.00    +0.000 A 
ATOM     15  C   UNL     1      -2.241  -4.188   1.606  0.00  0.00    +0.000 A 
ATOM     16  C   UNL     1      -0.893  -4.239   1.258  0.00  0.00    +0.000 A 
ATOM     17  C   UNL     1      -1.341   1.679   7.937  0.00  0.00    +0.000 C 
ENDROOT
BRANCH  10  18
ATOM     18  O   UNL     1       2.350   0.004   5.275  0.00  0.00    +0.000 OA
ATOM     19  H   UNL     1       2.750   0.710   5.835  0.00  0.00    +0.000 HD
ENDBRANCH  10  18
BRANCH  12  20
ATOM     20  O   UNL     1       1.351  -3.551   1.538  0.00  0.00    +0.000 OA
ATOM     21  H   UNL     1       1.801  -2.696   1.665  0.00  0.00    +0.000 HD
ENDBRANCH  12  20
BRANCH  15  22
ATOM     22  O   UNL     1      -3.239  -4.918   1.010  0.00  0.00    +0.000 OA
ATOM     23  C   UNL     1      -4.281  -5.308   1.864  0.00  0.00    +0.000 C 
ENDBRANCH  15  22
TORSDOF 3
ENDMDL
MODEL 8
REMARK VINA RESULT:      -5.3     18.253     19.796
REMARK  Name = 10639_Physcion.pdbqt.pdb
REMARK  3 active torsions:
REMARK  status: ('A' for Active; 'I' for Inactive)
REMARK    1  A    between atoms: C_10  and  O_18
REMARK    2  A    between atoms: C_12  and  O_20
REMARK    3  A    between atoms: C_15  and  O_22
REMARK                            x       y       z     vdW  Elec       q    Type
REMARK                         _______ _______ _______ _____ _____    ______ ____
ROOT
ATOM      1  O   UNL     1       0.597  -3.426   2.120  0.00  0.00    +0.000 OA
ATOM      2  O   UNL     1      -4.274  -2.219   3.908  0.00  0.00    +0.000 OA
ATOM      3  C   UNL     1      -1.973  -1.824   4.014  0.00  0.00    +0.000 A 
ATOM      4  C   UNL     1      -0.703  -2.146   3.541  0.00  0.00    +0.000 A 
ATOM      5  C   UNL     1      -1.740  -3.880   1.961  0.00  0.00    +0.000 A 
ATOM      6  C   UNL     1      -3.000  -3.536   2.453  0.00  0.00    +0.000 A 
ATOM      7  C   UNL     1      -0.543  -3.184   2.499  0.00  0.00    +0.000 C 
ATOM      8  C   UNL     1      -3.161  -2.505   3.489  0.00  0.00    +0.000 C 
ATOM      9  C   UNL     1      -2.142  -0.847   4.997  0.00  0.00    +0.000 A 
ATOM     10  C   UNL     1       0.405  -1.471   4.070  0.00  0.00    +0.000 A 
ATOM     11  C   UNL     1      -1.033  -0.186   5.512  0.00  0.00    +0.000 A 
ATOM     12  C   UNL     1      -1.662  -4.871   0.975  0.00  0.00    +0.000 A 
ATOM     13  C   UNL     1      -4.156  -4.164   1.977  0.00  0.00    +0.000 A 
ATOM     14  C   UNL     1       0.243  -0.493   5.053  0.00  0.00    +0.000 A 
ATOM     15  C   UNL     1      -4.071  -5.148   0.997  0.00  0.00    +0.000 A 
ATOM     16  C   UNL     1      -2.817  -5.497   0.500  0.00  0.00    +0.000 A 
ATOM     17  C   UNL     1      -1.218   0.863   6.568  0.00  0.00    +0.000 C 
ENDROOT
BRANCH  10  18
ATOM     18  O   UNL     1       1.691  -1.717   3.670  0.00  0.00    +0.000 OA
ATOM     19  H   UNL     1       1.673  -2.341   2.907  0.00  0.00    +0.000 HD
ENDBRANCH  10  18
BRANCH  12  20
ATOM     20  O   UNL     1      -0.466  -5.260   0.446  0.00  0.00    +0.000 OA
ATOM     21  H   UNL     1      -0.229  -4.682  -0.302  0.00  0.00    +0.000 HD
ENDBRANCH  12  20
BRANCH  15  22
ATOM     22  O   UNL     1      -5.262  -5.702   0.598  0.00  0.00    +0.000 OA
ATOM     23  C   UNL     1      -5.342  -7.096   0.728  0.00  0.00    +0.000 C 
ENDBRANCH  15  22
TORSDOF 3
ENDMDL
MODEL 9
REMARK VINA RESULT:      -5.2     25.700     27.287
REMARK  Name = 10639_Physcion.pdbqt.pdb
REMARK  3 active torsions:
REMARK  status: ('A' for Active; 'I' for Inactive)
REMARK    1  A    between atoms: C_10  and  O_18
REMARK    2  A    between atoms: C_12  and  O_20
REMARK    3  A    between atoms: C_15  and  O_22
REMARK                            x       y       z     vdW  Elec       q    Type
REMARK                         _______ _______ _______ _____ _____    ______ ____
ROOT
ATOM      1  O   UNL     1      -0.362 -20.112   3.222  0.00  0.00    +0.000 OA
ATOM      2  O   UNL     1       2.236 -20.175   7.873  0.00  0.00    +0.000 OA
ATOM      3  C   UNL     1       0.277 -20.658   6.693  0.00  0.00    +0.000 A 
ATOM      4  C   UNL     1      -0.395 -20.638   5.474  0.00  0.00    +0.000 A 
ATOM      5  C   UNL     1       1.668 -19.592   4.365  0.00  0.00    +0.000 A 
ATOM      6  C   UNL     1       2.316 -19.625   5.600  0.00  0.00    +0.000 A 
ATOM      7  C   UNL     1       0.276 -20.104   4.269  0.00  0.00    +0.000 C 
ATOM      8  C   UNL     1       1.650 -20.155   6.799  0.00  0.00    +0.000 C 
ATOM      9  C   UNL     1      -0.342 -21.158   7.842  0.00  0.00    +0.000 A 
ATOM     10  C   UNL     1      -1.707 -21.129   5.418  0.00  0.00    +0.000 A 
ATOM     11  C   UNL     1      -1.644 -21.642   7.770  0.00  0.00    +0.000 A 
ATOM     12  C   UNL     1       2.364 -19.073   3.265  0.00  0.00    +0.000 A 
ATOM     13  C   UNL     1       3.626 -19.154   5.740  0.00  0.00    +0.000 A 
ATOM     14  C   UNL     1      -2.331 -21.630   6.561  0.00  0.00    +0.000 A 
ATOM     15  C   UNL     1       4.311 -18.640   4.643  0.00  0.00    +0.000 A 
ATOM     16  C   UNL     1       3.671 -18.603   3.406  0.00  0.00    +0.000 A 
ATOM     17  C   UNL     1      -2.305 -22.178   9.004  0.00  0.00    +0.000 C 
ENDROOT
BRANCH  10  18
ATOM     18  O   UNL     1      -2.447 -21.150   4.267  0.00  0.00    +0.000 OA
ATOM     19  H   UNL     1      -2.705 -20.227   4.036  0.00  0.00    +0.000 HD
ENDBRANCH  10  18
BRANCH  12  20
ATOM     20  O   UNL     1       1.795 -19.009   2.026  0.00  0.00    +0.000 OA
ATOM     21  H   UNL     1       1.110 -18.316   2.010  0.00  0.00    +0.000 HD
ENDBRANCH  12  20
BRANCH  15  22
ATOM     22  O   UNL     1       5.590 -18.204   4.884  0.00  0.00    +0.000 OA
ATOM     23  C   UNL     1       6.171 -17.464   3.845  0.00  0.00    +0.000 C 
ENDBRANCH  15  22
TORSDOF 3
ENDMDL
