MODEL 1
REMARK VINA RESULT:      -6.8      0.000      0.000
REMARK  Name = 10940649_MilnamideD.pdbqt.pdb
REMARK  7 active torsions:
REMARK  status: ('A' for Active; 'I' for Inactive)
REMARK    1  A    between atoms: C_3  and  C_8
REMARK    2  A    between atoms: C_22  and  C_25
REMARK    3  A    between atoms: C_22  and  C_38
REMARK    4  A    between atoms: N_24  and  C_27
REMARK    5  A    between atoms: C_27  and  C_28
REMARK    6  A    between atoms: C_32  and  C_35
REMARK    7  A    between atoms: C_35  and  O_36
REMARK                            x       y       z     vdW  Elec       q    Type
REMARK                         _______ _______ _______ _____ _____    ______ ____
ROOT
ATOM      1  O   UNL     1      -9.466  -4.655  23.456  0.00  0.00    +0.000 OA
ATOM      2  N   UNL     1      -9.088  -3.785  25.519  0.00  0.00    +0.000 N 
ATOM      3  C   UNL     1      -9.496  -4.798  24.673  0.00  0.00    +0.000 C 
ATOM      4  H   UNL     1      -9.225  -3.906  26.529  0.00  0.00    +0.000 HD
ATOM      5  C   UNL     1      -8.557  -2.540  25.102  0.00  0.00    +0.000 C 
ENDROOT
BRANCH   3   9
ATOM      6  N   UNL     1      -9.148  -7.282  25.252  0.00  0.00    +0.000 NA
ATOM      7  N   UNL     1     -11.723  -9.487  27.224  0.00  0.00    +0.000 N 
ATOM      8  C   UNL     1     -11.455  -6.051  25.792  0.00  0.00    +0.000 C 
ATOM      9  C   UNL     1      -9.969  -6.062  25.326  0.00  0.00    +0.000 C 
ATOM     10  C   UNL     1     -11.902  -7.365  26.507  0.00  0.00    +0.000 A 
ATOM     11  C   UNL     1     -11.098  -8.486  26.566  0.00  0.00    +0.000 A 
ATOM     12  C   UNL     1     -12.396  -5.957  24.554  0.00  0.00    +0.000 C 
ATOM     13  C   UNL     1     -11.661  -4.935  26.856  0.00  0.00    +0.000 C 
ATOM     14  C   UNL     1     -13.119  -7.743  27.180  0.00  0.00    +0.000 A 
ATOM     15  C   UNL     1      -9.855  -8.326  25.946  0.00  0.00    +0.000 C 
ATOM     16  C   UNL     1     -12.974  -9.074  27.619  0.00  0.00    +0.000 A 
ATOM     17  C   UNL     1      -7.873  -7.098  25.928  0.00  0.00    +0.000 C 
ATOM     18  C   UNL     1     -14.331  -7.075  27.450  0.00  0.00    +0.000 A 
ATOM     19  C   UNL     1     -11.163 -10.776  27.447  0.00  0.00    +0.000 C 
ATOM     20  C   UNL     1     -13.990  -9.745  28.316  0.00  0.00    +0.000 A 
ATOM     21  C   UNL     1     -15.345  -7.738  28.141  0.00  0.00    +0.000 A 
ATOM     22  C   UNL     1     -15.174  -9.049  28.567  0.00  0.00    +0.000 A 
ENDBRANCH   3   9
BRANCH   5  25
ATOM     23  O   UNL     1      -7.170  -2.774  23.247  0.00  0.00    +0.000 OA
ATOM     24  N   UNL     1      -9.218  -1.640  22.923  0.00  0.00    +0.000 N 
ATOM     25  C   UNL     1      -8.224  -2.313  23.675  0.00  0.00    +0.000 C 
ATOM     26  C   UNL     1     -10.443  -1.069  23.494  0.00  0.00    +0.000 C 
BRANCH  24  27
ATOM     27  C   UNL     1      -9.084  -1.500  21.530  0.00  0.00    +0.000 C 
ATOM     28  C   UNL     1      -9.347  -2.600  20.643  0.00  0.00    +0.000 C 
ATOM     29  C   UNL     1      -9.582  -3.591  19.834  0.00  0.00    +0.000 C 
ATOM     30  C   UNL     1     -10.797  -3.430  18.945  0.00  0.00    +0.000 C 
BRANCH  27  31
ATOM     31  C   UNL     1      -8.700  -0.234  20.922  0.00  0.00    +0.000 C 
ATOM     32  C   UNL     1      -9.614   0.448  19.924  0.00  0.00    +0.000 C 
ATOM     33  C   UNL     1      -7.766   0.700  21.670  0.00  0.00    +0.000 C 
ENDBRANCH  27  31
BRANCH  29  35
ATOM     34  O   UNL     1      -8.660  -5.647  18.972  0.00  0.00    +0.000 OA
ATOM     35  C   UNL     1      -8.680  -4.774  19.829  0.00  0.00    +0.000 C 
BRANCH  35  36
ATOM     36  O   UNL     1      -7.836  -4.841  20.881  0.00  0.00    +0.000 OA
ATOM     37  H   UNL     1      -8.404  -5.039  21.654  0.00  0.00    +0.000 HD
ENDBRANCH  35  36
ENDBRANCH  29  35
ENDBRANCH  24  27
ENDBRANCH   5  25
BRANCH   5  38
ATOM     38  C   UNL     1      -8.044  -1.474  26.057  0.00  0.00    +0.000 C 
ATOM     39  C   UNL     1      -9.263  -1.024  26.924  0.00  0.00    +0.000 C 
ATOM     40  C   UNL     1      -6.997  -2.139  26.995  0.00  0.00    +0.000 C 
ATOM     41  C   UNL     1      -7.448  -0.237  25.342  0.00  0.00    +0.000 C 
ENDBRANCH   5  38
TORSDOF 7
ENDMDL
MODEL 2
REMARK VINA RESULT:      -6.6      1.181      2.491
REMARK  Name = 10940649_MilnamideD.pdbqt.pdb
REMARK  7 active torsions:
REMARK  status: ('A' for Active; 'I' for Inactive)
REMARK    1  A    between atoms: C_3  and  C_8
REMARK    2  A    between atoms: C_22  and  C_25
REMARK    3  A    between atoms: C_22  and  C_38
REMARK    4  A    between atoms: N_24  and  C_27
REMARK    5  A    between atoms: C_27  and  C_28
REMARK    6  A    between atoms: C_32  and  C_35
REMARK    7  A    between atoms: C_35  and  O_36
REMARK                            x       y       z     vdW  Elec       q    Type
REMARK                         _______ _______ _______ _____ _____    ______ ____
ROOT
ATOM      1  O   UNL     1     -10.085  -4.299  23.410  0.00  0.00    +0.000 OA
ATOM      2  N   UNL     1      -9.892  -3.399  25.485  0.00  0.00    +0.000 N 
ATOM      3  C   UNL     1     -10.277  -4.402  24.616  0.00  0.00    +0.000 C 
ATOM      4  H   UNL     1     -10.163  -3.477  26.472  0.00  0.00    +0.000 HD
ATOM      5  C   UNL     1      -9.208  -2.216  25.112  0.00  0.00    +0.000 C 
ENDROOT
BRANCH   3   9
ATOM      6  N   UNL     1     -12.396  -5.764  25.148  0.00  0.00    +0.000 NA
ATOM      7  N   UNL     1     -12.432  -9.105  27.203  0.00  0.00    +0.000 N 
ATOM      8  C   UNL     1     -10.025  -6.447  26.170  0.00  0.00    +0.000 C 
ATOM      9  C   UNL     1     -10.934  -5.601  25.229  0.00  0.00    +0.000 C 
ATOM     10  C   UNL     1     -10.727  -7.712  26.756  0.00  0.00    +0.000 A 
ATOM     11  C   UNL     1     -12.074  -7.957  26.586  0.00  0.00    +0.000 A 
ATOM     12  C   UNL     1      -9.642  -5.610  27.427  0.00  0.00    +0.000 C 
ATOM     13  C   UNL     1      -8.817  -7.004  25.364  0.00  0.00    +0.000 C 
ATOM     14  C   UNL     1     -10.246  -8.808  27.560  0.00  0.00    +0.000 A 
ATOM     15  C   UNL     1     -12.737  -6.984  25.832  0.00  0.00    +0.000 C 
ATOM     16  C   UNL     1     -11.336  -9.662  27.818  0.00  0.00    +0.000 A 
ATOM     17  C   UNL     1     -12.832  -5.902  23.768  0.00  0.00    +0.000 C 
ATOM     18  C   UNL     1      -8.986  -9.147  28.093  0.00  0.00    +0.000 A 
ATOM     19  C   UNL     1     -13.755  -9.631  27.219  0.00  0.00    +0.000 C 
ATOM     20  C   UNL     1     -11.203 -10.833  28.581  0.00  0.00    +0.000 A 
ATOM     21  C   UNL     1      -8.848 -10.309  28.852  0.00  0.00    +0.000 A 
ATOM     22  C   UNL     1      -9.938 -11.136  29.088  0.00  0.00    +0.000 A 
ENDBRANCH   3   9
BRANCH   5  25
ATOM     23  O   UNL     1      -7.596  -2.568  23.471  0.00  0.00    +0.000 OA
ATOM     24  N   UNL     1      -9.547  -1.400  22.829  0.00  0.00    +0.000 N 
ATOM     25  C   UNL     1      -8.683  -2.062  23.734  0.00  0.00    +0.000 C 
ATOM     26  C   UNL     1     -10.820  -0.775  23.207  0.00  0.00    +0.000 C 
BRANCH  24  27
ATOM     27  C   UNL     1      -9.227  -1.327  21.462  0.00  0.00    +0.000 C 
ATOM     28  C   UNL     1      -9.375  -2.468  20.601  0.00  0.00    +0.000 C 
ATOM     29  C   UNL     1      -9.506  -3.496  19.815  0.00  0.00    +0.000 C 
ATOM     30  C   UNL     1     -10.589  -3.377  18.764  0.00  0.00    +0.000 C 
BRANCH  27  31
ATOM     31  C   UNL     1      -8.756  -0.092  20.853  0.00  0.00    +0.000 C 
ATOM     32  C   UNL     1      -9.604   0.631  19.825  0.00  0.00    +0.000 C 
ATOM     33  C   UNL     1      -7.789   0.795  21.615  0.00  0.00    +0.000 C 
ENDBRANCH  27  31
BRANCH  29  35
ATOM     34  O   UNL     1      -8.509  -5.603  19.194  0.00  0.00    +0.000 OA
ATOM     35  C   UNL     1      -8.619  -4.679  19.987  0.00  0.00    +0.000 C 
BRANCH  35  36
ATOM     36  O   UNL     1      -7.903  -4.681  21.131  0.00  0.00    +0.000 OA
ATOM     37  H   UNL     1      -8.561  -4.566  21.848  0.00  0.00    +0.000 HD
ENDBRANCH  35  36
ENDBRANCH  29  35
ENDBRANCH  24  27
ENDBRANCH   5  25
BRANCH   5  38
ATOM     38  C   UNL     1      -8.727  -1.167  26.102  0.00  0.00    +0.000 C 
ATOM     39  C   UNL     1      -9.991  -0.658  26.866  0.00  0.00    +0.000 C 
ATOM     40  C   UNL     1      -7.790  -1.871  27.125  0.00  0.00    +0.000 C 
ATOM     41  C   UNL     1      -8.021   0.038  25.433  0.00  0.00    +0.000 C 
ENDBRANCH   5  38
TORSDOF 7
ENDMDL
MODEL 3
REMARK VINA RESULT:      -6.0      2.761      5.075
REMARK  Name = 10940649_MilnamideD.pdbqt.pdb
REMARK  7 active torsions:
REMARK  status: ('A' for Active; 'I' for Inactive)
REMARK    1  A    between atoms: C_3  and  C_8
REMARK    2  A    between atoms: C_22  and  C_25
REMARK    3  A    between atoms: C_22  and  C_38
REMARK    4  A    between atoms: N_24  and  C_27
REMARK    5  A    between atoms: C_27  and  C_28
REMARK    6  A    between atoms: C_32  and  C_35
REMARK    7  A    between atoms: C_35  and  O_36
REMARK                            x       y       z     vdW  Elec       q    Type
REMARK                         _______ _______ _______ _____ _____    ______ ____
ROOT
ATOM      1  O   UNL     1     -11.494  -3.485  24.840  0.00  0.00    +0.000 OA
ATOM      2  N   UNL     1     -10.077  -4.610  23.469  0.00  0.00    +0.000 N 
ATOM      3  C   UNL     1     -10.872  -4.512  24.594  0.00  0.00    +0.000 C 
ATOM      4  H   UNL     1      -9.494  -5.447  23.354  0.00  0.00    +0.000 HD
ATOM      5  C   UNL     1      -9.938  -3.607  22.480  0.00  0.00    +0.000 C 
ENDROOT
BRANCH   3   9
ATOM      6  N   UNL     1     -12.195  -6.438  25.674  0.00  0.00    +0.000 NA
ATOM      7  N   UNL     1     -10.677  -9.048  28.178  0.00  0.00    +0.000 N 
ATOM      8  C   UNL     1      -9.665  -5.944  26.369  0.00  0.00    +0.000 C 
ATOM      9  C   UNL     1     -10.925  -5.718  25.482  0.00  0.00    +0.000 C 
ATOM     10  C   UNL     1      -9.733  -7.233  27.248  0.00  0.00    +0.000 A 
ATOM     11  C   UNL     1     -10.875  -8.002  27.346  0.00  0.00    +0.000 A 
ATOM     12  C   UNL     1      -9.535  -4.788  27.405  0.00  0.00    +0.000 C 
ATOM     13  C   UNL     1      -8.418  -6.152  25.462  0.00  0.00    +0.000 C 
ATOM     14  C   UNL     1      -8.775  -7.875  28.112  0.00  0.00    +0.000 A 
ATOM     15  C   UNL     1     -11.945  -7.529  26.579  0.00  0.00    +0.000 C 
ATOM     16  C   UNL     1      -9.395  -9.009  28.675  0.00  0.00    +0.000 A 
ATOM     17  C   UNL     1     -12.669  -7.010  24.424  0.00  0.00    +0.000 C 
ATOM     18  C   UNL     1      -7.441  -7.593  28.468  0.00  0.00    +0.000 A 
ATOM     19  C   UNL     1     -11.664 -10.022  28.496  0.00  0.00    +0.000 C 
ATOM     20  C   UNL     1      -8.726  -9.859  29.569  0.00  0.00    +0.000 A 
ATOM     21  C   UNL     1      -6.771  -8.435  29.357  0.00  0.00    +0.000 A 
ATOM     22  C   UNL     1      -7.405  -9.548  29.894  0.00  0.00    +0.000 A 
ENDBRANCH   3   9
BRANCH   5  25
ATOM     23  O   UNL     1     -11.936  -2.509  22.008  0.00  0.00    +0.000 OA
ATOM     24  N   UNL     1     -10.286  -1.285  23.175  0.00  0.00    +0.000 N 
ATOM     25  C   UNL     1     -10.817  -2.412  22.502  0.00  0.00    +0.000 C 
ATOM     26  C   UNL     1      -8.922  -1.207  23.711  0.00  0.00    +0.000 C 
BRANCH  24  27
ATOM     27  C   UNL     1     -11.081  -0.146  23.394  0.00  0.00    +0.000 C 
ATOM     28  C   UNL     1     -12.125  -0.146  24.382  0.00  0.00    +0.000 C 
ATOM     29  C   UNL     1     -13.072  -0.138  25.275  0.00  0.00    +0.000 C 
ATOM     30  C   UNL     1     -12.833   0.764  26.467  0.00  0.00    +0.000 C 
BRANCH  27  31
ATOM     31  C   UNL     1     -10.870   1.087  22.651  0.00  0.00    +0.000 C 
ATOM     32  C   UNL     1     -10.914   2.428  23.358  0.00  0.00    +0.000 C 
ATOM     33  C   UNL     1     -10.031   1.063  21.387  0.00  0.00    +0.000 C 
ENDBRANCH  27  31
BRANCH  29  35
ATOM     34  O   UNL     1     -15.355  -0.822  25.645  0.00  0.00    +0.000 OA
ATOM     35  C   UNL     1     -14.283  -0.979  25.078  0.00  0.00    +0.000 C 
BRANCH  35  36
ATOM     36  O   UNL     1     -14.129  -1.986  24.192  0.00  0.00    +0.000 OA
ATOM     37  H   UNL     1     -13.165  -2.156  24.160  0.00  0.00    +0.000 HD
ENDBRANCH  35  36
ENDBRANCH  29  35
ENDBRANCH  24  27
ENDBRANCH   5  25
BRANCH   5  38
ATOM     38  C   UNL     1      -9.117  -3.774  21.211  0.00  0.00    +0.000 C 
ATOM     39  C   UNL     1      -7.621  -3.858  21.653  0.00  0.00    +0.000 C 
ATOM     40  C   UNL     1      -9.511  -5.132  20.564  0.00  0.00    +0.000 C 
ATOM     41  C   UNL     1      -9.282  -2.607  20.207  0.00  0.00    +0.000 C 
ENDBRANCH   5  38
TORSDOF 7
ENDMDL
MODEL 4
REMARK VINA RESULT:      -6.0      3.448      9.944
REMARK  Name = 10940649_MilnamideD.pdbqt.pdb
REMARK  7 active torsions:
REMARK  status: ('A' for Active; 'I' for Inactive)
REMARK    1  A    between atoms: C_3  and  C_8
REMARK    2  A    between atoms: C_22  and  C_25
REMARK    3  A    between atoms: C_22  and  C_38
REMARK    4  A    between atoms: N_24  and  C_27
REMARK    5  A    between atoms: C_27  and  C_28
REMARK    6  A    between atoms: C_32  and  C_35
REMARK    7  A    between atoms: C_35  and  O_36
REMARK                            x       y       z     vdW  Elec       q    Type
REMARK                         _______ _______ _______ _____ _____    ______ ____
ROOT
ATOM      1  O   UNL     1     -10.264  -0.928  22.033  0.00  0.00    +0.000 OA
ATOM      2  N   UNL     1      -9.322  -0.169  23.954  0.00  0.00    +0.000 N 
ATOM      3  C   UNL     1      -9.869   0.021  22.699  0.00  0.00    +0.000 C 
ATOM      4  H   UNL     1      -8.910   0.639  24.435  0.00  0.00    +0.000 HD
ATOM      5  C   UNL     1      -9.213  -1.417  24.614  0.00  0.00    +0.000 C 
ENDROOT
BRANCH   3   9
ATOM      6  N   UNL     1     -11.017   2.325  22.691  0.00  0.00    +0.000 NA
ATOM      7  N   UNL     1      -9.875   5.371  20.500  0.00  0.00    +0.000 N 
ATOM      8  C   UNL     1      -9.030   1.770  20.997  0.00  0.00    +0.000 C 
ATOM      9  C   UNL     1      -9.944   1.437  22.213  0.00  0.00    +0.000 C 
ATOM     10  C   UNL     1      -9.100   3.263  20.544  0.00  0.00    +0.000 A 
ATOM     11  C   UNL     1     -10.012   4.154  21.070  0.00  0.00    +0.000 A 
ATOM     12  C   UNL     1      -9.504   0.973  19.745  0.00  0.00    +0.000 C 
ATOM     13  C   UNL     1      -7.540   1.547  21.387  0.00  0.00    +0.000 C 
ATOM     14  C   UNL     1      -8.363   4.018  19.562  0.00  0.00    +0.000 A 
ATOM     15  C   UNL     1     -10.846   3.601  22.047  0.00  0.00    +0.000 C 
ATOM     16  C   UNL     1      -8.870   5.333  19.563  0.00  0.00    +0.000 A 
ATOM     17  C   UNL     1     -10.916   2.545  24.125  0.00  0.00    +0.000 C 
ATOM     18  C   UNL     1      -7.317   3.702  18.673  0.00  0.00    +0.000 A 
ATOM     19  C   UNL     1     -10.674   6.505  20.820  0.00  0.00    +0.000 C 
ATOM     20  C   UNL     1      -8.363   6.329  18.713  0.00  0.00    +0.000 A 
ATOM     21  C   UNL     1      -6.810   4.688  17.825  0.00  0.00    +0.000 A 
ATOM     22  C   UNL     1      -7.324   5.978  17.849  0.00  0.00    +0.000 A 
ENDBRANCH   3   9
BRANCH   5  25
ATOM     23  O   UNL     1     -11.072  -2.774  24.261  0.00  0.00    +0.000 OA
ATOM     24  N   UNL     1      -9.047  -3.436  23.240  0.00  0.00    +0.000 N 
ATOM     25  C   UNL     1      -9.873  -2.619  24.048  0.00  0.00    +0.000 C 
ATOM     26  C   UNL     1      -7.606  -3.229  23.053  0.00  0.00    +0.000 C 
BRANCH  24  27
ATOM     27  C   UNL     1      -9.594  -4.518  22.527  0.00  0.00    +0.000 C 
ATOM     28  C   UNL     1      -9.502  -4.589  21.095  0.00  0.00    +0.000 C 
ATOM     29  C   UNL     1      -9.423  -4.659  19.798  0.00  0.00    +0.000 C 
ATOM     30  C   UNL     1      -8.542  -5.766  19.259  0.00  0.00    +0.000 C 
BRANCH  27  31
ATOM     31  C   UNL     1     -10.254  -5.624  23.205  0.00  0.00    +0.000 C 
ATOM     32  C   UNL     1      -9.735  -6.129  24.537  0.00  0.00    +0.000 C 
ATOM     33  C   UNL     1     -11.731  -5.874  22.963  0.00  0.00    +0.000 C 
ENDBRANCH  27  31
BRANCH  29  35
ATOM     34  O   UNL     1     -10.125  -3.623  17.736  0.00  0.00    +0.000 OA
ATOM     35  C   UNL     1     -10.175  -3.689  18.956  0.00  0.00    +0.000 C 
BRANCH  35  36
ATOM     36  O   UNL     1     -10.957  -2.834  19.647  0.00  0.00    +0.000 OA
ATOM     37  H   UNL     1     -10.397  -2.507  20.381  0.00  0.00    +0.000 HD
ENDBRANCH  35  36
ENDBRANCH  29  35
ENDBRANCH  24  27
ENDBRANCH   5  25
BRANCH   5  38
ATOM     38  C   UNL     1      -8.678  -1.585  26.027  0.00  0.00    +0.000 C 
ATOM     39  C   UNL     1      -7.205  -1.068  26.014  0.00  0.00    +0.000 C 
ATOM     40  C   UNL     1      -9.510  -0.663  26.964  0.00  0.00    +0.000 C 
ATOM     41  C   UNL     1      -8.696  -3.051  26.526  0.00  0.00    +0.000 C 
ENDBRANCH   5  38
TORSDOF 7
ENDMDL
MODEL 5
REMARK VINA RESULT:      -6.0      2.975     10.203
REMARK  Name = 10940649_MilnamideD.pdbqt.pdb
REMARK  7 active torsions:
REMARK  status: ('A' for Active; 'I' for Inactive)
REMARK    1  A    between atoms: C_3  and  C_8
REMARK    2  A    between atoms: C_22  and  C_25
REMARK    3  A    between atoms: C_22  and  C_38
REMARK    4  A    between atoms: N_24  and  C_27
REMARK    5  A    between atoms: C_27  and  C_28
REMARK    6  A    between atoms: C_32  and  C_35
REMARK    7  A    between atoms: C_35  and  O_36
REMARK                            x       y       z     vdW  Elec       q    Type
REMARK                         _______ _______ _______ _____ _____    ______ ____
ROOT
ATOM      1  O   UNL     1      -9.545  -0.835  23.615  0.00  0.00    +0.000 OA
ATOM      2  N   UNL     1      -9.329  -1.758  21.552  0.00  0.00    +0.000 N 
ATOM      3  C   UNL     1      -9.119  -0.746  22.469  0.00  0.00    +0.000 C 
ATOM      4  H   UNL     1      -9.047  -1.601  20.578  0.00  0.00    +0.000 HD
ATOM      5  C   UNL     1      -9.978  -2.986  21.829  0.00  0.00    +0.000 C 
ENDROOT
BRANCH   3   9
ATOM      6  N   UNL     1      -7.075   0.811  22.618  0.00  0.00    +0.000 NA
ATOM      7  N   UNL     1      -6.527   3.981  20.374  0.00  0.00    +0.000 N 
ATOM      8  C   UNL     1      -9.131   1.385  21.014  0.00  0.00    +0.000 C 
ATOM      9  C   UNL     1      -8.353   0.446  21.983  0.00  0.00    +0.000 C 
ATOM     10  C   UNL     1      -8.289   2.592  20.491  0.00  0.00    +0.000 A 
ATOM     11  C   UNL     1      -7.031   2.882  20.978  0.00  0.00    +0.000 A 
ATOM     12  C   UNL     1     -10.320   2.052  21.766  0.00  0.00    +0.000 C 
ATOM     13  C   UNL     1      -9.528   0.598  19.732  0.00  0.00    +0.000 C 
ATOM     14  C   UNL     1      -8.561   3.620  19.519  0.00  0.00    +0.000 A 
ATOM     15  C   UNL     1      -6.583   1.993  21.960  0.00  0.00    +0.000 C 
ATOM     16  C   UNL     1      -7.438   4.470  19.467  0.00  0.00    +0.000 A 
ATOM     17  C   UNL     1      -6.080  -0.234  22.435  0.00  0.00    +0.000 C 
ATOM     18  C   UNL     1      -9.659   3.907  18.684  0.00  0.00    +0.000 A 
ATOM     19  C   UNL     1      -5.252   4.544  20.661  0.00  0.00    +0.000 C 
ATOM     20  C   UNL     1      -7.382   5.581  18.611  0.00  0.00    +0.000 A 
ATOM     21  C   UNL     1      -9.609   5.010  17.832  0.00  0.00    +0.000 A 
ATOM     22  C   UNL     1      -8.488   5.830  17.797  0.00  0.00    +0.000 A 
ENDBRANCH   3   9
BRANCH   5  25
ATOM     23  O   UNL     1     -11.474  -3.146  23.606  0.00  0.00    +0.000 OA
ATOM     24  N   UNL     1      -9.289  -3.974  23.960  0.00  0.00    +0.000 N 
ATOM     25  C   UNL     1     -10.324  -3.348  23.224  0.00  0.00    +0.000 C 
ATOM     26  C   UNL     1      -7.918  -4.154  23.471  0.00  0.00    +0.000 C 
BRANCH  24  27
ATOM     27  C   UNL     1      -9.542  -4.499  25.240  0.00  0.00    +0.000 C 
ATOM     28  C   UNL     1     -10.325  -5.691  25.415  0.00  0.00    +0.000 C 
ATOM     29  C   UNL     1     -11.035  -6.769  25.581  0.00  0.00    +0.000 C 
ATOM     30  C   UNL     1     -10.275  -7.974  26.095  0.00  0.00    +0.000 C 
BRANCH  27  31
ATOM     31  C   UNL     1      -9.003  -3.877  26.441  0.00  0.00    +0.000 C 
ATOM     32  C   UNL     1      -9.443  -2.485  26.849  0.00  0.00    +0.000 C 
ATOM     33  C   UNL     1      -8.523  -4.752  27.584  0.00  0.00    +0.000 C 
ENDBRANCH  27  31
BRANCH  29  35
ATOM     34  O   UNL     1     -13.348  -6.180  25.924  0.00  0.00    +0.000 OA
ATOM     35  C   UNL     1     -12.490  -6.754  25.270  0.00  0.00    +0.000 C 
BRANCH  35  36
ATOM     36  O   UNL     1     -12.835  -7.450  24.166  0.00  0.00    +0.000 OA
ATOM     37  H   UNL     1     -12.019  -7.917  23.890  0.00  0.00    +0.000 HD
ENDBRANCH  35  36
ENDBRANCH  29  35
ENDBRANCH  24  27
ENDBRANCH   5  25
BRANCH   5  38
ATOM     38  C   UNL     1     -10.126  -4.114  20.820  0.00  0.00    +0.000 C 
ATOM     39  C   UNL     1     -11.023  -3.567  19.663  0.00  0.00    +0.000 C 
ATOM     40  C   UNL     1      -8.716  -4.420  20.239  0.00  0.00    +0.000 C 
ATOM     41  C   UNL     1     -10.778  -5.389  21.406  0.00  0.00    +0.000 C 
ENDBRANCH   5  38
TORSDOF 7
ENDMDL
MODEL 6
REMARK VINA RESULT:      -5.9     17.005     20.875
REMARK  Name = 10940649_MilnamideD.pdbqt.pdb
REMARK  7 active torsions:
REMARK  status: ('A' for Active; 'I' for Inactive)
REMARK    1  A    between atoms: C_3  and  C_8
REMARK    2  A    between atoms: C_22  and  C_25
REMARK    3  A    between atoms: C_22  and  C_38
REMARK    4  A    between atoms: N_24  and  C_27
REMARK    5  A    between atoms: C_27  and  C_28
REMARK    6  A    between atoms: C_32  and  C_35
REMARK    7  A    between atoms: C_35  and  O_36
REMARK                            x       y       z     vdW  Elec       q    Type
REMARK                         _______ _______ _______ _____ _____    ______ ____
ROOT
ATOM      1  O   UNL     1     -23.759  -3.690  10.884  0.00  0.00    +0.000 OA
ATOM      2  N   UNL     1     -22.880  -3.155   8.860  0.00  0.00    +0.000 N 
ATOM      3  C   UNL     1     -23.521  -2.833  10.041  0.00  0.00    +0.000 C 
ATOM      4  H   UNL     1     -22.791  -2.430   8.139  0.00  0.00    +0.000 HD
ATOM      5  C   UNL     1     -22.393  -4.441   8.522  0.00  0.00    +0.000 C 
ENDROOT
BRANCH   3   9
ATOM      6  N   UNL     1     -25.092  -0.854   9.550  0.00  0.00    +0.000 NA
ATOM      7  N   UNL     1     -24.575   2.787  10.914  0.00  0.00    +0.000 N 
ATOM      8  C   UNL     1     -22.814  -0.503  10.898  0.00  0.00    +0.000 C 
ATOM      9  C   UNL     1     -23.899  -1.394  10.224  0.00  0.00    +0.000 C 
ATOM     10  C   UNL     1     -23.257   0.978  11.113  0.00  0.00    +0.000 A 
ATOM     11  C   UNL     1     -24.436   1.480  10.601  0.00  0.00    +0.000 A 
ATOM     12  C   UNL     1     -21.569  -0.393   9.967  0.00  0.00    +0.000 C 
ATOM     13  C   UNL     1     -22.514  -1.037  12.328  0.00  0.00    +0.000 C 
ATOM     14  C   UNL     1     -22.635   2.094  11.780  0.00  0.00    +0.000 A 
ATOM     15  C   UNL     1     -25.192   0.540   9.894  0.00  0.00    +0.000 C 
ATOM     16  C   UNL     1     -23.486   3.208  11.640  0.00  0.00    +0.000 A 
ATOM     17  C   UNL     1     -26.303  -1.507  10.023  0.00  0.00    +0.000 C 
ATOM     18  C   UNL     1     -21.425   2.258  12.484  0.00  0.00    +0.000 A 
ATOM     19  C   UNL     1     -25.681   3.595  10.526  0.00  0.00    +0.000 C 
ATOM     20  C   UNL     1     -23.168   4.464  12.182  0.00  0.00    +0.000 A 
ATOM     21  C   UNL     1     -21.103   3.504  13.023  0.00  0.00    +0.000 A 
ATOM     22  C   UNL     1     -21.962   4.585  12.875  0.00  0.00    +0.000 A 
ENDBRANCH   3   9
BRANCH   5  25
ATOM     23  O   UNL     1     -21.396  -5.618  10.266  0.00  0.00    +0.000 OA
ATOM     24  N   UNL     1     -23.562  -6.297   9.609  0.00  0.00    +0.000 N 
ATOM     25  C   UNL     1     -22.379  -5.522   9.537  0.00  0.00    +0.000 C 
ATOM     26  C   UNL     1     -24.693  -6.169   8.683  0.00  0.00    +0.000 C 
BRANCH  24  27
ATOM     27  C   UNL     1     -23.728  -7.250  10.629  0.00  0.00    +0.000 C 
ATOM     28  C   UNL     1     -23.594  -6.890  12.014  0.00  0.00    +0.000 C 
ATOM     29  C   UNL     1     -23.473  -6.572  13.270  0.00  0.00    +0.000 C 
ATOM     30  C   UNL     1     -24.749  -6.633  14.082  0.00  0.00    +0.000 C 
BRANCH  27  31
ATOM     31  C   UNL     1     -24.067  -8.635  10.333  0.00  0.00    +0.000 C 
ATOM     32  C   UNL     1     -25.406  -9.206  10.756  0.00  0.00    +0.000 C 
ATOM     33  C   UNL     1     -23.435  -9.319   9.135  0.00  0.00    +0.000 C 
ENDBRANCH  27  31
BRANCH  29  35
ATOM     34  O   UNL     1     -21.111  -6.831  13.689  0.00  0.00    +0.000 OA
ATOM     35  C   UNL     1     -22.142  -6.184  13.811  0.00  0.00    +0.000 C 
BRANCH  35  36
ATOM     36  O   UNL     1     -22.129  -5.016  14.487  0.00  0.00    +0.000 OA
ATOM     37  H   UNL     1     -21.708  -4.372  13.880  0.00  0.00    +0.000 HD
ENDBRANCH  35  36
ENDBRANCH  29  35
ENDBRANCH  24  27
ENDBRANCH   5  25
BRANCH   5  38
ATOM     38  C   UNL     1     -21.622  -4.748   7.248  0.00  0.00    +0.000 C 
ATOM     39  C   UNL     1     -22.324  -3.958   6.098  0.00  0.00    +0.000 C 
ATOM     40  C   UNL     1     -20.181  -4.187   7.416  0.00  0.00    +0.000 C 
ATOM     41  C   UNL     1     -21.598  -6.254   6.887  0.00  0.00    +0.000 C 
ENDBRANCH   5  38
TORSDOF 7
ENDMDL
MODEL 7
REMARK VINA RESULT:      -5.9      3.749      7.952
REMARK  Name = 10940649_MilnamideD.pdbqt.pdb
REMARK  7 active torsions:
REMARK  status: ('A' for Active; 'I' for Inactive)
REMARK    1  A    between atoms: C_3  and  C_8
REMARK    2  A    between atoms: C_22  and  C_25
REMARK    3  A    between atoms: C_22  and  C_38
REMARK    4  A    between atoms: N_24  and  C_27
REMARK    5  A    between atoms: C_27  and  C_28
REMARK    6  A    between atoms: C_32  and  C_35
REMARK    7  A    between atoms: C_35  and  O_36
REMARK                            x       y       z     vdW  Elec       q    Type
REMARK                         _______ _______ _______ _____ _____    ______ ____
ROOT
ATOM      1  O   UNL     1      -7.477  -1.725  24.483  0.00  0.00    +0.000 OA
ATOM      2  N   UNL     1      -9.579  -2.264  25.150  0.00  0.00    +0.000 N 
ATOM      3  C   UNL     1      -8.630  -2.004  24.179  0.00  0.00    +0.000 C 
ATOM      4  H   UNL     1     -10.554  -2.392  24.859  0.00  0.00    +0.000 HD
ATOM      5  C   UNL     1      -9.330  -2.294  26.544  0.00  0.00    +0.000 C 
ENDROOT
BRANCH   3   9
ATOM      6  N   UNL     1     -10.058  -1.100  22.238  0.00  0.00    +0.000 NA
ATOM      7  N   UNL     1     -10.248  -2.726  18.673  0.00  0.00    +0.000 N 
ATOM      8  C   UNL     1      -8.725  -3.403  22.012  0.00  0.00    +0.000 C 
ATOM      9  C   UNL     1      -9.094  -2.085  22.756  0.00  0.00    +0.000 C 
ATOM     10  C   UNL     1      -9.183  -3.435  20.520  0.00  0.00    +0.000 A 
ATOM     11  C   UNL     1      -9.984  -2.455  19.970  0.00  0.00    +0.000 A 
ATOM     12  C   UNL     1      -9.473  -4.603  22.663  0.00  0.00    +0.000 C 
ATOM     13  C   UNL     1      -7.177  -3.553  21.952  0.00  0.00    +0.000 C 
ATOM     14  C   UNL     1      -8.964  -4.380  19.454  0.00  0.00    +0.000 A 
ATOM     15  C   UNL     1     -10.326  -1.435  20.864  0.00  0.00    +0.000 C 
ATOM     16  C   UNL     1      -9.640  -3.905  18.312  0.00  0.00    +0.000 A 
ATOM     17  C   UNL     1      -9.499   0.242  22.257  0.00  0.00    +0.000 C 
ATOM     18  C   UNL     1      -8.257  -5.595  19.359  0.00  0.00    +0.000 A 
ATOM     19  C   UNL     1     -11.053  -1.911  17.829  0.00  0.00    +0.000 C 
ATOM     20  C   UNL     1      -9.625  -4.600  17.093  0.00  0.00    +0.000 A 
ATOM     21  C   UNL     1      -8.240  -6.291  18.149  0.00  0.00    +0.000 A 
ATOM     22  C   UNL     1      -8.911  -5.798  17.038  0.00  0.00    +0.000 A 
ENDBRANCH   3   9
BRANCH   5  25
ATOM     23  O   UNL     1      -7.305  -3.273  27.147  0.00  0.00    +0.000 OA
ATOM     24  N   UNL     1      -7.454  -0.920  27.312  0.00  0.00    +0.000 N 
ATOM     25  C   UNL     1      -7.939  -2.225  27.054  0.00  0.00    +0.000 C 
ATOM     26  C   UNL     1      -8.269   0.297  27.226  0.00  0.00    +0.000 C 
BRANCH  24  27
ATOM     27  C   UNL     1      -6.106  -0.716  27.653  0.00  0.00    +0.000 C 
ATOM     28  C   UNL     1      -5.140  -0.316  26.667  0.00  0.00    +0.000 C 
ATOM     29  C   UNL     1      -4.260   0.045  25.779  0.00  0.00    +0.000 C 
ATOM     30  C   UNL     1      -3.700   1.441  25.949  0.00  0.00    +0.000 C 
BRANCH  27  31
ATOM     31  C   UNL     1      -5.631  -0.874  29.020  0.00  0.00    +0.000 C 
ATOM     32  C   UNL     1      -6.448  -0.347  30.184  0.00  0.00    +0.000 C 
ATOM     33  C   UNL     1      -4.713  -2.033  29.363  0.00  0.00    +0.000 C 
ENDBRANCH  27  31
BRANCH  29  35
ATOM     34  O   UNL     1      -2.771  -1.417  24.569  0.00  0.00    +0.000 OA
ATOM     35  C   UNL     1      -3.871  -0.898  24.695  0.00  0.00    +0.000 C 
BRANCH  35  36
ATOM     36  O   UNL     1      -4.850  -1.164  23.804  0.00  0.00    +0.000 OA
ATOM     37  H   UNL     1      -5.313  -0.312  23.669  0.00  0.00    +0.000 HD
ENDBRANCH  35  36
ENDBRANCH  29  35
ENDBRANCH  24  27
ENDBRANCH   5  25
BRANCH   5  38
ATOM     38  C   UNL     1     -10.376  -2.659  27.585  0.00  0.00    +0.000 C 
ATOM     39  C   UNL     1     -11.625  -1.765  27.299  0.00  0.00    +0.000 C 
ATOM     40  C   UNL     1     -10.778  -4.144  27.355  0.00  0.00    +0.000 C 
ATOM     41  C   UNL     1      -9.909  -2.425  29.042  0.00  0.00    +0.000 C 
ENDBRANCH   5  38
TORSDOF 7
ENDMDL
MODEL 8
REMARK VINA RESULT:      -5.9     21.428     24.409
REMARK  Name = 10940649_MilnamideD.pdbqt.pdb
REMARK  7 active torsions:
REMARK  status: ('A' for Active; 'I' for Inactive)
REMARK    1  A    between atoms: C_3  and  C_8
REMARK    2  A    between atoms: C_22  and  C_25
REMARK    3  A    between atoms: C_22  and  C_38
REMARK    4  A    between atoms: N_24  and  C_27
REMARK    5  A    between atoms: C_27  and  C_28
REMARK    6  A    between atoms: C_32  and  C_35
REMARK    7  A    between atoms: C_35  and  O_36
REMARK                            x       y       z     vdW  Elec       q    Type
REMARK                         _______ _______ _______ _____ _____    ______ ____
ROOT
ATOM      1  O   UNL     1      -1.040  -3.671   2.826  0.00  0.00    +0.000 OA
ATOM      2  N   UNL     1      -1.758  -1.717   1.919  0.00  0.00    +0.000 N 
ATOM      3  C   UNL     1      -0.984  -2.447   2.800  0.00  0.00    +0.000 C 
ATOM      4  H   UNL     1      -1.757  -0.694   1.999  0.00  0.00    +0.000 HD
ATOM      5  C   UNL     1      -2.625  -2.271   0.946  0.00  0.00    +0.000 C 
ENDROOT
BRANCH   3   9
ATOM      6  N   UNL     1       1.334  -2.030   3.841  0.00  0.00    +0.000 NA
ATOM      7  N   UNL     1       2.115   0.764   6.481  0.00  0.00    +0.000 N 
ATOM      8  C   UNL     1      -0.813  -0.677   4.671  0.00  0.00    +0.000 C 
ATOM      9  C   UNL     1      -0.086  -1.662   3.708  0.00  0.00    +0.000 C 
ATOM     10  C   UNL     1       0.153   0.157   5.570  0.00  0.00    +0.000 A 
ATOM     11  C   UNL     1       1.511  -0.082   5.618  0.00  0.00    +0.000 A 
ATOM     12  C   UNL     1      -1.679  -1.478   5.689  0.00  0.00    +0.000 C 
ATOM     13  C   UNL     1      -1.594   0.383   3.842  0.00  0.00    +0.000 C 
ATOM     14  C   UNL     1      -0.070   1.234   6.501  0.00  0.00    +0.000 A 
ATOM     15  C   UNL     1       1.934  -1.120   4.781  0.00  0.00    +0.000 C 
ATOM     16  C   UNL     1       1.178   1.593   7.050  0.00  0.00    +0.000 A 
ATOM     17  C   UNL     1       2.037  -1.876   2.577  0.00  0.00    +0.000 C 
ATOM     18  C   UNL     1      -1.217   1.933   6.928  0.00  0.00    +0.000 A 
ATOM     19  C   UNL     1       3.510   0.767   6.761  0.00  0.00    +0.000 C 
ATOM     20  C   UNL     1       1.308   2.619   7.999  0.00  0.00    +0.000 A 
ATOM     21  C   UNL     1      -1.093   2.953   7.871  0.00  0.00    +0.000 A 
ATOM     22  C   UNL     1       0.149   3.290   8.393  0.00  0.00    +0.000 A 
ENDBRANCH   3   9
BRANCH   5  25
ATOM     23  O   UNL     1      -1.841  -4.158  -0.169  0.00  0.00    +0.000 OA
ATOM     24  N   UNL     1      -3.462  -4.500   1.516  0.00  0.00    +0.000 N 
ATOM     25  C   UNL     1      -2.614  -3.730   0.683  0.00  0.00    +0.000 C 
ATOM     26  C   UNL     1      -4.401  -3.933   2.491  0.00  0.00    +0.000 C 
BRANCH  24  27
ATOM     27  C   UNL     1      -3.426  -5.905   1.466  0.00  0.00    +0.000 C 
ATOM     28  C   UNL     1      -2.181  -6.620   1.523  0.00  0.00    +0.000 C 
ATOM     29  C   UNL     1      -1.058  -7.276   1.574  0.00  0.00    +0.000 C 
ATOM     30  C   UNL     1      -0.841  -8.097   2.827  0.00  0.00    +0.000 C 
BRANCH  27  31
ATOM     31  C   UNL     1      -4.644  -6.697   1.378  0.00  0.00    +0.000 C 
ATOM     32  C   UNL     1      -5.042  -7.354   0.071  0.00  0.00    +0.000 C 
ATOM     33  C   UNL     1      -5.181  -7.381   2.622  0.00  0.00    +0.000 C 
ENDBRANCH  27  31
BRANCH  29  35
ATOM     34  O   UNL     1       0.356  -8.132  -0.182  0.00  0.00    +0.000 OA
ATOM     35  C   UNL     1      -0.094  -7.183   0.444  0.00  0.00    +0.000 C 
BRANCH  35  36
ATOM     36  O   UNL     1       0.281  -5.926   0.128  0.00  0.00    +0.000 OA
ATOM     37  H   UNL     1       0.832  -6.016  -0.677  0.00  0.00    +0.000 HD
ENDBRANCH  35  36
ENDBRANCH  29  35
ENDBRANCH  24  27
ENDBRANCH   5  25
BRANCH   5  38
ATOM     38  C   UNL     1      -3.406  -1.444  -0.063  0.00  0.00    +0.000 C 
ATOM     39  C   UNL     1      -4.049  -0.261   0.728  0.00  0.00    +0.000 C 
ATOM     40  C   UNL     1      -2.390  -0.853  -1.083  0.00  0.00    +0.000 C 
ATOM     41  C   UNL     1      -4.523  -2.238  -0.783  0.00  0.00    +0.000 C 
ENDBRANCH   5  38
TORSDOF 7
ENDMDL
MODEL 9
REMARK VINA RESULT:      -5.9     17.047     21.212
REMARK  Name = 10940649_MilnamideD.pdbqt.pdb
REMARK  7 active torsions:
REMARK  status: ('A' for Active; 'I' for Inactive)
REMARK    1  A    between atoms: C_3  and  C_8
REMARK    2  A    between atoms: C_22  and  C_25
REMARK    3  A    between atoms: C_22  and  C_38
REMARK    4  A    between atoms: N_24  and  C_27
REMARK    5  A    between atoms: C_27  and  C_28
REMARK    6  A    between atoms: C_32  and  C_35
REMARK    7  A    between atoms: C_35  and  O_36
REMARK                            x       y       z     vdW  Elec       q    Type
REMARK                         _______ _______ _______ _____ _____    ______ ____
ROOT
ATOM      1  O   UNL     1     -24.141  -2.293   9.937  0.00  0.00    +0.000 OA
ATOM      2  N   UNL     1     -23.929  -1.128   8.000  0.00  0.00    +0.000 N 
ATOM      3  C   UNL     1     -23.977  -1.215   9.378  0.00  0.00    +0.000 C 
ATOM      4  H   UNL     1     -23.894  -0.197   7.569  0.00  0.00    +0.000 HD
ATOM      5  C   UNL     1     -24.002  -2.229   7.111  0.00  0.00    +0.000 C 
ENDROOT
BRANCH   3   9
ATOM      6  N   UNL     1     -24.951   1.005  10.243  0.00  0.00    +0.000 NA
ATOM      7  N   UNL     1     -22.926   3.678  12.279  0.00  0.00    +0.000 N 
ATOM      8  C   UNL     1     -22.353   0.446  10.503  0.00  0.00    +0.000 C 
ATOM      9  C   UNL     1     -23.819   0.070  10.133  0.00  0.00    +0.000 C 
ATOM     10  C   UNL     1     -22.228   1.766  11.327  0.00  0.00    +0.000 A 
ATOM     11  C   UNL     1     -23.303   2.600  11.556  0.00  0.00    +0.000 A 
ATOM     12  C   UNL     1     -21.538   0.731   9.207  0.00  0.00    +0.000 C 
ATOM     13  C   UNL     1     -21.749  -0.653  11.425  0.00  0.00    +0.000 C 
ATOM     14  C   UNL     1     -21.109   2.416  11.960  0.00  0.00    +0.000 A 
ATOM     15  C   UNL     1     -24.503   2.144  11.000  0.00  0.00    +0.000 C 
ATOM     16  C   UNL     1     -21.580   3.607  12.549  0.00  0.00    +0.000 A 
ATOM     17  C   UNL     1     -26.057   0.406  10.972  0.00  0.00    +0.000 C 
ATOM     18  C   UNL     1     -19.740   2.103  12.081  0.00  0.00    +0.000 A 
ATOM     19  C   UNL     1     -23.801   4.728  12.674  0.00  0.00    +0.000 C 
ATOM     20  C   UNL     1     -20.733   4.479  13.250  0.00  0.00    +0.000 A 
ATOM     21  C   UNL     1     -18.893   2.967  12.777  0.00  0.00    +0.000 A 
ATOM     22  C   UNL     1     -19.384   4.132  13.352  0.00  0.00    +0.000 A 
ENDBRANCH   3   9
BRANCH   5  25
ATOM     23  O   UNL     1     -24.994  -4.254   7.688  0.00  0.00    +0.000 OA
ATOM     24  N   UNL     1     -22.652  -4.089   7.956  0.00  0.00    +0.000 N 
ATOM     25  C   UNL     1     -23.948  -3.614   7.636  0.00  0.00    +0.000 C 
ATOM     26  C   UNL     1     -21.437  -3.267   7.917  0.00  0.00    +0.000 C 
BRANCH  24  27
ATOM     27  C   UNL     1     -22.455  -5.433   8.318  0.00  0.00    +0.000 C 
ATOM     28  C   UNL     1     -22.478  -5.845   9.694  0.00  0.00    +0.000 C 
ATOM     29  C   UNL     1     -22.497  -6.225  10.938  0.00  0.00    +0.000 C 
ATOM     30  C   UNL     1     -23.663  -7.108  11.330  0.00  0.00    +0.000 C 
BRANCH  27  31
ATOM     31  C   UNL     1     -22.244  -6.470   7.318  0.00  0.00    +0.000 C 
ATOM     32  C   UNL     1     -23.313  -7.511   7.052  0.00  0.00    +0.000 C 
ATOM     33  C   UNL     1     -21.314  -6.202   6.149  0.00  0.00    +0.000 C 
ENDBRANCH  27  31
BRANCH  29  35
ATOM     34  O   UNL     1     -21.202  -6.257  12.973  0.00  0.00    +0.000 OA
ATOM     35  C   UNL     1     -21.416  -5.789  11.863  0.00  0.00    +0.000 C 
BRANCH  35  36
ATOM     36  O   UNL     1     -20.640  -4.792  11.389  0.00  0.00    +0.000 OA
ATOM     37  H   UNL     1     -19.802  -4.856  11.891  0.00  0.00    +0.000 HD
ENDBRANCH  35  36
ENDBRANCH  29  35
ENDBRANCH  24  27
ENDBRANCH   5  25
BRANCH   5  38
ATOM     38  C   UNL     1     -23.868  -2.110   5.601  0.00  0.00    +0.000 C 
ATOM     39  C   UNL     1     -22.651  -1.169   5.331  0.00  0.00    +0.000 C 
ATOM     40  C   UNL     1     -23.527  -3.521   5.041  0.00  0.00    +0.000 C 
ATOM     41  C   UNL     1     -25.124  -1.523   4.912  0.00  0.00    +0.000 C 
ENDBRANCH   5  38
TORSDOF 7
ENDMDL
