MODEL 1
REMARK VINA RESULT:      -7.0      0.000      0.000
REMARK  Name = 11167602_Regorafenib.pdbqt.pdb
REMARK  6 active torsions:
REMARK  status: ('A' for Active; 'I' for Inactive)
REMARK    1  A    between atoms: C_2  and  N_10
REMARK    2  A    between atoms: C_3  and  O_25
REMARK    3  A    between atoms: N_9  and  C_15
REMARK    4  A    between atoms: C_16  and  C_24
REMARK    5  A    between atoms: O_25  and  C_27
REMARK    6  A    between atoms: C_29  and  C_34
REMARK                            x       y       z     vdW  Elec       q    Type
REMARK                         _______ _______ _______ _____ _____    ______ ____
ROOT
ATOM      1  F   UNL     1     -20.708   2.734   9.575  0.00  0.00    +0.000 F 
ATOM      2  C   UNL     1     -21.216   1.359  11.433  0.00  0.00    +0.000 A 
ATOM      3  C   UNL     1     -21.890  -0.689   9.654  0.00  0.00    +0.000 A 
ATOM      4  C   UNL     1     -21.128   1.552  10.051  0.00  0.00    +0.000 A 
ATOM      5  C   UNL     1     -21.667   0.130  11.912  0.00  0.00    +0.000 A 
ATOM      6  C   UNL     1     -21.474   0.545   9.156  0.00  0.00    +0.000 A 
ATOM      7  C   UNL     1     -22.017  -0.889  11.027  0.00  0.00    +0.000 A 
ENDROOT
BRANCH   2  10
ATOM      8  O   UNL     1     -18.556   2.082  12.350  0.00  0.00    +0.000 OA
ATOM      9  N   UNL     1     -19.526   3.845  13.488  0.00  0.00    +0.000 N 
ATOM     10  N   UNL     1     -20.840   2.421  12.283  0.00  0.00    +0.000 N 
ATOM     11  C   UNL     1     -19.546   2.723  12.676  0.00  0.00    +0.000 C 
ATOM     12  H   UNL     1     -20.401   4.314  13.668  0.00  0.00    +0.000 HD
ATOM     13  H   UNL     1     -21.598   2.989  12.634  0.00  0.00    +0.000 HD
BRANCH   9  15
ATOM     14 CL   UNL     1     -14.692   6.340  15.827  0.00  0.00    +0.000 Cl
ATOM     15  C   UNL     1     -18.375   4.413  14.067  0.00  0.00    +0.000 A 
ATOM     16  C   UNL     1     -16.732   6.215  14.007  0.00  0.00    +0.000 A 
ATOM     17  C   UNL     1     -17.871   5.582  13.496  0.00  0.00    +0.000 A 
ATOM     18  C   UNL     1     -17.729   3.867  15.171  0.00  0.00    +0.000 A 
ATOM     19  C   UNL     1     -16.098   5.649  15.115  0.00  0.00    +0.000 A 
ATOM     20  C   UNL     1     -16.595   4.481  15.693  0.00  0.00    +0.000 A 
BRANCH  16  24
ATOM     21  F   UNL     1     -14.952   7.372  12.919  0.00  0.00    +0.000 F 
ATOM     22  F   UNL     1     -16.966   7.801  12.244  0.00  0.00    +0.000 F 
ATOM     23  F   UNL     1     -16.272   8.548  14.173  0.00  0.00    +0.000 F 
ATOM     24  C   UNL     1     -16.244   7.466  13.348  0.00  0.00    +0.000 C 
ENDBRANCH  16  24
ENDBRANCH   9  15
ENDBRANCH   2  10
BRANCH   3  25
ATOM     25  O   UNL     1     -22.319  -1.702   8.829  0.00  0.00    +0.000 OA
BRANCH  25  27
ATOM     26  N   UNL     1     -20.514  -5.460   8.991  0.00  0.00    +0.000 NA
ATOM     27  C   UNL     1     -21.721  -2.935   8.961  0.00  0.00    +0.000 A 
ATOM     28  C   UNL     1     -22.064  -3.850   9.952  0.00  0.00    +0.000 A 
ATOM     29  C   UNL     1     -21.430  -5.080   9.926  0.00  0.00    +0.000 A 
ATOM     30  C   UNL     1     -20.808  -3.285   7.971  0.00  0.00    +0.000 A 
ATOM     31  C   UNL     1     -20.234  -4.544   8.035  0.00  0.00    +0.000 A 
BRANCH  29  34
ATOM     32  O   UNL     1     -22.261  -7.149  10.692  0.00  0.00    +0.000 OA
ATOM     33  N   UNL     1     -21.377  -5.642  12.246  0.00  0.00    +0.000 N 
ATOM     34  C   UNL     1     -21.738  -6.078  10.983  0.00  0.00    +0.000 C 
ATOM     35  C   UNL     1     -21.490  -6.264  13.538  0.00  0.00    +0.000 C 
ATOM     36  H   UNL     1     -20.958  -4.713  12.266  0.00  0.00    +0.000 HD
ENDBRANCH  29  34
ENDBRANCH  25  27
ENDBRANCH   3  25
TORSDOF 6
ENDMDL
MODEL 2
REMARK VINA RESULT:      -7.0      2.031      2.480
REMARK  Name = 11167602_Regorafenib.pdbqt.pdb
REMARK  6 active torsions:
REMARK  status: ('A' for Active; 'I' for Inactive)
REMARK    1  A    between atoms: C_2  and  N_10
REMARK    2  A    between atoms: C_3  and  O_25
REMARK    3  A    between atoms: N_9  and  C_15
REMARK    4  A    between atoms: C_16  and  C_24
REMARK    5  A    between atoms: O_25  and  C_27
REMARK    6  A    between atoms: C_29  and  C_34
REMARK                            x       y       z     vdW  Elec       q    Type
REMARK                         _______ _______ _______ _____ _____    ______ ____
ROOT
ATOM      1  F   UNL     1     -19.983   2.455   9.637  0.00  0.00    +0.000 F 
ATOM      2  C   UNL     1     -21.372   1.842  11.452  0.00  0.00    +0.000 A 
ATOM      3  C   UNL     1     -22.282  -0.327   9.943  0.00  0.00    +0.000 A 
ATOM      4  C   UNL     1     -20.895   1.619  10.157  0.00  0.00    +0.000 A 
ATOM      5  C   UNL     1     -22.330   0.973  11.973  0.00  0.00    +0.000 A 
ATOM      6  C   UNL     1     -21.350   0.551   9.391  0.00  0.00    +0.000 A 
ATOM      7  C   UNL     1     -22.795  -0.103  11.218  0.00  0.00    +0.000 A 
ENDROOT
BRANCH   2  10
ATOM      8  O   UNL     1     -18.791   2.096  12.758  0.00  0.00    +0.000 OA
ATOM      9  N   UNL     1     -19.412   4.236  13.373  0.00  0.00    +0.000 N 
ATOM     10  N   UNL     1     -20.859   2.940  12.175  0.00  0.00    +0.000 N 
ATOM     11  C   UNL     1     -19.609   3.005  12.767  0.00  0.00    +0.000 C 
ATOM     12  H   UNL     1     -20.146   4.924  13.293  0.00  0.00    +0.000 HD
ATOM     13  H   UNL     1     -21.481   3.731  12.268  0.00  0.00    +0.000 HD
BRANCH   9  15
ATOM     14 CL   UNL     1     -14.571   5.780  16.413  0.00  0.00    +0.000 Cl
ATOM     15  C   UNL     1     -18.255   4.626  14.072  0.00  0.00    +0.000 A 
ATOM     16  C   UNL     1     -16.840   4.298  16.032  0.00  0.00    +0.000 A 
ATOM     17  C   UNL     1     -17.970   3.974  15.272  0.00  0.00    +0.000 A 
ATOM     18  C   UNL     1     -17.393   5.621  13.622  0.00  0.00    +0.000 A 
ATOM     19  C   UNL     1     -15.989   5.300  15.562  0.00  0.00    +0.000 A 
ATOM     20  C   UNL     1     -16.265   5.957  14.364  0.00  0.00    +0.000 A 
BRANCH  16  24
ATOM     21  F   UNL     1     -16.161   4.370  18.317  0.00  0.00    +0.000 F 
ATOM     22  F   UNL     1     -17.708   2.947  17.792  0.00  0.00    +0.000 F 
ATOM     23  F   UNL     1     -15.641   2.593  17.190  0.00  0.00    +0.000 F 
ATOM     24  C   UNL     1     -16.593   3.559  17.309  0.00  0.00    +0.000 C 
ENDBRANCH  16  24
ENDBRANCH   9  15
ENDBRANCH   2  10
BRANCH   3  25
ATOM     25  O   UNL     1     -22.831  -1.359   9.217  0.00  0.00    +0.000 OA
BRANCH  25  27
ATOM     26  N   UNL     1     -20.706  -4.912   8.698  0.00  0.00    +0.000 NA
ATOM     27  C   UNL     1     -22.115  -2.531   9.124  0.00  0.00    +0.000 A 
ATOM     28  C   UNL     1     -22.211  -3.562  10.053  0.00  0.00    +0.000 A 
ATOM     29  C   UNL     1     -21.485  -4.714   9.799  0.00  0.00    +0.000 A 
ATOM     30  C   UNL     1     -21.351  -2.694   7.973  0.00  0.00    +0.000 A 
ATOM     31  C   UNL     1     -20.667  -3.889   7.813  0.00  0.00    +0.000 A 
BRANCH  29  34
ATOM     32  O   UNL     1     -21.650  -6.989  10.396  0.00  0.00    +0.000 OA
ATOM     33  N   UNL     1     -21.424  -5.391  12.088  0.00  0.00    +0.000 N 
ATOM     34  C   UNL     1     -21.529  -5.830  10.779  0.00  0.00    +0.000 C 
ATOM     35  C   UNL     1     -21.424  -6.106  13.335  0.00  0.00    +0.000 C 
ATOM     36  H   UNL     1     -21.334  -4.381  12.186  0.00  0.00    +0.000 HD
ENDBRANCH  29  34
ENDBRANCH  25  27
ENDBRANCH   3  25
TORSDOF 6
ENDMDL
MODEL 3
REMARK VINA RESULT:      -6.6     17.319     19.768
REMARK  Name = 11167602_Regorafenib.pdbqt.pdb
REMARK  6 active torsions:
REMARK  status: ('A' for Active; 'I' for Inactive)
REMARK    1  A    between atoms: C_2  and  N_10
REMARK    2  A    between atoms: C_3  and  O_25
REMARK    3  A    between atoms: N_9  and  C_15
REMARK    4  A    between atoms: C_16  and  C_24
REMARK    5  A    between atoms: O_25  and  C_27
REMARK    6  A    between atoms: C_29  and  C_34
REMARK                            x       y       z     vdW  Elec       q    Type
REMARK                         _______ _______ _______ _____ _____    ______ ____
ROOT
ATOM      1  F   UNL     1     -13.609  -6.898  27.185  0.00  0.00    +0.000 F 
ATOM      2  C   UNL     1     -12.688  -8.600  25.823  0.00  0.00    +0.000 A 
ATOM      3  C   UNL     1     -12.459 -10.209  28.097  0.00  0.00    +0.000 A 
ATOM      4  C   UNL     1     -13.095  -8.133  27.076  0.00  0.00    +0.000 A 
ATOM      5  C   UNL     1     -12.143  -9.880  25.729  0.00  0.00    +0.000 A 
ATOM      6  C   UNL     1     -12.974  -8.919  28.217  0.00  0.00    +0.000 A 
ATOM      7  C   UNL     1     -12.015 -10.681  26.863  0.00  0.00    +0.000 A 
ENDROOT
BRANCH   2  10
ATOM      8  O   UNL     1     -10.959  -6.443  24.930  0.00  0.00    +0.000 OA
ATOM      9  N   UNL     1     -12.420  -6.123  23.168  0.00  0.00    +0.000 N 
ATOM     10  N   UNL     1     -12.849  -7.752  24.707  0.00  0.00    +0.000 N 
ATOM     11  C   UNL     1     -11.979  -6.744  24.325  0.00  0.00    +0.000 C 
ATOM     12  H   UNL     1     -13.262  -6.473  22.735  0.00  0.00    +0.000 HD
ATOM     13  H   UNL     1     -13.686  -7.902  24.162  0.00  0.00    +0.000 HD
BRANCH   9  15
ATOM     14 CL   UNL     1      -9.628  -1.716  20.365  0.00  0.00    +0.000 Cl
ATOM     15  C   UNL     1     -11.776  -5.053  22.519  0.00  0.00    +0.000 A 
ATOM     16  C   UNL     1     -10.075  -4.360  20.913  0.00  0.00    +0.000 A 
ATOM     17  C   UNL     1     -10.768  -5.361  21.604  0.00  0.00    +0.000 A 
ATOM     18  C   UNL     1     -12.097  -3.719  22.747  0.00  0.00    +0.000 A 
ATOM     19  C   UNL     1     -10.413  -3.028  21.157  0.00  0.00    +0.000 A 
ATOM     20  C   UNL     1     -11.419  -2.710  22.070  0.00  0.00    +0.000 A 
BRANCH  16  24
ATOM     21  F   UNL     1      -8.953  -6.108  19.739  0.00  0.00    +0.000 F 
ATOM     22  F   UNL     1      -9.178  -4.214  18.710  0.00  0.00    +0.000 F 
ATOM     23  F   UNL     1      -7.758  -4.408  20.354  0.00  0.00    +0.000 F 
ATOM     24  C   UNL     1      -9.007  -4.760  19.944  0.00  0.00    +0.000 C 
ENDBRANCH  16  24
ENDBRANCH   9  15
ENDBRANCH   2  10
BRANCH   3  25
ATOM     25  O   UNL     1     -12.240 -11.013  29.192  0.00  0.00    +0.000 OA
BRANCH  25  27
ATOM     26  N   UNL     1      -8.305 -12.267  29.779  0.00  0.00    +0.000 NA
ATOM     27  C   UNL     1     -10.968 -11.502  29.387  0.00  0.00    +0.000 A 
ATOM     28  C   UNL     1     -10.478 -12.637  28.750  0.00  0.00    +0.000 A 
ATOM     29  C   UNL     1      -9.157 -12.977  28.987  0.00  0.00    +0.000 A 
ATOM     30  C   UNL     1     -10.130 -10.731  30.187  0.00  0.00    +0.000 A 
ATOM     31  C   UNL     1      -8.822 -11.157  30.355  0.00  0.00    +0.000 A 
BRANCH  29  34
ATOM     32  O   UNL     1      -7.714 -14.114  27.508  0.00  0.00    +0.000 OA
ATOM     33  N   UNL     1      -9.186 -15.359  28.831  0.00  0.00    +0.000 N 
ATOM     34  C   UNL     1      -8.598 -14.200  28.355  0.00  0.00    +0.000 C 
ATOM     35  C   UNL     1      -8.966 -16.742  28.507  0.00  0.00    +0.000 C 
ATOM     36  H   UNL     1      -9.908 -15.205  29.534  0.00  0.00    +0.000 HD
ENDBRANCH  29  34
ENDBRANCH  25  27
ENDBRANCH   3  25
TORSDOF 6
ENDMDL
MODEL 4
REMARK VINA RESULT:      -6.5     17.628     20.100
REMARK  Name = 11167602_Regorafenib.pdbqt.pdb
REMARK  6 active torsions:
REMARK  status: ('A' for Active; 'I' for Inactive)
REMARK    1  A    between atoms: C_2  and  N_10
REMARK    2  A    between atoms: C_3  and  O_25
REMARK    3  A    between atoms: N_9  and  C_15
REMARK    4  A    between atoms: C_16  and  C_24
REMARK    5  A    between atoms: O_25  and  C_27
REMARK    6  A    between atoms: C_29  and  C_34
REMARK                            x       y       z     vdW  Elec       q    Type
REMARK                         _______ _______ _______ _____ _____    ______ ____
ROOT
ATOM      1  F   UNL     1     -14.092  -7.194  27.095  0.00  0.00    +0.000 F 
ATOM      2  C   UNL     1     -12.727  -8.715  25.901  0.00  0.00    +0.000 A 
ATOM      3  C   UNL     1     -12.566 -10.285  28.209  0.00  0.00    +0.000 A 
ATOM      4  C   UNL     1     -13.377  -8.330  27.078  0.00  0.00    +0.000 A 
ATOM      5  C   UNL     1     -11.977  -9.890  25.904  0.00  0.00    +0.000 A 
ATOM      6  C   UNL     1     -13.293  -9.095  28.236  0.00  0.00    +0.000 A 
ATOM      7  C   UNL     1     -11.884 -10.669  27.057  0.00  0.00    +0.000 A 
ENDROOT
BRANCH   2  10
ATOM      8  O   UNL     1     -11.075  -6.470  25.085  0.00  0.00    +0.000 OA
ATOM      9  N   UNL     1     -12.431  -6.266  23.223  0.00  0.00    +0.000 N 
ATOM     10  N   UNL     1     -12.864  -7.895  24.761  0.00  0.00    +0.000 N 
ATOM     11  C   UNL     1     -12.032  -6.842  24.419  0.00  0.00    +0.000 C 
ATOM     12  H   UNL     1     -13.219  -6.674  22.742  0.00  0.00    +0.000 HD
ATOM     13  H   UNL     1     -13.652  -8.104  24.164  0.00  0.00    +0.000 HD
BRANCH   9  15
ATOM     14 CL   UNL     1      -9.730  -1.740  20.525  0.00  0.00    +0.000 Cl
ATOM     15  C   UNL     1     -11.809  -5.169  22.598  0.00  0.00    +0.000 A 
ATOM     16  C   UNL     1     -10.089  -4.402  21.047  0.00  0.00    +0.000 A 
ATOM     17  C   UNL     1     -10.763  -5.432  21.713  0.00  0.00    +0.000 A 
ATOM     18  C   UNL     1     -12.189  -3.849  22.822  0.00  0.00    +0.000 A 
ATOM     19  C   UNL     1     -10.486  -3.085  21.287  0.00  0.00    +0.000 A 
ATOM     20  C   UNL     1     -11.530  -2.811  22.170  0.00  0.00    +0.000 A 
BRANCH  16  24
ATOM     21  F   UNL     1      -8.958  -6.079  19.785  0.00  0.00    +0.000 F 
ATOM     22  F   UNL     1      -9.054  -4.093  18.923  0.00  0.00    +0.000 F 
ATOM     23  F   UNL     1      -7.745  -4.491  20.623  0.00  0.00    +0.000 F 
ATOM     24  C   UNL     1      -8.978  -4.754  20.110  0.00  0.00    +0.000 C 
ENDBRANCH  16  24
ENDBRANCH   9  15
ENDBRANCH   2  10
BRANCH   3  25
ATOM     25  O   UNL     1     -12.378 -11.051  29.335  0.00  0.00    +0.000 OA
BRANCH  25  27
ATOM     26  N   UNL     1      -8.608 -12.550  30.307  0.00  0.00    +0.000 NA
ATOM     27  C   UNL     1     -11.102 -11.490  29.609  0.00  0.00    +0.000 A 
ATOM     28  C   UNL     1     -10.028 -10.634  29.824  0.00  0.00    +0.000 A 
ATOM     29  C   UNL     1      -8.814 -11.211  30.157  0.00  0.00    +0.000 A 
ATOM     30  C   UNL     1     -10.947 -12.863  29.772  0.00  0.00    +0.000 A 
ATOM     31  C   UNL     1      -9.690 -13.337  30.112  0.00  0.00    +0.000 A 
BRANCH  29  34
ATOM     32  O   UNL     1      -7.547  -9.256  29.793  0.00  0.00    +0.000 OA
ATOM     33  N   UNL     1      -6.704 -10.897  31.230  0.00  0.00    +0.000 N 
ATOM     34  C   UNL     1      -7.629 -10.339  30.364  0.00  0.00    +0.000 C 
ATOM     35  C   UNL     1      -5.434 -10.419  31.705  0.00  0.00    +0.000 C 
ATOM     36  H   UNL     1      -6.967 -11.812  31.592  0.00  0.00    +0.000 HD
ENDBRANCH  29  34
ENDBRANCH  25  27
ENDBRANCH   3  25
TORSDOF 6
ENDMDL
MODEL 5
REMARK VINA RESULT:      -6.4     18.322     21.521
REMARK  Name = 11167602_Regorafenib.pdbqt.pdb
REMARK  6 active torsions:
REMARK  status: ('A' for Active; 'I' for Inactive)
REMARK    1  A    between atoms: C_2  and  N_10
REMARK    2  A    between atoms: C_3  and  O_25
REMARK    3  A    between atoms: N_9  and  C_15
REMARK    4  A    between atoms: C_16  and  C_24
REMARK    5  A    between atoms: O_25  and  C_27
REMARK    6  A    between atoms: C_29  and  C_34
REMARK                            x       y       z     vdW  Elec       q    Type
REMARK                         _______ _______ _______ _____ _____    ______ ____
ROOT
ATOM      1  F   UNL     1       0.402   2.726   4.439  0.00  0.00    +0.000 F 
ATOM      2  C   UNL     1      -0.871   1.017   5.469  0.00  0.00    +0.000 A 
ATOM      3  C   UNL     1      -0.923   2.550   7.805  0.00  0.00    +0.000 A 
ATOM      4  C   UNL     1      -0.235   2.261   5.524  0.00  0.00    +0.000 A 
ATOM      5  C   UNL     1      -1.516   0.542   6.609  0.00  0.00    +0.000 A 
ATOM      6  C   UNL     1      -0.243   3.027   6.685  0.00  0.00    +0.000 A 
ATOM      7  C   UNL     1      -1.533   1.298   7.780  0.00  0.00    +0.000 A 
ENDROOT
BRANCH   2  10
ATOM      8  O   UNL     1      -0.381  -1.817   5.064  0.00  0.00    +0.000 OA
ATOM      9  N   UNL     1      -0.659  -1.450   2.798  0.00  0.00    +0.000 N 
ATOM     10  N   UNL     1      -0.831   0.299   4.255  0.00  0.00    +0.000 N 
ATOM     11  C   UNL     1      -0.603  -1.061   4.128  0.00  0.00    +0.000 C 
ATOM     12  H   UNL     1      -0.880  -0.746   2.110  0.00  0.00    +0.000 HD
ATOM     13  H   UNL     1      -0.970   0.847   3.418  0.00  0.00    +0.000 HD
BRANCH   9  15
ATOM     14 CL   UNL     1       0.029  -6.980   0.796  0.00  0.00    +0.000 Cl
ATOM     15  C   UNL     1      -0.462  -2.759   2.322  0.00  0.00    +0.000 A 
ATOM     16  C   UNL     1      -1.486  -4.878   1.678  0.00  0.00    +0.000 A 
ATOM     17  C   UNL     1      -1.589  -3.564   2.149  0.00  0.00    +0.000 A 
ATOM     18  C   UNL     1       0.792  -3.278   2.018  0.00  0.00    +0.000 A 
ATOM     19  C   UNL     1      -0.217  -5.379   1.380  0.00  0.00    +0.000 A 
ATOM     20  C   UNL     1       0.915  -4.583   1.550  0.00  0.00    +0.000 A 
BRANCH  16  24
ATOM     21  F   UNL     1      -3.051  -5.915   0.208  0.00  0.00    +0.000 F 
ATOM     22  F   UNL     1      -2.649  -6.918   2.086  0.00  0.00    +0.000 F 
ATOM     23  F   UNL     1      -3.831  -5.085   2.051  0.00  0.00    +0.000 F 
ATOM     24  C   UNL     1      -2.734  -5.686   1.515  0.00  0.00    +0.000 C 
ENDBRANCH  16  24
ENDBRANCH   9  15
ENDBRANCH   2  10
BRANCH   3  25
ATOM     25  O   UNL     1      -0.908   3.218   9.008  0.00  0.00    +0.000 OA
BRANCH  25  27
ATOM     26  N   UNL     1      -4.522   4.671  10.505  0.00  0.00    +0.000 NA
ATOM     27  C   UNL     1      -2.091   3.762   9.456  0.00  0.00    +0.000 A 
ATOM     28  C   UNL     1      -3.000   4.408   8.624  0.00  0.00    +0.000 A 
ATOM     29  C   UNL     1      -4.182   4.847   9.196  0.00  0.00    +0.000 A 
ATOM     30  C   UNL     1      -2.402   3.538  10.793  0.00  0.00    +0.000 A 
ATOM     31  C   UNL     1      -3.615   4.013  11.265  0.00  0.00    +0.000 A 
BRANCH  29  34
ATOM     32  O   UNL     1      -4.817   6.524   7.665  0.00  0.00    +0.000 OA
ATOM     33  N   UNL     1      -6.447   5.053   8.469  0.00  0.00    +0.000 N 
ATOM     34  C   UNL     1      -5.169   5.573   8.356  0.00  0.00    +0.000 C 
ATOM     35  C   UNL     1      -7.690   5.434   7.855  0.00  0.00    +0.000 C 
ATOM     36  H   UNL     1      -6.522   4.260   9.105  0.00  0.00    +0.000 HD
ENDBRANCH  29  34
ENDBRANCH  25  27
ENDBRANCH   3  25
TORSDOF 6
ENDMDL
MODEL 6
REMARK VINA RESULT:      -6.3     26.048     27.781
REMARK  Name = 11167602_Regorafenib.pdbqt.pdb
REMARK  6 active torsions:
REMARK  status: ('A' for Active; 'I' for Inactive)
REMARK    1  A    between atoms: C_2  and  N_10
REMARK    2  A    between atoms: C_3  and  O_25
REMARK    3  A    between atoms: N_9  and  C_15
REMARK    4  A    between atoms: C_16  and  C_24
REMARK    5  A    between atoms: O_25  and  C_27
REMARK    6  A    between atoms: C_29  and  C_34
REMARK                            x       y       z     vdW  Elec       q    Type
REMARK                         _______ _______ _______ _____ _____    ______ ____
ROOT
ATOM      1  F   UNL     1       5.350 -15.411  13.879  0.00  0.00    +0.000 F 
ATOM      2  C   UNL     1       3.210 -15.514  12.873  0.00  0.00    +0.000 A 
ATOM      3  C   UNL     1       2.700 -17.837  14.342  0.00  0.00    +0.000 A 
ATOM      4  C   UNL     1       4.171 -16.037  13.743  0.00  0.00    +0.000 A 
ATOM      5  C   UNL     1       1.996 -16.184  12.733  0.00  0.00    +0.000 A 
ATOM      6  C   UNL     1       3.934 -17.200  14.469  0.00  0.00    +0.000 A 
ATOM      7  C   UNL     1       1.743 -17.350  13.454  0.00  0.00    +0.000 A 
ENDROOT
BRANCH   2  10
ATOM      8  O   UNL     1       3.524 -12.828  13.934  0.00  0.00    +0.000 OA
ATOM      9  N   UNL     1       3.991 -12.129  11.780  0.00  0.00    +0.000 N 
ATOM     10  N   UNL     1       3.515 -14.326  12.176  0.00  0.00    +0.000 N 
ATOM     11  C   UNL     1       3.665 -13.071  12.743  0.00  0.00    +0.000 C 
ATOM     12  H   UNL     1       4.110 -12.447  10.829  0.00  0.00    +0.000 HD
ATOM     13  H   UNL     1       3.615 -14.420  11.175  0.00  0.00    +0.000 HD
BRANCH   9  15
ATOM     14 CL   UNL     1       5.017  -6.388  12.805  0.00  0.00    +0.000 Cl
ATOM     15  C   UNL     1       4.202 -10.758  12.018  0.00  0.00    +0.000 A 
ATOM     16  C   UNL     1       5.790  -9.007  12.618  0.00  0.00    +0.000 A 
ATOM     17  C   UNL     1       5.490 -10.350  12.365  0.00  0.00    +0.000 A 
ATOM     18  C   UNL     1       3.194  -9.804  11.920  0.00  0.00    +0.000 A 
ATOM     19  C   UNL     1       4.764  -8.066  12.516  0.00  0.00    +0.000 A 
ATOM     20  C   UNL     1       3.473  -8.464  12.170  0.00  0.00    +0.000 A 
BRANCH  16  24
ATOM     21  F   UNL     1       7.285  -8.062  14.219  0.00  0.00    +0.000 F 
ATOM     22  F   UNL     1       8.032  -9.708  13.024  0.00  0.00    +0.000 F 
ATOM     23  F   UNL     1       7.749  -7.740  12.127  0.00  0.00    +0.000 F 
ATOM     24  C   UNL     1       7.193  -8.637  12.985  0.00  0.00    +0.000 C 
ENDBRANCH  16  24
ENDBRANCH   9  15
ENDBRANCH   2  10
BRANCH   3  25
ATOM     25  O   UNL     1       2.426 -19.029  14.970  0.00  0.00    +0.000 OA
BRANCH  25  27
ATOM     26  N   UNL     1      -0.775 -19.169  17.643  0.00  0.00    +0.000 NA
ATOM     27  C   UNL     1       1.321 -19.084  15.790  0.00  0.00    +0.000 A 
ATOM     28  C   UNL     1       0.265 -19.967  15.593  0.00  0.00    +0.000 A 
ATOM     29  C   UNL     1      -0.751 -19.962  16.535  0.00  0.00    +0.000 A 
ATOM     30  C   UNL     1       1.353 -18.271  16.919  0.00  0.00    +0.000 A 
ATOM     31  C   UNL     1       0.288 -18.347  17.802  0.00  0.00    +0.000 A 
BRANCH  29  34
ATOM     32  O   UNL     1      -1.782 -21.946  15.787  0.00  0.00    +0.000 OA
ATOM     33  N   UNL     1      -3.086 -20.333  16.867  0.00  0.00    +0.000 N 
ATOM     34  C   UNL     1      -1.917 -20.864  16.350  0.00  0.00    +0.000 C 
ATOM     35  C   UNL     1      -4.429 -20.845  16.907  0.00  0.00    +0.000 C 
ATOM     36  H   UNL     1      -2.977 -19.413  17.292  0.00  0.00    +0.000 HD
ENDBRANCH  29  34
ENDBRANCH  25  27
ENDBRANCH   3  25
TORSDOF 6
ENDMDL
MODEL 7
REMARK VINA RESULT:      -6.3     26.256     28.042
REMARK  Name = 11167602_Regorafenib.pdbqt.pdb
REMARK  6 active torsions:
REMARK  status: ('A' for Active; 'I' for Inactive)
REMARK    1  A    between atoms: C_2  and  N_10
REMARK    2  A    between atoms: C_3  and  O_25
REMARK    3  A    between atoms: N_9  and  C_15
REMARK    4  A    between atoms: C_16  and  C_24
REMARK    5  A    between atoms: O_25  and  C_27
REMARK    6  A    between atoms: C_29  and  C_34
REMARK                            x       y       z     vdW  Elec       q    Type
REMARK                         _______ _______ _______ _____ _____    ______ ____
ROOT
ATOM      1  F   UNL     1       5.864 -17.276  14.382  0.00  0.00    +0.000 F 
ATOM      2  C   UNL     1       3.736 -16.262  14.182  0.00  0.00    +0.000 A 
ATOM      3  C   UNL     1       2.681 -18.305  15.770  0.00  0.00    +0.000 A 
ATOM      4  C   UNL     1       4.554 -17.283  14.673  0.00  0.00    +0.000 A 
ATOM      5  C   UNL     1       2.374 -16.291  14.481  0.00  0.00    +0.000 A 
ATOM      6  C   UNL     1       4.039 -18.313  15.453  0.00  0.00    +0.000 A 
ATOM      7  C   UNL     1       1.842 -17.316  15.262  0.00  0.00    +0.000 A 
ENDROOT
BRANCH   2  10
ATOM      8  O   UNL     1       3.451 -13.384  14.455  0.00  0.00    +0.000 OA
ATOM      9  N   UNL     1       4.907 -13.161  12.674  0.00  0.00    +0.000 N 
ATOM     10  N   UNL     1       4.328 -15.244  13.404  0.00  0.00    +0.000 N 
ATOM     11  C   UNL     1       4.162 -13.882  13.593  0.00  0.00    +0.000 C 
ATOM     12  H   UNL     1       5.483 -13.677  12.024  0.00  0.00    +0.000 HD
ATOM     13  H   UNL     1       4.909 -15.560  12.640  0.00  0.00    +0.000 HD
BRANCH   9  15
ATOM     14 CL   UNL     1       4.976  -7.255  12.250  0.00  0.00    +0.000 Cl
ATOM     15  C   UNL     1       4.956 -11.757  12.583  0.00  0.00    +0.000 A 
ATOM     16  C   UNL     1       3.765  -9.700  12.035  0.00  0.00    +0.000 A 
ATOM     17  C   UNL     1       3.806 -11.094  12.154  0.00  0.00    +0.000 A 
ATOM     18  C   UNL     1       6.087 -11.013  12.901  0.00  0.00    +0.000 A 
ATOM     19  C   UNL     1       4.912  -8.972  12.358  0.00  0.00    +0.000 A 
ATOM     20  C   UNL     1       6.066  -9.626  12.788  0.00  0.00    +0.000 A 
BRANCH  16  24
ATOM     21  F   UNL     1       1.477  -9.941  11.408  0.00  0.00    +0.000 F 
ATOM     22  F   UNL     1       2.030  -8.117  12.440  0.00  0.00    +0.000 F 
ATOM     23  F   UNL     1       2.630  -8.431  10.366  0.00  0.00    +0.000 F 
ATOM     24  C   UNL     1       2.499  -9.052  11.570  0.00  0.00    +0.000 C 
ENDBRANCH  16  24
ENDBRANCH   9  15
ENDBRANCH   2  10
BRANCH   3  25
ATOM     25  O   UNL     1       2.090 -19.330  16.473  0.00  0.00    +0.000 OA
BRANCH  25  27
ATOM     26  N   UNL     1      -1.353 -21.210  15.050  0.00  0.00    +0.000 NA
ATOM     27  C   UNL     1       0.965 -19.914  15.933  0.00  0.00    +0.000 A 
ATOM     28  C   UNL     1       0.910 -20.414  14.637  0.00  0.00    +0.000 A 
ATOM     29  C   UNL     1      -0.264 -21.037  14.247  0.00  0.00    +0.000 A 
ATOM     30  C   UNL     1      -0.111 -20.086  16.798  0.00  0.00    +0.000 A 
ATOM     31  C   UNL     1      -1.238 -20.729  16.309  0.00  0.00    +0.000 A 
BRANCH  29  34
ATOM     32  O   UNL     1       0.364 -21.151  11.978  0.00  0.00    +0.000 OA
ATOM     33  N   UNL     1      -1.394 -22.495  12.732  0.00  0.00    +0.000 N 
ATOM     34  C   UNL     1      -0.384 -21.558  12.861  0.00  0.00    +0.000 C 
ATOM     35  C   UNL     1      -1.860 -23.244  11.596  0.00  0.00    +0.000 C 
ATOM     36  H   UNL     1      -1.901 -22.687  13.595  0.00  0.00    +0.000 HD
ENDBRANCH  29  34
ENDBRANCH  25  27
ENDBRANCH   3  25
TORSDOF 6
ENDMDL
MODEL 8
REMARK VINA RESULT:      -6.2     24.166     25.808
REMARK  Name = 11167602_Regorafenib.pdbqt.pdb
REMARK  6 active torsions:
REMARK  status: ('A' for Active; 'I' for Inactive)
REMARK    1  A    between atoms: C_2  and  N_10
REMARK    2  A    between atoms: C_3  and  O_25
REMARK    3  A    between atoms: N_9  and  C_15
REMARK    4  A    between atoms: C_16  and  C_24
REMARK    5  A    between atoms: O_25  and  C_27
REMARK    6  A    between atoms: C_29  and  C_34
REMARK                            x       y       z     vdW  Elec       q    Type
REMARK                         _______ _______ _______ _____ _____    ______ ____
ROOT
ATOM      1  F   UNL     1       2.662 -12.767  23.157  0.00  0.00    +0.000 F 
ATOM      2  C   UNL     1       1.281 -11.533  21.685  0.00  0.00    +0.000 A 
ATOM      3  C   UNL     1      -0.019 -13.913  21.008  0.00  0.00    +0.000 A 
ATOM      4  C   UNL     1       1.663 -12.747  22.262  0.00  0.00    +0.000 A 
ATOM      5  C   UNL     1       0.251 -11.531  20.746  0.00  0.00    +0.000 A 
ATOM      6  C   UNL     1       1.033 -13.940  21.923  0.00  0.00    +0.000 A 
ATOM      7  C   UNL     1      -0.391 -12.718  20.396  0.00  0.00    +0.000 A 
ENDROOT
BRANCH   2  10
ATOM      8  O   UNL     1       2.947  -9.778  20.078  0.00  0.00    +0.000 OA
ATOM      9  N   UNL     1       3.229  -8.468  21.963  0.00  0.00    +0.000 N 
ATOM     10  N   UNL     1       1.958 -10.360  22.082  0.00  0.00    +0.000 N 
ATOM     11  C   UNL     1       2.731  -9.556  21.262  0.00  0.00    +0.000 C 
ATOM     12  H   UNL     1       2.962  -8.368  22.931  0.00  0.00    +0.000 HD
ATOM     13  H   UNL     1       1.867 -10.113  23.058  0.00  0.00    +0.000 HD
BRANCH   9  15
ATOM     14 CL   UNL     1       6.605  -4.158  19.707  0.00  0.00    +0.000 Cl
ATOM     15  C   UNL     1       4.058  -7.464  21.430  0.00  0.00    +0.000 A 
ATOM     16  C   UNL     1       4.207  -5.215  20.496  0.00  0.00    +0.000 A 
ATOM     17  C   UNL     1       3.458  -6.268  21.035  0.00  0.00    +0.000 A 
ATOM     18  C   UNL     1       5.434  -7.611  21.284  0.00  0.00    +0.000 A 
ATOM     19  C   UNL     1       5.586  -5.384  20.357  0.00  0.00    +0.000 A 
ATOM     20  C   UNL     1       6.195  -6.576  20.749  0.00  0.00    +0.000 A 
BRANCH  16  24
ATOM     21  F   UNL     1       2.158  -4.006  20.330  0.00  0.00    +0.000 F 
ATOM     22  F   UNL     1       3.947  -2.862  20.764  0.00  0.00    +0.000 F 
ATOM     23  F   UNL     1       3.624  -3.680  18.768  0.00  0.00    +0.000 F 
ATOM     24  C   UNL     1       3.501  -3.959  20.094  0.00  0.00    +0.000 C 
ENDBRANCH  16  24
ENDBRANCH   9  15
ENDBRANCH   2  10
BRANCH   3  25
ATOM     25  O   UNL     1      -0.636 -15.062  20.571  0.00  0.00    +0.000 OA
BRANCH  25  27
ATOM     26  N   UNL     1      -4.597 -15.634  21.748  0.00  0.00    +0.000 NA
ATOM     27  C   UNL     1      -1.918 -15.309  21.007  0.00  0.00    +0.000 A 
ATOM     28  C   UNL     1      -2.237 -15.575  22.335  0.00  0.00    +0.000 A 
ATOM     29  C   UNL     1      -3.576 -15.738  22.645  0.00  0.00    +0.000 A 
ATOM     30  C   UNL     1      -2.927 -15.170  20.059  0.00  0.00    +0.000 A 
ATOM     31  C   UNL     1      -4.237 -15.348  20.476  0.00  0.00    +0.000 A 
BRANCH  29  34
ATOM     32  O   UNL     1      -3.106 -16.197  24.910  0.00  0.00    +0.000 OA
ATOM     33  N   UNL     1      -5.334 -16.168  24.203  0.00  0.00    +0.000 N 
ATOM     34  C   UNL     1      -3.964 -16.058  24.044  0.00  0.00    +0.000 C 
ATOM     35  C   UNL     1      -6.139 -16.464  25.357  0.00  0.00    +0.000 C 
ATOM     36  H   UNL     1      -5.869 -16.018  23.348  0.00  0.00    +0.000 HD
ENDBRANCH  29  34
ENDBRANCH  25  27
ENDBRANCH   3  25
TORSDOF 6
ENDMDL
MODEL 9
REMARK VINA RESULT:      -6.1     16.364     19.722
REMARK  Name = 11167602_Regorafenib.pdbqt.pdb
REMARK  6 active torsions:
REMARK  status: ('A' for Active; 'I' for Inactive)
REMARK    1  A    between atoms: C_2  and  N_10
REMARK    2  A    between atoms: C_3  and  O_25
REMARK    3  A    between atoms: N_9  and  C_15
REMARK    4  A    between atoms: C_16  and  C_24
REMARK    5  A    between atoms: O_25  and  C_27
REMARK    6  A    between atoms: C_29  and  C_34
REMARK                            x       y       z     vdW  Elec       q    Type
REMARK                         _______ _______ _______ _____ _____    ______ ____
ROOT
ATOM      1  F   UNL     1      -0.447   4.933   9.179  0.00  0.00    +0.000 F 
ATOM      2  C   UNL     1      -1.958   3.172   9.644  0.00  0.00    +0.000 A 
ATOM      3  C   UNL     1      -3.851   5.080  10.411  0.00  0.00    +0.000 A 
ATOM      4  C   UNL     1      -1.658   4.536   9.600  0.00  0.00    +0.000 A 
ATOM      5  C   UNL     1      -3.215   2.775  10.098  0.00  0.00    +0.000 A 
ATOM      6  C   UNL     1      -2.587   5.495   9.992  0.00  0.00    +0.000 A 
ATOM      7  C   UNL     1      -4.157   3.724  10.493  0.00  0.00    +0.000 A 
ENDROOT
BRANCH   2  10
ATOM      8  O   UNL     1      -1.511   2.097   6.983  0.00  0.00    +0.000 OA
ATOM      9  N   UNL     1       0.279   0.923   7.855  0.00  0.00    +0.000 N 
ATOM     10  N   UNL     1      -0.971   2.256   9.222  0.00  0.00    +0.000 N 
ATOM     11  C   UNL     1      -0.801   1.788   7.930  0.00  0.00    +0.000 C 
ATOM     12  H   UNL     1       0.815   0.762   8.696  0.00  0.00    +0.000 HD
ATOM     13  H   UNL     1      -0.354   1.914   9.946  0.00  0.00    +0.000 HD
BRANCH   9  15
ATOM     14 CL   UNL     1       1.993  -1.871   2.924  0.00  0.00    +0.000 Cl
ATOM     15  C   UNL     1       0.719   0.264   6.692  0.00  0.00    +0.000 A 
ATOM     16  C   UNL     1       0.096  -0.931   4.658  0.00  0.00    +0.000 A 
ATOM     17  C   UNL     1      -0.251  -0.261   5.837  0.00  0.00    +0.000 A 
ATOM     18  C   UNL     1       2.062   0.118   6.361  0.00  0.00    +0.000 A 
ATOM     19  C   UNL     1       1.450  -1.067   4.346  0.00  0.00    +0.000 A 
ATOM     20  C   UNL     1       2.427  -0.546   5.194  0.00  0.00    +0.000 A 
BRANCH  16  24
ATOM     21  F   UNL     1      -2.241  -1.212   4.276  0.00  0.00    +0.000 F 
ATOM     22  F   UNL     1      -0.982  -0.937   2.533  0.00  0.00    +0.000 F 
ATOM     23  F   UNL     1      -0.937  -2.820   3.634  0.00  0.00    +0.000 F 
ATOM     24  C   UNL     1      -0.994  -1.469   3.786  0.00  0.00    +0.000 C 
ENDBRANCH  16  24
ENDBRANCH   9  15
ENDBRANCH   2  10
BRANCH   3  25
ATOM     25  O   UNL     1      -4.790   5.966  10.883  0.00  0.00    +0.000 OA
BRANCH  25  27
ATOM     26  N   UNL     1      -7.197   8.114   8.236  0.00  0.00    +0.000 NA
ATOM     27  C   UNL     1      -5.586   6.611   9.962  0.00  0.00    +0.000 A 
ATOM     28  C   UNL     1      -6.647   5.998   9.305  0.00  0.00    +0.000 A 
ATOM     29  C   UNL     1      -7.406   6.784   8.454  0.00  0.00    +0.000 A 
ATOM     30  C   UNL     1      -5.347   7.971   9.790  0.00  0.00    +0.000 A 
ATOM     31  C   UNL     1      -6.170   8.668   8.920  0.00  0.00    +0.000 A 
BRANCH  29  34
ATOM     32  O   UNL     1      -8.573   4.951   7.540  0.00  0.00    +0.000 OA
ATOM     33  N   UNL     1      -9.443   7.102   7.250  0.00  0.00    +0.000 N 
ATOM     34  C   UNL     1      -8.529   6.166   7.704  0.00  0.00    +0.000 C 
ATOM     35  C   UNL     1     -10.656   6.960   6.492  0.00  0.00    +0.000 C 
ATOM     36  H   UNL     1      -9.213   8.065   7.493  0.00  0.00    +0.000 HD
ENDBRANCH  29  34
ENDBRANCH  25  27
ENDBRANCH   3  25
TORSDOF 6
ENDMDL
