MODEL 1
REMARK VINA RESULT:      -6.5      0.000      0.000
REMARK  Name = 114778_Kahweol.pdbqt.pdb
REMARK  3 active torsions:
REMARK  status: ('A' for Active; 'I' for Inactive)
REMARK    1  A    between atoms: C_8  and  O_21
REMARK    2  A    between atoms: C_8  and  C_23
REMARK    3  A    between atoms: C_23  and  O_24
REMARK                            x       y       z     vdW  Elec       q    Type
REMARK                         _______ _______ _______ _____ _____    ______ ____
ROOT
ATOM      1  O   UNL     1      -8.576   1.722  21.485  0.00  0.00    +0.000 OA
ATOM      2  C   UNL     1     -10.800  -4.088  22.201  0.00  0.00    +0.000 C 
ATOM      3  C   UNL     1      -9.544  -3.404  22.898  0.00  0.00    +0.000 C 
ATOM      4  C   UNL     1     -10.995  -5.821  23.841  0.00  0.00    +0.000 C 
ATOM      5  C   UNL     1     -10.667  -5.552  22.431  0.00  0.00    +0.000 C 
ATOM      6  C   UNL     1     -11.981  -3.892  23.070  0.00  0.00    +0.000 C 
ATOM      7  C   UNL     1      -8.577  -2.501  22.125  0.00  0.00    +0.000 C 
ATOM      8  C   UNL     1     -12.306  -4.953  24.044  0.00  0.00    +0.000 C 
ATOM      9  C   UNL     1     -10.922  -3.594  20.854  0.00  0.00    +0.000 C 
ATOM     10  C   UNL     1      -9.171  -4.089  24.125  0.00  0.00    +0.000 C 
ATOM     11  C   UNL     1      -9.852  -5.370  24.623  0.00  0.00    +0.000 C 
ATOM     12  C   UNL     1      -9.186  -1.787  20.797  0.00  0.00    +0.000 C 
ATOM     13  C   UNL     1     -10.209  -2.497  20.129  0.00  0.00    +0.000 C 
ATOM     14  C   UNL     1      -7.357  -3.352  21.645  0.00  0.00    +0.000 C 
ATOM     15  C   UNL     1      -8.142  -1.383  23.007  0.00  0.00    +0.000 C 
ATOM     16  C   UNL     1      -9.085  -0.348  20.705  0.00  0.00    +0.000 A 
ATOM     17  C   UNL     1      -8.089  -0.189  22.918  0.00  0.00    +0.000 C 
ATOM     18  C   UNL     1      -8.554   0.405  21.731  0.00  0.00    +0.000 A 
ATOM     19  C   UNL     1      -9.475   0.591  19.730  0.00  0.00    +0.000 A 
ATOM     20  C   UNL     1      -9.138   1.839  20.238  0.00  0.00    +0.000 A 
ENDROOT
BRANCH   8  21
ATOM     21  O   UNL     1     -13.442  -5.670  23.595  0.00  0.00    +0.000 OA
ATOM     22  H   UNL     1     -14.202  -5.283  24.060  0.00  0.00    +0.000 HD
ENDBRANCH   8  21
BRANCH   8  23
ATOM     23  C   UNL     1     -12.521  -4.500  25.424  0.00  0.00    +0.000 C 
BRANCH  23  24
ATOM     24  O   UNL     1     -12.699  -4.083  26.679  0.00  0.00    +0.000 OA
ATOM     25  H   UNL     1     -13.576  -4.346  27.011  0.00  0.00    +0.000 HD
ENDBRANCH  23  24
ENDBRANCH   8  23
TORSDOF 3
ENDMDL
MODEL 2
REMARK VINA RESULT:      -6.4      3.095      6.153
REMARK  Name = 114778_Kahweol.pdbqt.pdb
REMARK  3 active torsions:
REMARK  status: ('A' for Active; 'I' for Inactive)
REMARK    1  A    between atoms: C_8  and  O_21
REMARK    2  A    between atoms: C_8  and  C_23
REMARK    3  A    between atoms: C_23  and  O_24
REMARK                            x       y       z     vdW  Elec       q    Type
REMARK                         _______ _______ _______ _____ _____    ______ ____
ROOT
ATOM      1  O   UNL     1      -9.374  -4.560  18.554  0.00  0.00    +0.000 OA
ATOM      2  C   UNL     1      -7.490  -0.129  22.559  0.00  0.00    +0.000 C 
ATOM      3  C   UNL     1      -7.608  -1.699  22.787  0.00  0.00    +0.000 C 
ATOM      4  C   UNL     1      -5.997   0.207  24.399  0.00  0.00    +0.000 C 
ATOM      5  C   UNL     1      -7.356   0.486  23.907  0.00  0.00    +0.000 C 
ATOM      6  C   UNL     1      -6.116   0.174  22.103  0.00  0.00    +0.000 C 
ATOM      7  C   UNL     1      -8.796  -2.510  22.257  0.00  0.00    +0.000 C 
ATOM      8  C   UNL     1      -5.113   0.536  23.125  0.00  0.00    +0.000 C 
ATOM      9  C   UNL     1      -8.551   0.305  21.687  0.00  0.00    +0.000 C 
ATOM     10  C   UNL     1      -6.784  -2.146  23.898  0.00  0.00    +0.000 C 
ATOM     11  C   UNL     1      -5.980  -1.194  24.794  0.00  0.00    +0.000 C 
ATOM     12  C   UNL     1      -9.575  -1.871  20.981  0.00  0.00    +0.000 C 
ATOM     13  C   UNL     1      -9.560  -0.461  20.892  0.00  0.00    +0.000 C 
ATOM     14  C   UNL     1      -9.861  -2.657  23.392  0.00  0.00    +0.000 C 
ATOM     15  C   UNL     1      -8.312  -3.841  21.795  0.00  0.00    +0.000 C 
ATOM     16  C   UNL     1      -9.722  -2.697  19.804  0.00  0.00    +0.000 A 
ATOM     17  C   UNL     1      -8.427  -4.499  20.800  0.00  0.00    +0.000 C 
ATOM     18  C   UNL     1      -9.167  -3.958  19.733  0.00  0.00    +0.000 A 
ATOM     19  C   UNL     1     -10.329  -2.498  18.548  0.00  0.00    +0.000 A 
ATOM     20  C   UNL     1     -10.105  -3.659  17.821  0.00  0.00    +0.000 A 
ENDROOT
BRANCH   8  21
ATOM     21  O   UNL     1      -4.854   1.927  23.055  0.00  0.00    +0.000 OA
ATOM     22  H   UNL     1      -3.895   2.026  23.184  0.00  0.00    +0.000 HD
ENDBRANCH   8  21
BRANCH   8  23
ATOM     23  C   UNL     1      -3.848  -0.207  23.061  0.00  0.00    +0.000 C 
BRANCH  23  24
ATOM     24  O   UNL     1      -2.696  -0.878  23.020  0.00  0.00    +0.000 OA
ATOM     25  H   UNL     1      -2.644  -1.523  23.748  0.00  0.00    +0.000 HD
ENDBRANCH  23  24
ENDBRANCH   8  23
TORSDOF 3
ENDMDL
MODEL 3
REMARK VINA RESULT:      -5.9      1.728      2.508
REMARK  Name = 114778_Kahweol.pdbqt.pdb
REMARK  3 active torsions:
REMARK  status: ('A' for Active; 'I' for Inactive)
REMARK    1  A    between atoms: C_8  and  O_21
REMARK    2  A    between atoms: C_8  and  C_23
REMARK    3  A    between atoms: C_23  and  O_24
REMARK                            x       y       z     vdW  Elec       q    Type
REMARK                         _______ _______ _______ _____ _____    ______ ____
ROOT
ATOM      1  O   UNL     1      -5.487  -0.755  22.623  0.00  0.00    +0.000 OA
ATOM      2  C   UNL     1     -11.360  -2.872  23.117  0.00  0.00    +0.000 C 
ATOM      3  C   UNL     1     -10.088  -3.590  22.487  0.00  0.00    +0.000 C 
ATOM      4  C   UNL     1     -12.591  -4.906  23.399  0.00  0.00    +0.000 C 
ATOM      5  C   UNL     1     -12.550  -3.636  22.654  0.00  0.00    +0.000 C 
ATOM      6  C   UNL     1     -11.459  -3.262  24.541  0.00  0.00    +0.000 C 
ATOM      7  C   UNL     1      -9.079  -2.835  21.613  0.00  0.00    +0.000 C 
ATOM      8  C   UNL     1     -12.302  -4.426  24.882  0.00  0.00    +0.000 C 
ATOM      9  C   UNL     1     -11.285  -1.458  22.857  0.00  0.00    +0.000 C 
ATOM     10  C   UNL     1     -10.259  -5.032  22.425  0.00  0.00    +0.000 C 
ATOM     11  C   UNL     1     -11.551  -5.751  22.830  0.00  0.00    +0.000 C 
ATOM     12  C   UNL     1      -9.000  -1.229  21.852  0.00  0.00    +0.000 C 
ATOM     13  C   UNL     1     -10.195  -0.610  22.283  0.00  0.00    +0.000 C 
ATOM     14  C   UNL     1      -9.454  -3.037  20.109  0.00  0.00    +0.000 C 
ATOM     15  C   UNL     1      -7.709  -3.342  21.901  0.00  0.00    +0.000 C 
ATOM     16  C   UNL     1      -7.707  -0.660  22.156  0.00  0.00    +0.000 A 
ATOM     17  C   UNL     1      -6.651  -2.851  22.176  0.00  0.00    +0.000 C 
ATOM     18  C   UNL     1      -6.588  -1.452  22.306  0.00  0.00    +0.000 A 
ATOM     19  C   UNL     1      -7.259   0.653  22.405  0.00  0.00    +0.000 A 
ATOM     20  C   UNL     1      -5.900   0.553  22.674  0.00  0.00    +0.000 A 
ENDROOT
BRANCH   8  21
ATOM     21  O   UNL     1     -13.499  -3.974  25.492  0.00  0.00    +0.000 OA
ATOM     22  H   UNL     1     -13.687  -4.606  26.206  0.00  0.00    +0.000 HD
ENDBRANCH   8  21
BRANCH   8  23
ATOM     23  C   UNL     1     -11.666  -5.441  25.731  0.00  0.00    +0.000 C 
BRANCH  23  24
ATOM     24  O   UNL     1     -11.089  -6.351  26.516  0.00  0.00    +0.000 OA
ATOM     25  H   UNL     1     -11.143  -6.087  27.452  0.00  0.00    +0.000 HD
ENDBRANCH  23  24
ENDBRANCH   8  23
TORSDOF 3
ENDMDL
MODEL 4
REMARK VINA RESULT:      -5.7      1.589      6.203
REMARK  Name = 114778_Kahweol.pdbqt.pdb
REMARK  3 active torsions:
REMARK  status: ('A' for Active; 'I' for Inactive)
REMARK    1  A    between atoms: C_8  and  O_21
REMARK    2  A    between atoms: C_8  and  C_23
REMARK    3  A    between atoms: C_23  and  O_24
REMARK                            x       y       z     vdW  Elec       q    Type
REMARK                         _______ _______ _______ _____ _____    ______ ____
ROOT
ATOM      1  O   UNL     1     -14.258  -4.397  25.553  0.00  0.00    +0.000 OA
ATOM      2  C   UNL     1      -8.485  -3.572  23.272  0.00  0.00    +0.000 C 
ATOM      3  C   UNL     1      -9.883  -3.173  22.625  0.00  0.00    +0.000 C 
ATOM      4  C   UNL     1      -7.219  -2.072  21.900  0.00  0.00    +0.000 C 
ATOM      5  C   UNL     1      -7.476  -3.495  22.181  0.00  0.00    +0.000 C 
ATOM      6  C   UNL     1      -7.981  -2.414  24.042  0.00  0.00    +0.000 C 
ATOM      7  C   UNL     1     -11.102  -4.101  22.690  0.00  0.00    +0.000 C 
ATOM      8  C   UNL     1      -7.072  -1.471  23.359  0.00  0.00    +0.000 C 
ATOM      9  C   UNL     1      -8.636  -4.799  24.009  0.00  0.00    +0.000 C 
ATOM     10  C   UNL     1      -9.733  -2.140  21.613  0.00  0.00    +0.000 C 
ATOM     11  C   UNL     1      -8.376  -1.582  21.165  0.00  0.00    +0.000 C 
ATOM     12  C   UNL     1     -11.113  -5.167  23.917  0.00  0.00    +0.000 C 
ATOM     13  C   UNL     1      -9.846  -5.599  24.371  0.00  0.00    +0.000 C 
ATOM     14  C   UNL     1     -11.174  -4.943  21.376  0.00  0.00    +0.000 C 
ATOM     15  C   UNL     1     -12.331  -3.279  22.873  0.00  0.00    +0.000 C 
ATOM     16  C   UNL     1     -12.266  -5.173  24.788  0.00  0.00    +0.000 A 
ATOM     17  C   UNL     1     -13.267  -3.288  23.621  0.00  0.00    +0.000 C 
ATOM     18  C   UNL     1     -13.293  -4.266  24.632  0.00  0.00    +0.000 A 
ATOM     19  C   UNL     1     -12.628  -5.940  25.914  0.00  0.00    +0.000 A 
ATOM     20  C   UNL     1     -13.852  -5.444  26.343  0.00  0.00    +0.000 A 
ENDROOT
BRANCH   8  21
ATOM     21  O   UNL     1      -5.752  -1.664  23.837  0.00  0.00    +0.000 OA
ATOM     22  H   UNL     1      -5.664  -1.090  24.615  0.00  0.00    +0.000 HD
ENDBRANCH   8  21
BRANCH   8  23
ATOM     23  C   UNL     1      -7.434  -0.053  23.467  0.00  0.00    +0.000 C 
BRANCH  23  24
ATOM     24  O   UNL     1      -7.766   1.237  23.546  0.00  0.00    +0.000 OA
ATOM     25  H   UNL     1      -8.089   1.458  24.437  0.00  0.00    +0.000 HD
ENDBRANCH  23  24
ENDBRANCH   8  23
TORSDOF 3
ENDMDL
MODEL 5
REMARK VINA RESULT:      -5.6     18.502     19.772
REMARK  Name = 114778_Kahweol.pdbqt.pdb
REMARK  3 active torsions:
REMARK  status: ('A' for Active; 'I' for Inactive)
REMARK    1  A    between atoms: C_8  and  O_21
REMARK    2  A    between atoms: C_8  and  C_23
REMARK    3  A    between atoms: C_23  and  O_24
REMARK                            x       y       z     vdW  Elec       q    Type
REMARK                         _______ _______ _______ _____ _____    ______ ____
ROOT
ATOM      1  O   UNL     1       6.503  -7.053  13.795  0.00  0.00    +0.000 OA
ATOM      2  C   UNL     1       3.974 -12.722  12.969  0.00  0.00    +0.000 C 
ATOM      3  C   UNL     1       5.506 -12.322  13.124  0.00  0.00    +0.000 C 
ATOM      4  C   UNL     1       4.331 -15.022  13.529  0.00  0.00    +0.000 C 
ATOM      5  C   UNL     1       3.949 -14.111  12.437  0.00  0.00    +0.000 C 
ATOM      6  C   UNL     1       3.440 -13.051  14.309  0.00  0.00    +0.000 C 
ATOM      7  C   UNL     1       6.095 -11.083  12.441  0.00  0.00    +0.000 C 
ATOM      8  C   UNL     1       3.469 -14.464  14.737  0.00  0.00    +0.000 C 
ATOM      9  C   UNL     1       3.282 -11.680  12.256  0.00  0.00    +0.000 C 
ATOM     10  C   UNL     1       6.319 -13.456  13.536  0.00  0.00    +0.000 C 
ATOM     11  C   UNL     1       5.769 -14.878  13.703  0.00  0.00    +0.000 C 
ATOM     12  C   UNL     1       5.038  -9.900  12.090  0.00  0.00    +0.000 C 
ATOM     13  C   UNL     1       3.713 -10.315  11.825  0.00  0.00    +0.000 C 
ATOM     14  C   UNL     1       6.745 -11.508  11.084  0.00  0.00    +0.000 C 
ATOM     15  C   UNL     1       7.098 -10.457  13.346  0.00  0.00    +0.000 C 
ATOM     16  C   UNL     1       5.325  -8.575  12.592  0.00  0.00    +0.000 A 
ATOM     17  C   UNL     1       7.304  -9.355  13.770  0.00  0.00    +0.000 C 
ATOM     18  C   UNL     1       6.418  -8.329  13.395  0.00  0.00    +0.000 A 
ATOM     19  C   UNL     1       4.668  -7.333  12.483  0.00  0.00    +0.000 A 
ATOM     20  C   UNL     1       5.422  -6.430  13.220  0.00  0.00    +0.000 A 
ENDROOT
BRANCH   8  21
ATOM     21  O   UNL     1       2.156 -14.995  14.689  0.00  0.00    +0.000 OA
ATOM     22  H   UNL     1       2.216 -15.802  14.150  0.00  0.00    +0.000 HD
ENDBRANCH   8  21
BRANCH   8  23
ATOM     23  C   UNL     1       4.055 -14.712  16.061  0.00  0.00    +0.000 C 
BRANCH  23  24
ATOM     24  O   UNL     1       4.586 -14.920  17.266  0.00  0.00    +0.000 OA
ATOM     25  H   UNL     1       5.454 -14.485  17.342  0.00  0.00    +0.000 HD
ENDBRANCH  23  24
ENDBRANCH   8  23
TORSDOF 3
ENDMDL
MODEL 6
REMARK VINA RESULT:      -5.4     19.984     22.489
REMARK  Name = 114778_Kahweol.pdbqt.pdb
REMARK  3 active torsions:
REMARK  status: ('A' for Active; 'I' for Inactive)
REMARK    1  A    between atoms: C_8  and  O_21
REMARK    2  A    between atoms: C_8  and  C_23
REMARK    3  A    between atoms: C_23  and  O_24
REMARK                            x       y       z     vdW  Elec       q    Type
REMARK                         _______ _______ _______ _____ _____    ______ ____
ROOT
ATOM      1  O   UNL     1       5.711 -20.499  12.117  0.00  0.00    +0.000 OA
ATOM      2  C   UNL     1       3.194 -14.856  13.138  0.00  0.00    +0.000 C 
ATOM      3  C   UNL     1       4.403 -15.564  13.892  0.00  0.00    +0.000 C 
ATOM      4  C   UNL     1       3.785 -12.657  13.875  0.00  0.00    +0.000 C 
ATOM      5  C   UNL     1       2.769 -13.716  13.995  0.00  0.00    +0.000 C 
ATOM      6  C   UNL     1       3.745 -14.037  12.037  0.00  0.00    +0.000 C 
ATOM      7  C   UNL     1       4.374 -17.052  14.257  0.00  0.00    +0.000 C 
ATOM      8  C   UNL     1       4.032 -12.614  12.310  0.00  0.00    +0.000 C 
ATOM      9  C   UNL     1       2.225 -15.851  12.757  0.00  0.00    +0.000 C 
ATOM     10  C   UNL     1       5.244 -14.600  14.583  0.00  0.00    +0.000 C 
ATOM     11  C   UNL     1       4.935 -13.099  14.650  0.00  0.00    +0.000 C 
ATOM     12  C   UNL     1       3.403 -17.984  13.345  0.00  0.00    +0.000 C 
ATOM     13  C   UNL     1       2.263 -17.346  12.805  0.00  0.00    +0.000 C 
ATOM     14  C   UNL     1       3.874 -17.207  15.730  0.00  0.00    +0.000 C 
ATOM     15  C   UNL     1       5.738 -17.623  14.087  0.00  0.00    +0.000 C 
ATOM     16  C   UNL     1       3.991 -19.139  12.705  0.00  0.00    +0.000 A 
ATOM     17  C   UNL     1       6.209 -18.574  13.529  0.00  0.00    +0.000 C 
ATOM     18  C   UNL     1       5.340 -19.410  12.804  0.00  0.00    +0.000 A 
ATOM     19  C   UNL     1       3.477 -20.155  11.876  0.00  0.00    +0.000 A 
ATOM     20  C   UNL     1       4.553 -20.969  11.548  0.00  0.00    +0.000 A 
ENDROOT
BRANCH   8  21
ATOM     21  O   UNL     1       3.050 -11.809  11.681  0.00  0.00    +0.000 OA
ATOM     22  H   UNL     1       3.395 -10.901  11.706  0.00  0.00    +0.000 HD
ENDBRANCH   8  21
BRANCH   8  23
ATOM     23  C   UNL     1       5.371 -12.153  11.923  0.00  0.00    +0.000 C 
BRANCH  23  24
ATOM     24  O   UNL     1       6.581 -11.728  11.556  0.00  0.00    +0.000 OA
ATOM     25  H   UNL     1       7.274 -12.139  12.102  0.00  0.00    +0.000 HD
ENDBRANCH  23  24
ENDBRANCH   8  23
TORSDOF 3
ENDMDL
MODEL 7
REMARK VINA RESULT:      -5.4     20.239     22.786
REMARK  Name = 114778_Kahweol.pdbqt.pdb
REMARK  3 active torsions:
REMARK  status: ('A' for Active; 'I' for Inactive)
REMARK    1  A    between atoms: C_8  and  O_21
REMARK    2  A    between atoms: C_8  and  C_23
REMARK    3  A    between atoms: C_23  and  O_24
REMARK                            x       y       z     vdW  Elec       q    Type
REMARK                         _______ _______ _______ _____ _____    ______ ____
ROOT
ATOM      1  O   UNL     1      -0.833  -8.131   0.308  0.00  0.00    +0.000 OA
ATOM      2  C   UNL     1      -2.363  -2.224   1.716  0.00  0.00    +0.000 C 
ATOM      3  C   UNL     1      -3.222  -3.551   1.898  0.00  0.00    +0.000 C 
ATOM      4  C   UNL     1      -3.658  -0.956   3.280  0.00  0.00    +0.000 C 
ATOM      5  C   UNL     1      -3.309  -1.084   1.855  0.00  0.00    +0.000 C 
ATOM      6  C   UNL     1      -1.620  -1.973   2.970  0.00  0.00    +0.000 C 
ATOM      7  C   UNL     1      -3.254  -4.651   0.831  0.00  0.00    +0.000 C 
ATOM      8  C   UNL     1      -2.241  -1.090   3.978  0.00  0.00    +0.000 C 
ATOM      9  C   UNL     1      -1.564  -2.336   0.524  0.00  0.00    +0.000 C 
ATOM     10  C   UNL     1      -4.279  -3.377   2.882  0.00  0.00    +0.000 C 
ATOM     11  C   UNL     1      -4.578  -2.043   3.578  0.00  0.00    +0.000 C 
ATOM     12  C   UNL     1      -1.964  -4.715  -0.155  0.00  0.00    +0.000 C 
ATOM     13  C   UNL     1      -1.310  -3.486  -0.398  0.00  0.00    +0.000 C 
ATOM     14  C   UNL     1      -4.499  -4.434  -0.089  0.00  0.00    +0.000 C 
ATOM     15  C   UNL     1      -3.302  -5.979   1.501  0.00  0.00    +0.000 C 
ATOM     16  C   UNL     1      -1.260  -5.973  -0.255  0.00  0.00    +0.000 A 
ATOM     17  C   UNL     1      -2.689  -7.006   1.419  0.00  0.00    +0.000 C 
ATOM     18  C   UNL     1      -1.621  -7.065   0.506  0.00  0.00    +0.000 A 
ATOM     19  C   UNL     1      -0.139  -6.402  -0.995  0.00  0.00    +0.000 A 
ATOM     20  C   UNL     1       0.081  -7.725  -0.632  0.00  0.00    +0.000 A 
ENDROOT
BRANCH   8  21
ATOM     21  O   UNL     1      -1.576   0.160   3.980  0.00  0.00    +0.000 OA
ATOM     22  H   UNL     1      -1.406   0.372   3.047  0.00  0.00    +0.000 HD
ENDBRANCH   8  21
BRANCH   8  23
ATOM     23  C   UNL     1      -2.291  -1.626   5.344  0.00  0.00    +0.000 C 
BRANCH  23  24
ATOM     24  O   UNL     1      -2.344  -2.129   6.578  0.00  0.00    +0.000 OA
ATOM     25  H   UNL     1      -2.083  -1.460   7.237  0.00  0.00    +0.000 HD
ENDBRANCH  23  24
ENDBRANCH   8  23
TORSDOF 3
ENDMDL
MODEL 8
REMARK VINA RESULT:      -5.4      2.226      6.216
REMARK  Name = 114778_Kahweol.pdbqt.pdb
REMARK  3 active torsions:
REMARK  status: ('A' for Active; 'I' for Inactive)
REMARK    1  A    between atoms: C_8  and  O_21
REMARK    2  A    between atoms: C_8  and  C_23
REMARK    3  A    between atoms: C_23  and  O_24
REMARK                            x       y       z     vdW  Elec       q    Type
REMARK                         _______ _______ _______ _____ _____    ______ ____
ROOT
ATOM      1  O   UNL     1     -12.769  -4.337  28.117  0.00  0.00    +0.000 OA
ATOM      2  C   UNL     1     -10.824  -4.297  22.165  0.00  0.00    +0.000 C 
ATOM      3  C   UNL     1     -11.208  -3.069  23.101  0.00  0.00    +0.000 C 
ATOM      4  C   UNL     1      -9.571  -2.963  20.622  0.00  0.00    +0.000 C 
ATOM      5  C   UNL     1     -10.790  -3.775  20.772  0.00  0.00    +0.000 C 
ATOM      6  C   UNL     1      -9.369  -4.538  22.285  0.00  0.00    +0.000 C 
ATOM      7  C   UNL     1     -12.418  -3.111  24.041  0.00  0.00    +0.000 C 
ATOM      8  C   UNL     1      -8.477  -3.884  21.306  0.00  0.00    +0.000 C 
ATOM      9  C   UNL     1     -11.674  -5.416  22.479  0.00  0.00    +0.000 C 
ATOM     10  C   UNL     1     -10.625  -1.826  22.623  0.00  0.00    +0.000 C 
ATOM     11  C   UNL     1      -9.821  -1.711  21.321  0.00  0.00    +0.000 C 
ATOM     12  C   UNL     1     -12.903  -4.592  24.501  0.00  0.00    +0.000 C 
ATOM     13  C   UNL     1     -12.664  -5.635  23.578  0.00  0.00    +0.000 C 
ATOM     14  C   UNL     1     -13.642  -2.450  23.328  0.00  0.00    +0.000 C 
ATOM     15  C   UNL     1     -12.079  -2.399  25.304  0.00  0.00    +0.000 C 
ATOM     16  C   UNL     1     -13.006  -4.852  25.919  0.00  0.00    +0.000 A 
ATOM     17  C   UNL     1     -12.151  -2.645  26.475  0.00  0.00    +0.000 C 
ATOM     18  C   UNL     1     -12.642  -3.906  26.854  0.00  0.00    +0.000 A 
ATOM     19  C   UNL     1     -13.394  -5.978  26.674  0.00  0.00    +0.000 A 
ATOM     20  C   UNL     1     -13.246  -5.619  28.007  0.00  0.00    +0.000 A 
ENDROOT
BRANCH   8  21
ATOM     21  O   UNL     1      -8.004  -4.850  20.384  0.00  0.00    +0.000 OA
ATOM     22  H   UNL     1      -8.554  -5.640  20.521  0.00  0.00    +0.000 HD
ENDBRANCH   8  21
BRANCH   8  23
ATOM     23  C   UNL     1      -7.342  -3.149  21.878  0.00  0.00    +0.000 C 
BRANCH  23  24
ATOM     24  O   UNL     1      -6.323  -2.471  22.408  0.00  0.00    +0.000 OA
ATOM     25  H   UNL     1      -5.545  -3.046  22.520  0.00  0.00    +0.000 HD
ENDBRANCH  23  24
ENDBRANCH   8  23
TORSDOF 3
ENDMDL
MODEL 9
REMARK VINA RESULT:      -5.2     24.115     25.771
REMARK  Name = 114778_Kahweol.pdbqt.pdb
REMARK  3 active torsions:
REMARK  status: ('A' for Active; 'I' for Inactive)
REMARK    1  A    between atoms: C_8  and  O_21
REMARK    2  A    between atoms: C_8  and  C_23
REMARK    3  A    between atoms: C_23  and  O_24
REMARK                            x       y       z     vdW  Elec       q    Type
REMARK                         _______ _______ _______ _____ _____    ______ ____
ROOT
ATOM      1  O   UNL     1     -21.407   6.622   2.295  0.00  0.00    +0.000 OA
ATOM      2  C   UNL     1     -19.022   2.573  -1.846  0.00  0.00    +0.000 C 
ATOM      3  C   UNL     1     -18.303   3.296  -0.624  0.00  0.00    +0.000 C 
ATOM      4  C   UNL     1     -17.375   0.846  -2.027  0.00  0.00    +0.000 C 
ATOM      5  C   UNL     1     -17.942   2.022  -2.708  0.00  0.00    +0.000 C 
ATOM      6  C   UNL     1     -19.540   1.269  -1.378  0.00  0.00    +0.000 C 
ATOM      7  C   UNL     1     -18.554   4.770  -0.290  0.00  0.00    +0.000 C 
ATOM      8  C   UNL     1     -18.680   0.081  -1.553  0.00  0.00    +0.000 C 
ATOM      9  C   UNL     1     -19.995   3.466  -2.419  0.00  0.00    +0.000 C 
ATOM     10  C   UNL     1     -17.100   2.589  -0.213  0.00  0.00    +0.000 C 
ATOM     11  C   UNL     1     -16.551   1.355  -0.940  0.00  0.00    +0.000 C 
ATOM     12  C   UNL     1     -19.974   5.378  -0.797  0.00  0.00    +0.000 C 
ATOM     13  C   UNL     1     -20.511   4.796  -1.968  0.00  0.00    +0.000 C 
ATOM     14  C   UNL     1     -17.441   5.642  -0.957  0.00  0.00    +0.000 C 
ATOM     15  C   UNL     1     -18.560   4.942   1.189  0.00  0.00    +0.000 C 
ATOM     16  C   UNL     1     -20.824   6.005   0.189  0.00  0.00    +0.000 A 
ATOM     17  C   UNL     1     -19.292   5.447   1.993  0.00  0.00    +0.000 C 
ATOM     18  C   UNL     1     -20.482   6.032   1.524  0.00  0.00    +0.000 A 
ATOM     19  C   UNL     1     -22.083   6.636   0.124  0.00  0.00    +0.000 A 
ATOM     20  C   UNL     1     -22.397   7.007   1.425  0.00  0.00    +0.000 A 
ENDROOT
BRANCH   8  21
ATOM     21  O   UNL     1     -19.191  -0.716  -2.607  0.00  0.00    +0.000 OA
ATOM     22  H   UNL     1     -18.545  -1.431  -2.737  0.00  0.00    +0.000 HD
ENDBRANCH   8  21
BRANCH   8  23
ATOM     23  C   UNL     1     -18.492  -0.746  -0.354  0.00  0.00    +0.000 C 
BRANCH  23  24
ATOM     24  O   UNL     1     -18.329  -1.484   0.745  0.00  0.00    +0.000 OA
ATOM     25  H   UNL     1     -19.176  -1.865   1.036  0.00  0.00    +0.000 HD
ENDBRANCH  23  24
ENDBRANCH   8  23
TORSDOF 3
ENDMDL
