MODEL 1
REMARK VINA RESULT:      -3.6      0.000      0.000
REMARK  Name = 1174_Uracil.pdbqt.pdb
REMARK  0 active torsions:
REMARK  status: ('A' for Active; 'I' for Inactive)
REMARK                            x       y       z     vdW  Elec       q    Type
REMARK                         _______ _______ _______ _____ _____    ______ ____
ROOT
ATOM      1  O   UNL     1       3.663 -12.490  12.713  0.00  0.00    +0.000 OA
ATOM      2  O   UNL     1       4.968  -8.069  12.234  0.00  0.00    +0.000 OA
ATOM      3  N   UNL     1       4.369 -10.298  12.515  0.00  0.00    +0.000 N 
ATOM      4  N   UNL     1       2.436 -11.028  11.410  0.00  0.00    +0.000 N 
ATOM      5  C   UNL     1       3.502 -11.367  12.251  0.00  0.00    +0.000 A 
ATOM      6  C   UNL     1       4.220  -9.008  12.009  0.00  0.00    +0.000 A 
ATOM      7  C   UNL     1       2.306  -9.780  10.931  0.00  0.00    +0.000 A 
ATOM      8  C   UNL     1       3.057  -8.885  11.169  0.00  0.00    +0.000 A 
ATOM      9  H   UNL     1       5.158 -10.476  13.115  0.00  0.00    +0.000 HD
ATOM     10  H   UNL     1       1.765 -11.747  11.171  0.00  0.00    +0.000 HD
ENDROOT
TORSDOF 0
ENDMDL
MODEL 2
REMARK VINA RESULT:      -3.4     14.560     15.245
REMARK  Name = 1174_Uracil.pdbqt.pdb
REMARK  0 active torsions:
REMARK  status: ('A' for Active; 'I' for Inactive)
REMARK                            x       y       z     vdW  Elec       q    Type
REMARK                         _______ _______ _______ _____ _____    ______ ____
ROOT
ATOM      1  O   UNL     1     -10.049 -16.504   6.338  0.00  0.00    +0.000 OA
ATOM      2  O   UNL     1      -9.066 -11.976   6.282  0.00  0.00    +0.000 OA
ATOM      3  N   UNL     1      -9.561 -14.245   6.380  0.00  0.00    +0.000 N 
ATOM      4  N   UNL     1      -9.744 -15.384   4.340  0.00  0.00    +0.000 N 
ATOM      5  C   UNL     1      -9.805 -15.467   5.735  0.00  0.00    +0.000 A 
ATOM      6  C   UNL     1      -9.280 -13.045   5.730  0.00  0.00    +0.000 A 
ATOM      7  C   UNL     1      -9.473 -14.219   3.729  0.00  0.00    +0.000 A 
ATOM      8  C   UNL     1      -9.268 -13.192   4.298  0.00  0.00    +0.000 A 
ATOM      9  H   UNL     1      -9.590 -14.237   7.386  0.00  0.00    +0.000 HD
ATOM     10  H   UNL     1      -9.910 -16.225   3.801  0.00  0.00    +0.000 HD
ENDROOT
TORSDOF 0
ENDMDL
MODEL 3
REMARK VINA RESULT:      -3.3     17.331     17.605
REMARK  Name = 1174_Uracil.pdbqt.pdb
REMARK  0 active torsions:
REMARK  status: ('A' for Active; 'I' for Inactive)
REMARK                            x       y       z     vdW  Elec       q    Type
REMARK                         _______ _______ _______ _____ _____    ______ ____
ROOT
ATOM      1  O   UNL     1     -12.041  -3.154  21.930  0.00  0.00    +0.000 OA
ATOM      2  O   UNL     1      -7.598  -4.210  22.714  0.00  0.00    +0.000 OA
ATOM      3  N   UNL     1      -9.833  -3.660  22.388  0.00  0.00    +0.000 N 
ATOM      4  N   UNL     1     -10.715  -4.018  20.247  0.00  0.00    +0.000 N 
ATOM      5  C   UNL     1     -10.956  -3.575  21.552  0.00  0.00    +0.000 A 
ATOM      6  C   UNL     1      -8.582  -4.133  21.995  0.00  0.00    +0.000 A 
ATOM      7  C   UNL     1      -9.504  -4.471  19.884  0.00  0.00    +0.000 A 
ATOM      8  C   UNL     1      -8.562  -4.534  20.613  0.00  0.00    +0.000 A 
ATOM      9  H   UNL     1      -9.939  -3.356  23.342  0.00  0.00    +0.000 HD
ATOM     10  H   UNL     1     -11.477  -3.989  19.581  0.00  0.00    +0.000 HD
ENDROOT
TORSDOF 0
ENDMDL
MODEL 4
REMARK VINA RESULT:      -3.2     25.360     26.016
REMARK  Name = 1174_Uracil.pdbqt.pdb
REMARK  0 active torsions:
REMARK  status: ('A' for Active; 'I' for Inactive)
REMARK                            x       y       z     vdW  Elec       q    Type
REMARK                         _______ _______ _______ _____ _____    ______ ____
ROOT
ATOM      1  O   UNL     1     -21.401  -6.875  13.864  0.00  0.00    +0.000 OA
ATOM      2  O   UNL     1     -20.828  -4.503   9.924  0.00  0.00    +0.000 OA
ATOM      3  N   UNL     1     -21.055  -5.725  11.889  0.00  0.00    +0.000 N 
ATOM      4  N   UNL     1     -22.981  -5.339  13.166  0.00  0.00    +0.000 N 
ATOM      5  C   UNL     1     -21.782  -6.049  13.044  0.00  0.00    +0.000 A 
ATOM      6  C   UNL     1     -21.453  -4.793  10.933  0.00  0.00    +0.000 A 
ATOM      7  C   UNL     1     -23.351  -4.444  12.236  0.00  0.00    +0.000 A 
ATOM      8  C   UNL     1     -22.716  -4.184  11.261  0.00  0.00    +0.000 A 
ATOM      9  H   UNL     1     -20.180  -6.202  11.741  0.00  0.00    +0.000 HD
ATOM     10  H   UNL     1     -23.564  -5.517  13.975  0.00  0.00    +0.000 HD
ENDROOT
TORSDOF 0
ENDMDL
MODEL 5
REMARK VINA RESULT:      -3.2      2.722      3.596
REMARK  Name = 1174_Uracil.pdbqt.pdb
REMARK  0 active torsions:
REMARK  status: ('A' for Active; 'I' for Inactive)
REMARK                            x       y       z     vdW  Elec       q    Type
REMARK                         _______ _______ _______ _____ _____    ______ ____
ROOT
ATOM      1  O   UNL     1       7.769 -11.034  10.724  0.00  0.00    +0.000 OA
ATOM      2  O   UNL     1       3.535 -10.303  12.460  0.00  0.00    +0.000 OA
ATOM      3  N   UNL     1       5.668 -10.600  11.585  0.00  0.00    +0.000 N 
ATOM      4  N   UNL     1       6.398 -12.807  11.288  0.00  0.00    +0.000 N 
ATOM      5  C   UNL     1       6.703 -11.448  11.162  0.00  0.00    +0.000 A 
ATOM      6  C   UNL     1       4.442 -11.031  12.088  0.00  0.00    +0.000 A 
ATOM      7  C   UNL     1       5.212 -13.206  11.775  0.00  0.00    +0.000 A 
ATOM      8  C   UNL     1       4.346 -12.467  12.129  0.00  0.00    +0.000 A 
ATOM      9  H   UNL     1       5.824  -9.608  11.520  0.00  0.00    +0.000 HD
ATOM     10  H   UNL     1       7.095 -13.484  11.003  0.00  0.00    +0.000 HD
ENDROOT
TORSDOF 0
ENDMDL
MODEL 6
REMARK VINA RESULT:      -3.1     24.246     25.005
REMARK  Name = 1174_Uracil.pdbqt.pdb
REMARK  0 active torsions:
REMARK  status: ('A' for Active; 'I' for Inactive)
REMARK                            x       y       z     vdW  Elec       q    Type
REMARK                         _______ _______ _______ _____ _____    ______ ____
ROOT
ATOM      1  O   UNL     1     -18.158  -5.385   8.349  0.00  0.00    +0.000 OA
ATOM      2  O   UNL     1     -22.075  -4.177  10.511  0.00  0.00    +0.000 OA
ATOM      3  N   UNL     1     -20.085  -4.807   9.487  0.00  0.00    +0.000 N 
ATOM      4  N   UNL     1     -19.886  -4.378   7.192  0.00  0.00    +0.000 N 
ATOM      5  C   UNL     1     -19.281  -4.898   8.341  0.00  0.00    +0.000 A 
ATOM      6  C   UNL     1     -21.366  -4.260   9.519  0.00  0.00    +0.000 A 
ATOM      7  C   UNL     1     -21.123  -3.854   7.240  0.00  0.00    +0.000 A 
ATOM      8  C   UNL     1     -21.788  -3.787   8.226  0.00  0.00    +0.000 A 
ATOM      9  H   UNL     1     -19.707  -5.164  10.350  0.00  0.00    +0.000 HD
ATOM     10  H   UNL     1     -19.370  -4.407   6.322  0.00  0.00    +0.000 HD
ENDROOT
TORSDOF 0
ENDMDL
MODEL 7
REMARK VINA RESULT:      -3.1     25.742     26.515
REMARK  Name = 1174_Uracil.pdbqt.pdb
REMARK  0 active torsions:
REMARK  status: ('A' for Active; 'I' for Inactive)
REMARK                            x       y       z     vdW  Elec       q    Type
REMARK                         _______ _______ _______ _____ _____    ______ ____
ROOT
ATOM      1  O   UNL     1     -23.662  -2.915  13.281  0.00  0.00    +0.000 OA
ATOM      2  O   UNL     1     -21.340  -6.894  13.778  0.00  0.00    +0.000 OA
ATOM      3  N   UNL     1     -22.522  -4.900  13.596  0.00  0.00    +0.000 N 
ATOM      4  N   UNL     1     -22.576  -3.884  11.486  0.00  0.00    +0.000 N 
ATOM      5  C   UNL     1     -22.978  -3.822  12.824  0.00  0.00    +0.000 A 
ATOM      6  C   UNL     1     -21.743  -5.951  13.115  0.00  0.00    +0.000 A 
ATOM      7  C   UNL     1     -21.825  -4.903  11.037  0.00  0.00    +0.000 A 
ATOM      8  C   UNL     1     -21.449  -5.810  11.712  0.00  0.00    +0.000 A 
ATOM      9  H   UNL     1     -22.777  -4.916  14.570  0.00  0.00    +0.000 HD
ATOM     10  H   UNL     1     -22.866  -3.140  10.862  0.00  0.00    +0.000 HD
ENDROOT
TORSDOF 0
ENDMDL
MODEL 8
REMARK VINA RESULT:      -3.1     17.903     18.894
REMARK  Name = 1174_Uracil.pdbqt.pdb
REMARK  0 active torsions:
REMARK  status: ('A' for Active; 'I' for Inactive)
REMARK                            x       y       z     vdW  Elec       q    Type
REMARK                         _______ _______ _______ _____ _____    ______ ____
ROOT
ATOM      1  O   UNL     1     -16.066 -14.318  14.450  0.00  0.00    +0.000 OA
ATOM      2  O   UNL     1     -12.346 -15.922  12.200  0.00  0.00    +0.000 OA
ATOM      3  N   UNL     1     -14.217 -15.066  13.282  0.00  0.00    +0.000 N 
ATOM      4  N   UNL     1     -14.938 -16.186  15.210  0.00  0.00    +0.000 N 
ATOM      5  C   UNL     1     -15.152 -15.123  14.326  0.00  0.00    +0.000 A 
ATOM      6  C   UNL     1     -13.164 -15.962  13.106  0.00  0.00    +0.000 A 
ATOM      7  C   UNL     1     -13.917 -17.041  15.027  0.00  0.00    +0.000 A 
ATOM      8  C   UNL     1     -13.134 -16.973  14.131  0.00  0.00    +0.000 A 
ATOM      9  H   UNL     1     -14.316 -14.323  12.609  0.00  0.00    +0.000 HD
ATOM     10  H   UNL     1     -15.571 -16.296  15.992  0.00  0.00    +0.000 HD
ENDROOT
TORSDOF 0
ENDMDL
MODEL 9
REMARK VINA RESULT:      -2.9     18.188     18.526
REMARK  Name = 1174_Uracil.pdbqt.pdb
REMARK  0 active torsions:
REMARK  status: ('A' for Active; 'I' for Inactive)
REMARK                            x       y       z     vdW  Elec       q    Type
REMARK                         _______ _______ _______ _____ _____    ______ ____
ROOT
ATOM      1  O   UNL     1     -10.715  -2.362  23.815  0.00  0.00    +0.000 OA
ATOM      2  O   UNL     1     -11.433  -3.704  19.438  0.00  0.00    +0.000 OA
ATOM      3  N   UNL     1     -11.135  -3.057  21.651  0.00  0.00    +0.000 N 
ATOM      4  N   UNL     1      -9.139  -1.948  22.177  0.00  0.00    +0.000 N 
ATOM      5  C   UNL     1     -10.358  -2.447  22.647  0.00  0.00    +0.000 A 
ATOM      6  C   UNL     1     -10.765  -3.174  20.313  0.00  0.00    +0.000 A 
ATOM      7  C   UNL     1      -8.797  -2.068  20.883  0.00  0.00    +0.000 A 
ATOM      8  C   UNL     1      -9.474  -2.591  20.053  0.00  0.00    +0.000 A 
ATOM      9  H   UNL     1     -12.026  -3.438  21.925  0.00  0.00    +0.000 HD
ATOM     10  H   UNL     1      -8.520  -1.492  22.836  0.00  0.00    +0.000 HD
ENDROOT
TORSDOF 0
ENDMDL
