MODEL 1
REMARK VINA RESULT:      -5.8      0.000      0.000
REMARK  Name = 122178712_SalternamideA.pdbqt.pdb
REMARK  8 active torsions:
REMARK  status: ('A' for Active; 'I' for Inactive)
REMARK    1  A    between atoms: C_3  and  O_24
REMARK    2  A    between atoms: C_3  and  C_26
REMARK    3  A    between atoms: C_6  and  N_10
REMARK    4  A    between atoms: C_11  and  C_14
REMARK    5  A    between atoms: C_13  and  C_15
REMARK    6  A    between atoms: C_27  and  C_28
REMARK    7  A    between atoms: C_29  and  C_31
REMARK    8  A    between atoms: C_31  and  O_32
REMARK                            x       y       z     vdW  Elec       q    Type
REMARK                         _______ _______ _______ _____ _____    ______ ____
ROOT
ATOM      1 CL   UNL     1     -21.528  -6.376  13.166  0.00  0.00    +0.000 Cl
ATOM      2  O   UNL     1     -21.719  -6.914  10.065  0.00  0.00    +0.000 OA
ATOM      3  C   UNL     1     -23.422  -3.207  11.450  0.00  0.00    +0.000 C 
ATOM      4  C   UNL     1     -23.278  -3.767  10.096  0.00  0.00    +0.000 C 
ATOM      5  C   UNL     1     -22.799  -4.307  12.204  0.00  0.00    +0.000 C 
ATOM      6  C   UNL     1     -22.813  -4.841   9.526  0.00  0.00    +0.000 C 
ATOM      7  C   UNL     1     -22.268  -5.466  11.944  0.00  0.00    +0.000 C 
ATOM      8  C   UNL     1     -22.207  -5.872  10.485  0.00  0.00    +0.000 C 
ENDROOT
BRANCH   6  10
ATOM      9  O   UNL     1     -20.743  -4.280   7.539  0.00  0.00    +0.000 OA
ATOM     10  N   UNL     1     -22.813  -5.110   8.182  0.00  0.00    +0.000 N 
ATOM     11  C   UNL     1     -21.809  -4.825   7.291  0.00  0.00    +0.000 C 
ATOM     12  H   UNL     1     -23.653  -5.567   7.832  0.00  0.00    +0.000 HD
BRANCH  11  14
ATOM     13  C   UNL     1     -22.300  -5.574   4.802  0.00  0.00    +0.000 C 
ATOM     14  C   UNL     1     -22.077  -5.226   5.930  0.00  0.00    +0.000 C 
BRANCH  13  15
ATOM     15  C   UNL     1     -22.569  -5.989   3.474  0.00  0.00    +0.000 C 
ATOM     16  C   UNL     1     -23.900  -5.630   2.876  0.00  0.00    +0.000 C 
ATOM     17  C   UNL     1     -21.698  -6.763   2.683  0.00  0.00    +0.000 C 
ATOM     18  C   UNL     1     -20.835  -7.535   1.878  0.00  0.00    +0.000 C 
ATOM     19  C   UNL     1     -19.387  -7.585   2.265  0.00  0.00    +0.000 C 
ATOM     20  C   UNL     1     -21.240  -8.278   0.757  0.00  0.00    +0.000 C 
ATOM     21  C   UNL     1     -21.612  -8.965  -0.269  0.00  0.00    +0.000 C 
ATOM     22  C   UNL     1     -21.651  -8.314  -1.616  0.00  0.00    +0.000 C 
ATOM     23  C   UNL     1     -22.312 -10.272  -0.057  0.00  0.00    +0.000 C 
ENDBRANCH  13  15
ENDBRANCH  11  14
ENDBRANCH   6  10
BRANCH   3  24
ATOM     24  O   UNL     1     -24.793  -3.134  11.782  0.00  0.00    +0.000 OA
ATOM     25  H   UNL     1     -25.244  -3.767  11.197  0.00  0.00    +0.000 HD
ENDBRANCH   3  24
BRANCH   3  26
ATOM     26  C   UNL     1     -22.781  -1.912  11.639  0.00  0.00    +0.000 C 
ATOM     27  C   UNL     1     -22.102  -0.553  11.834  0.00  0.00    +0.000 C 
BRANCH  27  28
ATOM     28  C   UNL     1     -21.420   0.805  12.026  0.00  0.00    +0.000 C 
ATOM     29  C   UNL     1     -20.736   2.161  12.219  0.00  0.00    +0.000 C 
BRANCH  29  31
ATOM     30  O   UNL     1     -20.477   4.268  13.196  0.00  0.00    +0.000 OA
ATOM     31  C   UNL     1     -20.096   3.428  12.399  0.00  0.00    +0.000 C 
BRANCH  31  32
ATOM     32  O   UNL     1     -19.027   3.618  11.605  0.00  0.00    +0.000 OA
ATOM     33  H   UNL     1     -18.983   4.591  11.505  0.00  0.00    +0.000 HD
ENDBRANCH  31  32
ENDBRANCH  29  31
ENDBRANCH  27  28
ENDBRANCH   3  26
TORSDOF 8
ENDMDL
MODEL 2
REMARK VINA RESULT:      -5.6      6.156     13.862
REMARK  Name = 122178712_SalternamideA.pdbqt.pdb
REMARK  8 active torsions:
REMARK  status: ('A' for Active; 'I' for Inactive)
REMARK    1  A    between atoms: C_3  and  O_24
REMARK    2  A    between atoms: C_3  and  C_26
REMARK    3  A    between atoms: C_6  and  N_10
REMARK    4  A    between atoms: C_11  and  C_14
REMARK    5  A    between atoms: C_13  and  C_15
REMARK    6  A    between atoms: C_27  and  C_28
REMARK    7  A    between atoms: C_29  and  C_31
REMARK    8  A    between atoms: C_31  and  O_32
REMARK                            x       y       z     vdW  Elec       q    Type
REMARK                         _______ _______ _______ _____ _____    ______ ____
ROOT
ATOM      1 CL   UNL     1     -27.170  -6.334  13.703  0.00  0.00    +0.000 Cl
ATOM      2  O   UNL     1     -26.395  -4.201  15.891  0.00  0.00    +0.000 OA
ATOM      3  C   UNL     1     -23.119  -6.354  14.103  0.00  0.00    +0.000 C 
ATOM      4  C   UNL     1     -23.144  -5.269  15.099  0.00  0.00    +0.000 C 
ATOM      5  C   UNL     1     -24.570  -6.486  13.895  0.00  0.00    +0.000 C 
ATOM      6  C   UNL     1     -24.019  -4.541  15.731  0.00  0.00    +0.000 C 
ATOM      7  C   UNL     1     -25.657  -5.940  14.355  0.00  0.00    +0.000 C 
ATOM      8  C   UNL     1     -25.481  -4.834  15.377  0.00  0.00    +0.000 C 
ENDROOT
BRANCH   6  10
ATOM      9  O   UNL     1     -23.777  -1.656  15.322  0.00  0.00    +0.000 OA
ATOM     10  N   UNL     1     -23.746  -3.560  16.649  0.00  0.00    +0.000 N 
ATOM     11  C   UNL     1     -23.645  -2.214  16.402  0.00  0.00    +0.000 C 
ATOM     12  H   UNL     1     -23.607  -3.887  17.603  0.00  0.00    +0.000 HD
BRANCH  11  14
ATOM     13  C   UNL     1     -23.116  -0.725  18.523  0.00  0.00    +0.000 C 
ATOM     14  C   UNL     1     -23.352  -1.407  17.562  0.00  0.00    +0.000 C 
BRANCH  13  15
ATOM     15  C   UNL     1     -22.845   0.081  19.656  0.00  0.00    +0.000 C 
ATOM     16  C   UNL     1     -23.989   0.827  20.283  0.00  0.00    +0.000 C 
ATOM     17  C   UNL     1     -21.567   0.280  20.213  0.00  0.00    +0.000 C 
ATOM     18  C   UNL     1     -20.294   0.486  20.784  0.00  0.00    +0.000 C 
ATOM     19  C   UNL     1     -19.218  -0.506  20.454  0.00  0.00    +0.000 C 
ATOM     20  C   UNL     1     -19.958   1.566  21.617  0.00  0.00    +0.000 C 
ATOM     21  C   UNL     1     -19.646   2.560  22.377  0.00  0.00    +0.000 C 
ATOM     22  C   UNL     1     -19.860   2.452  23.855  0.00  0.00    +0.000 C 
ATOM     23  C   UNL     1     -19.402   3.902  21.759  0.00  0.00    +0.000 C 
ENDBRANCH  13  15
ENDBRANCH  11  14
ENDBRANCH   6  10
BRANCH   3  24
ATOM     24  O   UNL     1     -22.627  -7.532  14.708  0.00  0.00    +0.000 OA
ATOM     25  H   UNL     1     -21.926  -7.245  15.319  0.00  0.00    +0.000 HD
ENDBRANCH   3  24
BRANCH   3  26
ATOM     26  C   UNL     1     -22.365  -6.046  12.895  0.00  0.00    +0.000 C 
ATOM     27  C   UNL     1     -21.568  -5.719  11.628  0.00  0.00    +0.000 C 
BRANCH  27  28
ATOM     28  C   UNL     1     -20.769  -5.390  10.364  0.00  0.00    +0.000 C 
ATOM     29  C   UNL     1     -19.967  -5.062   9.101  0.00  0.00    +0.000 C 
BRANCH  29  31
ATOM     30  O   UNL     1     -19.732  -4.518   6.840  0.00  0.00    +0.000 OA
ATOM     31  C   UNL     1     -19.219  -4.757   7.920  0.00  0.00    +0.000 C 
BRANCH  31  32
ATOM     32  O   UNL     1     -17.886  -4.757   8.102  0.00  0.00    +0.000 OA
ATOM     33  H   UNL     1     -17.746  -5.448   8.781  0.00  0.00    +0.000 HD
ENDBRANCH  31  32
ENDBRANCH  29  31
ENDBRANCH  27  28
ENDBRANCH   3  26
TORSDOF 8
ENDMDL
MODEL 3
REMARK VINA RESULT:      -5.4     21.294     23.918
REMARK  Name = 122178712_SalternamideA.pdbqt.pdb
REMARK  8 active torsions:
REMARK  status: ('A' for Active; 'I' for Inactive)
REMARK    1  A    between atoms: C_3  and  O_24
REMARK    2  A    between atoms: C_3  and  C_26
REMARK    3  A    between atoms: C_6  and  N_10
REMARK    4  A    between atoms: C_11  and  C_14
REMARK    5  A    between atoms: C_13  and  C_15
REMARK    6  A    between atoms: C_27  and  C_28
REMARK    7  A    between atoms: C_29  and  C_31
REMARK    8  A    between atoms: C_31  and  O_32
REMARK                            x       y       z     vdW  Elec       q    Type
REMARK                         _______ _______ _______ _____ _____    ______ ____
ROOT
ATOM      1 CL   UNL     1      -5.247  -6.241   2.916  0.00  0.00    +0.000 Cl
ATOM      2  O   UNL     1      -3.442  -7.738   0.808  0.00  0.00    +0.000 OA
ATOM      3  C   UNL     1      -2.660  -3.533   1.321  0.00  0.00    +0.000 C 
ATOM      4  C   UNL     1      -2.001  -4.551   0.487  0.00  0.00    +0.000 C 
ATOM      5  C   UNL     1      -3.681  -4.392   1.942  0.00  0.00    +0.000 C 
ATOM      6  C   UNL     1      -2.117  -5.820   0.217  0.00  0.00    +0.000 C 
ATOM      7  C   UNL     1      -4.049  -5.639   1.882  0.00  0.00    +0.000 C 
ATOM      8  C   UNL     1      -3.247  -6.540   0.963  0.00  0.00    +0.000 C 
ENDROOT
BRANCH   6  10
ATOM      9  O   UNL     1       0.149  -7.565   0.823  0.00  0.00    +0.000 OA
ATOM     10  N   UNL     1      -1.331  -6.542  -0.643  0.00  0.00    +0.000 N 
ATOM     11  C   UNL     1      -0.275  -7.350  -0.303  0.00  0.00    +0.000 C 
ATOM     12  H   UNL     1      -1.572  -6.452  -1.628  0.00  0.00    +0.000 HD
BRANCH  11  14
ATOM     13  C   UNL     1       0.922  -8.521  -2.351  0.00  0.00    +0.000 C 
ATOM     14  C   UNL     1       0.375  -7.996  -1.419  0.00  0.00    +0.000 C 
BRANCH  13  15
ATOM     15  C   UNL     1       1.574  -9.136  -3.448  0.00  0.00    +0.000 C 
ATOM     16  C   UNL     1       0.859 -10.246  -4.164  0.00  0.00    +0.000 C 
ATOM     17  C   UNL     1       2.873  -8.819  -3.891  0.00  0.00    +0.000 C 
ATOM     18  C   UNL     1       4.171  -8.511  -4.347  0.00  0.00    +0.000 C 
ATOM     19  C   UNL     1       4.754  -7.192  -3.935  0.00  0.00    +0.000 C 
ATOM     20  C   UNL     1       4.962  -9.360  -5.138  0.00  0.00    +0.000 C 
ATOM     21  C   UNL     1       5.693 -10.142  -5.858  0.00  0.00    +0.000 C 
ATOM     22  C   UNL     1       5.578 -10.088  -7.350  0.00  0.00    +0.000 C 
ATOM     23  C   UNL     1       6.377 -11.304  -5.209  0.00  0.00    +0.000 C 
ENDBRANCH  13  15
ENDBRANCH  11  14
ENDBRANCH   6  10
BRANCH   3  24
ATOM     24  O   UNL     1      -3.293  -2.584   0.489  0.00  0.00    +0.000 OA
ATOM     25  H   UNL     1      -4.170  -2.429   0.880  0.00  0.00    +0.000 HD
ENDBRANCH   3  24
BRANCH   3  26
ATOM     26  C   UNL     1      -1.776  -2.870   2.272  0.00  0.00    +0.000 C 
ATOM     27  C   UNL     1      -0.851  -2.168   3.271  0.00  0.00    +0.000 C 
BRANCH  27  28
ATOM     28  C   UNL     1       0.071  -1.462   4.269  0.00  0.00    +0.000 C 
ATOM     29  C   UNL     1       0.992  -0.755   5.268  0.00  0.00    +0.000 C 
BRANCH  29  31
ATOM     30  O   UNL     1       1.976   1.116   6.263  0.00  0.00    +0.000 OA
ATOM     31  C   UNL     1       1.852  -0.094   6.202  0.00  0.00    +0.000 C 
BRANCH  31  32
ATOM     32  O   UNL     1       2.518  -0.931   7.018  0.00  0.00    +0.000 OA
ATOM     33  H   UNL     1       2.471  -0.490   7.890  0.00  0.00    +0.000 HD
ENDBRANCH  31  32
ENDBRANCH  29  31
ENDBRANCH  27  28
ENDBRANCH   3  26
TORSDOF 8
ENDMDL
MODEL 4
REMARK VINA RESULT:      -5.3      5.867     12.886
REMARK  Name = 122178712_SalternamideA.pdbqt.pdb
REMARK  8 active torsions:
REMARK  status: ('A' for Active; 'I' for Inactive)
REMARK    1  A    between atoms: C_3  and  O_24
REMARK    2  A    between atoms: C_3  and  C_26
REMARK    3  A    between atoms: C_6  and  N_10
REMARK    4  A    between atoms: C_11  and  C_14
REMARK    5  A    between atoms: C_13  and  C_15
REMARK    6  A    between atoms: C_27  and  C_28
REMARK    7  A    between atoms: C_29  and  C_31
REMARK    8  A    between atoms: C_31  and  O_32
REMARK                            x       y       z     vdW  Elec       q    Type
REMARK                         _______ _______ _______ _____ _____    ______ ____
ROOT
ATOM      1 CL   UNL     1     -25.603  -7.804  12.543  0.00  0.00    +0.000 Cl
ATOM      2  O   UNL     1     -25.155  -5.879  15.000  0.00  0.00    +0.000 OA
ATOM      3  C   UNL     1     -22.330  -5.510  11.768  0.00  0.00    +0.000 C 
ATOM      4  C   UNL     1     -22.472  -4.761  13.028  0.00  0.00    +0.000 C 
ATOM      5  C   UNL     1     -23.461  -6.436  11.941  0.00  0.00    +0.000 C 
ATOM      6  C   UNL     1     -23.237  -4.754  14.081  0.00  0.00    +0.000 C 
ATOM      7  C   UNL     1     -24.371  -6.680  12.838  0.00  0.00    +0.000 C 
ATOM      8  C   UNL     1     -24.358  -5.801  14.074  0.00  0.00    +0.000 C 
ENDROOT
BRANCH   6  10
ATOM      9  O   UNL     1     -24.892  -2.444  14.770  0.00  0.00    +0.000 OA
ATOM     10  N   UNL     1     -23.132  -3.908  15.154  0.00  0.00    +0.000 N 
ATOM     11  C   UNL     1     -23.941  -2.834  15.431  0.00  0.00    +0.000 C 
ATOM     12  H   UNL     1     -22.369  -4.116  15.796  0.00  0.00    +0.000 HD
BRANCH  11  14
ATOM     13  C   UNL     1     -23.306  -1.528  17.642  0.00  0.00    +0.000 C 
ATOM     14  C   UNL     1     -23.601  -2.118  16.638  0.00  0.00    +0.000 C 
BRANCH  13  15
ATOM     15  C   UNL     1     -22.951  -0.833  18.824  0.00  0.00    +0.000 C 
ATOM     16  C   UNL     1     -24.045  -0.168  19.610  0.00  0.00    +0.000 C 
ATOM     17  C   UNL     1     -21.633  -0.672  19.296  0.00  0.00    +0.000 C 
ATOM     18  C   UNL     1     -20.320  -0.505  19.782  0.00  0.00    +0.000 C 
ATOM     19  C   UNL     1     -19.268  -1.445  19.272  0.00  0.00    +0.000 C 
ATOM     20  C   UNL     1     -19.925   0.493  20.688  0.00  0.00    +0.000 C 
ATOM     21  C   UNL     1     -19.559   1.412  21.516  0.00  0.00    +0.000 C 
ATOM     22  C   UNL     1     -19.654   1.156  22.988  0.00  0.00    +0.000 C 
ATOM     23  C   UNL     1     -19.374   2.811  21.017  0.00  0.00    +0.000 C 
ENDBRANCH  13  15
ENDBRANCH  11  14
ENDBRANCH   6  10
BRANCH   3  24
ATOM     24  O   UNL     1     -21.122  -6.241  11.791  0.00  0.00    +0.000 OA
ATOM     25  H   UNL     1     -21.198  -6.857  12.540  0.00  0.00    +0.000 HD
ENDBRANCH   3  24
BRANCH   3  26
ATOM     26  C   UNL     1     -22.407  -4.688  10.567  0.00  0.00    +0.000 C 
ATOM     27  C   UNL     1     -22.485  -3.819   9.307  0.00  0.00    +0.000 C 
BRANCH  27  28
ATOM     28  C   UNL     1     -22.560  -2.948   8.050  0.00  0.00    +0.000 C 
ATOM     29  C   UNL     1     -22.634  -2.075   6.794  0.00  0.00    +0.000 C 
BRANCH  29  31
ATOM     30  O   UNL     1     -22.532  -0.053   5.628  0.00  0.00    +0.000 OA
ATOM     31  C   UNL     1     -22.701  -1.259   5.620  0.00  0.00    +0.000 C 
BRANCH  31  32
ATOM     32  O   UNL     1     -22.971  -1.944   4.494  0.00  0.00    +0.000 OA
ATOM     33  H   UNL     1     -22.597  -1.380   3.786  0.00  0.00    +0.000 HD
ENDBRANCH  31  32
ENDBRANCH  29  31
ENDBRANCH  27  28
ENDBRANCH   3  26
TORSDOF 8
ENDMDL
MODEL 5
REMARK VINA RESULT:      -5.1      1.458      2.430
REMARK  Name = 122178712_SalternamideA.pdbqt.pdb
REMARK  8 active torsions:
REMARK  status: ('A' for Active; 'I' for Inactive)
REMARK    1  A    between atoms: C_3  and  O_24
REMARK    2  A    between atoms: C_3  and  C_26
REMARK    3  A    between atoms: C_6  and  N_10
REMARK    4  A    between atoms: C_11  and  C_14
REMARK    5  A    between atoms: C_13  and  C_15
REMARK    6  A    between atoms: C_27  and  C_28
REMARK    7  A    between atoms: C_29  and  C_31
REMARK    8  A    between atoms: C_31  and  O_32
REMARK                            x       y       z     vdW  Elec       q    Type
REMARK                         _______ _______ _______ _____ _____    ______ ____
ROOT
ATOM      1 CL   UNL     1     -21.659  -6.457  13.145  0.00  0.00    +0.000 Cl
ATOM      2  O   UNL     1     -21.778  -7.034  10.048  0.00  0.00    +0.000 OA
ATOM      3  C   UNL     1     -23.447  -3.278  11.337  0.00  0.00    +0.000 C 
ATOM      4  C   UNL     1     -23.278  -3.859   9.995  0.00  0.00    +0.000 C 
ATOM      5  C   UNL     1     -22.865  -4.379  12.122  0.00  0.00    +0.000 C 
ATOM      6  C   UNL     1     -22.818  -4.949   9.451  0.00  0.00    +0.000 C 
ATOM      7  C   UNL     1     -22.348  -5.550  11.892  0.00  0.00    +0.000 C 
ATOM      8  C   UNL     1     -22.257  -5.978  10.440  0.00  0.00    +0.000 C 
ENDROOT
BRANCH   6  10
ATOM      9  O   UNL     1     -20.808  -4.216   7.459  0.00  0.00    +0.000 OA
ATOM     10  N   UNL     1     -22.787  -5.238   8.112  0.00  0.00    +0.000 N 
ATOM     11  C   UNL     1     -21.814  -4.868   7.218  0.00  0.00    +0.000 C 
ATOM     12  H   UNL     1     -23.578  -5.780   7.768  0.00  0.00    +0.000 HD
BRANCH  11  14
ATOM     13  C   UNL     1     -22.218  -5.673   4.731  0.00  0.00    +0.000 C 
ATOM     14  C   UNL     1     -22.037  -5.314   5.863  0.00  0.00    +0.000 C 
BRANCH  13  15
ATOM     15  C   UNL     1     -22.426  -6.092   3.394  0.00  0.00    +0.000 C 
ATOM     16  C   UNL     1     -21.337  -6.878   2.721  0.00  0.00    +0.000 C 
ATOM     17  C   UNL     1     -23.563  -5.782   2.622  0.00  0.00    +0.000 C 
ATOM     18  C   UNL     1     -24.696  -5.482   1.839  0.00  0.00    +0.000 C 
ATOM     19  C   UNL     1     -25.941  -5.053   2.558  0.00  0.00    +0.000 C 
ATOM     20  C   UNL     1     -24.734  -5.533   0.436  0.00  0.00    +0.000 C 
ATOM     21  C   UNL     1     -24.768  -5.574  -0.852  0.00  0.00    +0.000 C 
ATOM     22  C   UNL     1     -25.117  -6.858  -1.539  0.00  0.00    +0.000 C 
ATOM     23  C   UNL     1     -24.140  -4.462  -1.634  0.00  0.00    +0.000 C 
ENDBRANCH  13  15
ENDBRANCH  11  14
ENDBRANCH   6  10
BRANCH   3  24
ATOM     24  O   UNL     1     -24.825  -3.175  11.631  0.00  0.00    +0.000 OA
ATOM     25  H   UNL     1     -25.262  -3.867  11.106  0.00  0.00    +0.000 HD
ENDBRANCH   3  24
BRANCH   3  26
ATOM     26  C   UNL     1     -22.787  -1.992  11.525  0.00  0.00    +0.000 C 
ATOM     27  C   UNL     1     -22.088  -0.643  11.718  0.00  0.00    +0.000 C 
BRANCH  27  28
ATOM     28  C   UNL     1     -21.387   0.705  11.909  0.00  0.00    +0.000 C 
ATOM     29  C   UNL     1     -20.684   2.052  12.102  0.00  0.00    +0.000 C 
BRANCH  29  31
ATOM     30  O   UNL     1     -20.514   4.243  12.895  0.00  0.00    +0.000 OA
ATOM     31  C   UNL     1     -20.026   3.310  12.281  0.00  0.00    +0.000 C 
BRANCH  31  32
ATOM     32  O   UNL     1     -18.811   3.379  11.709  0.00  0.00    +0.000 OA
ATOM     33  H   UNL     1     -18.957   3.946  10.924  0.00  0.00    +0.000 HD
ENDBRANCH  31  32
ENDBRANCH  29  31
ENDBRANCH  27  28
ENDBRANCH   3  26
TORSDOF 8
ENDMDL
MODEL 6
REMARK VINA RESULT:      -5.0     27.724     29.568
REMARK  Name = 122178712_SalternamideA.pdbqt.pdb
REMARK  8 active torsions:
REMARK  status: ('A' for Active; 'I' for Inactive)
REMARK    1  A    between atoms: C_3  and  O_24
REMARK    2  A    between atoms: C_3  and  C_26
REMARK    3  A    between atoms: C_6  and  N_10
REMARK    4  A    between atoms: C_11  and  C_14
REMARK    5  A    between atoms: C_13  and  C_15
REMARK    6  A    between atoms: C_27  and  C_28
REMARK    7  A    between atoms: C_29  and  C_31
REMARK    8  A    between atoms: C_31  and  O_32
REMARK                            x       y       z     vdW  Elec       q    Type
REMARK                         _______ _______ _______ _____ _____    ______ ____
ROOT
ATOM      1 CL   UNL     1      11.544  -2.229  11.878  0.00  0.00    +0.000 Cl
ATOM      2  O   UNL     1       9.694  -4.755  12.250  0.00  0.00    +0.000 OA
ATOM      3  C   UNL     1       7.693  -1.079  11.229  0.00  0.00    +0.000 C 
ATOM      4  C   UNL     1       7.180  -2.445  11.426  0.00  0.00    +0.000 C 
ATOM      5  C   UNL     1       9.117  -1.346  11.487  0.00  0.00    +0.000 C 
ATOM      6  C   UNL     1       7.633  -3.626  11.737  0.00  0.00    +0.000 C 
ATOM      7  C   UNL     1       9.857  -2.366  11.813  0.00  0.00    +0.000 C 
ATOM      8  C   UNL     1       9.147  -3.696  11.971  0.00  0.00    +0.000 C 
ENDROOT
BRANCH   6  10
ATOM      9  O   UNL     1       5.666  -4.336  13.780  0.00  0.00    +0.000 OA
ATOM     10  N   UNL     1       6.893  -4.773  11.858  0.00  0.00    +0.000 N 
ATOM     11  C   UNL     1       5.978  -5.056  12.842  0.00  0.00    +0.000 C 
ATOM     12  H   UNL     1       7.057  -5.472  11.136  0.00  0.00    +0.000 HD
BRANCH  11  14
ATOM     13  C   UNL     1       4.795  -7.411  12.619  0.00  0.00    +0.000 C 
ATOM     14  C   UNL     1       5.339  -6.345  12.720  0.00  0.00    +0.000 C 
BRANCH  13  15
ATOM     15  C   UNL     1       4.148  -8.665  12.495  0.00  0.00    +0.000 C 
ATOM     16  C   UNL     1       2.789  -8.700  11.856  0.00  0.00    +0.000 C 
ATOM     17  C   UNL     1       4.662  -9.885  12.976  0.00  0.00    +0.000 C 
ATOM     18  C   UNL     1       5.166 -11.114  13.449  0.00  0.00    +0.000 C 
ATOM     19  C   UNL     1       6.637 -11.197  13.732  0.00  0.00    +0.000 C 
ATOM     20  C   UNL     1       4.385 -12.255  13.697  0.00  0.00    +0.000 C 
ATOM     21  C   UNL     1       3.668 -13.301  13.931  0.00  0.00    +0.000 C 
ATOM     22  C   UNL     1       3.410 -14.278  12.826  0.00  0.00    +0.000 C 
ATOM     23  C   UNL     1       2.837 -13.353  15.175  0.00  0.00    +0.000 C 
ENDBRANCH  13  15
ENDBRANCH  11  14
ENDBRANCH   6  10
BRANCH   3  24
ATOM     24  O   UNL     1       7.186  -0.239  12.245  0.00  0.00    +0.000 OA
ATOM     25  H   UNL     1       6.279  -0.545  12.417  0.00  0.00    +0.000 HD
ENDBRANCH   3  24
BRANCH   3  26
ATOM     26  C   UNL     1       7.416  -0.516   9.914  0.00  0.00    +0.000 C 
ATOM     27  C   UNL     1       7.131   0.074   8.530  0.00  0.00    +0.000 C 
BRANCH  27  28
ATOM     28  C   UNL     1       6.849   0.662   7.144  0.00  0.00    +0.000 C 
ATOM     29  C   UNL     1       6.568   1.247   5.757  0.00  0.00    +0.000 C 
BRANCH  29  31
ATOM     30  O   UNL     1       7.106   2.468   3.838  0.00  0.00    +0.000 OA
ATOM     31  C   UNL     1       6.304   1.793   4.460  0.00  0.00    +0.000 C 
BRANCH  31  32
ATOM     32  O   UNL     1       5.083   1.497   3.980  0.00  0.00    +0.000 OA
ATOM     33  H   UNL     1       4.486   2.085   4.488  0.00  0.00    +0.000 HD
ENDBRANCH  31  32
ENDBRANCH  29  31
ENDBRANCH  27  28
ENDBRANCH   3  26
TORSDOF 8
ENDMDL
MODEL 7
REMARK VINA RESULT:      -4.9     11.053     15.137
REMARK  Name = 122178712_SalternamideA.pdbqt.pdb
REMARK  8 active torsions:
REMARK  status: ('A' for Active; 'I' for Inactive)
REMARK    1  A    between atoms: C_3  and  O_24
REMARK    2  A    between atoms: C_3  and  C_26
REMARK    3  A    between atoms: C_6  and  N_10
REMARK    4  A    between atoms: C_11  and  C_14
REMARK    5  A    between atoms: C_13  and  C_15
REMARK    6  A    between atoms: C_27  and  C_28
REMARK    7  A    between atoms: C_29  and  C_31
REMARK    8  A    between atoms: C_31  and  O_32
REMARK                            x       y       z     vdW  Elec       q    Type
REMARK                         _______ _______ _______ _____ _____    ______ ____
ROOT
ATOM      1 CL   UNL     1     -19.476  -0.590  -4.961  0.00  0.00    +0.000 Cl
ATOM      2  O   UNL     1     -16.377  -0.446  -4.400  0.00  0.00    +0.000 OA
ATOM      3  C   UNL     1     -18.871  -1.370  -1.011  0.00  0.00    +0.000 C 
ATOM      4  C   UNL     1     -17.408  -1.272  -1.146  0.00  0.00    +0.000 C 
ATOM      5  C   UNL     1     -19.236  -1.056  -2.403  0.00  0.00    +0.000 C 
ATOM      6  C   UNL     1     -16.526  -1.002  -2.064  0.00  0.00    +0.000 C 
ATOM      7  C   UNL     1     -18.621  -0.747  -3.507  0.00  0.00    +0.000 C 
ATOM      8  C   UNL     1     -17.107  -0.696  -3.450  0.00  0.00    +0.000 C 
ENDROOT
BRANCH   6  10
ATOM      9  O   UNL     1     -14.739   1.302  -1.850  0.00  0.00    +0.000 OA
ATOM     10  N   UNL     1     -15.166  -0.979  -1.901  0.00  0.00    +0.000 N 
ATOM     11  C   UNL     1     -14.372   0.137  -1.804  0.00  0.00    +0.000 C 
ATOM     12  H   UNL     1     -14.720  -1.893  -1.850  0.00  0.00    +0.000 HD
BRANCH  11  14
ATOM     13  C   UNL     1     -11.791  -0.349  -1.489  0.00  0.00    +0.000 C 
ATOM     14  C   UNL     1     -12.965  -0.136  -1.631  0.00  0.00    +0.000 C 
BRANCH  13  15
ATOM     15  C   UNL     1     -10.407  -0.594  -1.318  0.00  0.00    +0.000 C 
ATOM     16  C   UNL     1      -9.851  -1.898  -1.816  0.00  0.00    +0.000 C 
ATOM     17  C   UNL     1      -9.511   0.277  -0.665  0.00  0.00    +0.000 C 
ATOM     18  C   UNL     1      -8.604   1.139  -0.017  0.00  0.00    +0.000 C 
ATOM     19  C   UNL     1      -9.007   2.575   0.145  0.00  0.00    +0.000 C 
ATOM     20  C   UNL     1      -7.362   0.743   0.508  0.00  0.00    +0.000 C 
ATOM     21  C   UNL     1      -6.225   0.381   0.996  0.00  0.00    +0.000 C 
ATOM     22  C   UNL     1      -5.011   0.396   0.121  0.00  0.00    +0.000 C 
ATOM     23  C   UNL     1      -6.192  -0.360   2.297  0.00  0.00    +0.000 C 
ENDBRANCH  13  15
ENDBRANCH  11  14
ENDBRANCH   6  10
BRANCH   3  24
ATOM     24  O   UNL     1     -19.333  -0.338  -0.165  0.00  0.00    +0.000 OA
ATOM     25  H   UNL     1     -19.400   0.455  -0.724  0.00  0.00    +0.000 HD
ENDBRANCH   3  24
BRANCH   3  26
ATOM     26  C   UNL     1     -19.348  -2.666  -0.545  0.00  0.00    +0.000 C 
ATOM     27  C   UNL     1     -19.855  -4.026  -0.057  0.00  0.00    +0.000 C 
BRANCH  27  28
ATOM     28  C   UNL     1     -20.365  -5.386   0.428  0.00  0.00    +0.000 C 
ATOM     29  C   UNL     1     -20.872  -6.747   0.916  0.00  0.00    +0.000 C 
BRANCH  29  31
ATOM     30  O   UNL     1     -22.524  -8.332   1.383  0.00  0.00    +0.000 OA
ATOM     31  C   UNL     1     -21.347  -8.018   1.372  0.00  0.00    +0.000 C 
BRANCH  31  32
ATOM     32  O   UNL     1     -20.374  -8.846   1.792  0.00  0.00    +0.000 OA
ATOM     33  H   UNL     1     -19.574  -8.282   1.791  0.00  0.00    +0.000 HD
ENDBRANCH  31  32
ENDBRANCH  29  31
ENDBRANCH  27  28
ENDBRANCH   3  26
TORSDOF 8
ENDMDL
MODEL 8
REMARK VINA RESULT:      -4.9     24.361     28.933
REMARK  Name = 122178712_SalternamideA.pdbqt.pdb
REMARK  8 active torsions:
REMARK  status: ('A' for Active; 'I' for Inactive)
REMARK    1  A    between atoms: C_3  and  O_24
REMARK    2  A    between atoms: C_3  and  C_26
REMARK    3  A    between atoms: C_6  and  N_10
REMARK    4  A    between atoms: C_11  and  C_14
REMARK    5  A    between atoms: C_13  and  C_15
REMARK    6  A    between atoms: C_27  and  C_28
REMARK    7  A    between atoms: C_29  and  C_31
REMARK    8  A    between atoms: C_31  and  O_32
REMARK                            x       y       z     vdW  Elec       q    Type
REMARK                         _______ _______ _______ _____ _____    ______ ____
ROOT
ATOM      1 CL   UNL     1       3.419  -9.074  -7.722  0.00  0.00    +0.000 Cl
ATOM      2  O   UNL     1       2.057  -7.766  -5.196  0.00  0.00    +0.000 OA
ATOM      3  C   UNL     1       3.368 -11.845  -4.739  0.00  0.00    +0.000 C 
ATOM      4  C   UNL     1       2.753 -10.907  -3.786  0.00  0.00    +0.000 C 
ATOM      5  C   UNL     1       3.406 -10.960  -5.915  0.00  0.00    +0.000 C 
ATOM      6  C   UNL     1       2.302  -9.685  -3.767  0.00  0.00    +0.000 C 
ATOM      7  C   UNL     1       3.046  -9.746  -6.212  0.00  0.00    +0.000 C 
ATOM      8  C   UNL     1       2.428  -8.929  -5.095  0.00  0.00    +0.000 C 
ENDROOT
BRANCH   6  10
ATOM      9  O   UNL     1      -0.516  -9.371  -3.054  0.00  0.00    +0.000 OA
ATOM     10  N   UNL     1       1.753  -9.040  -2.690  0.00  0.00    +0.000 N 
ATOM     11  C   UNL     1       0.416  -8.923  -2.401  0.00  0.00    +0.000 C 
ATOM     12  H   UNL     1       2.423  -8.610  -2.055  0.00  0.00    +0.000 HD
BRANCH  11  14
ATOM     13  C   UNL     1      -0.128  -7.568  -0.196  0.00  0.00    +0.000 C 
ATOM     14  C   UNL     1       0.120  -8.190  -1.193  0.00  0.00    +0.000 C 
BRANCH  13  15
ATOM     15  C   UNL     1      -0.426  -6.830   0.976  0.00  0.00    +0.000 C 
ATOM     16  C   UNL     1      -0.689  -7.593   2.244  0.00  0.00    +0.000 C 
ATOM     17  C   UNL     1      -0.547  -5.428   1.034  0.00  0.00    +0.000 C 
ATOM     18  C   UNL     1      -0.668  -4.026   1.108  0.00  0.00    +0.000 C 
ATOM     19  C   UNL     1      -0.052  -3.218   0.004  0.00  0.00    +0.000 C 
ATOM     20  C   UNL     1      -1.345  -3.335   2.127  0.00  0.00    +0.000 C 
ATOM     21  C   UNL     1      -1.971  -2.700   3.058  0.00  0.00    +0.000 C 
ATOM     22  C   UNL     1      -1.237  -2.311   4.305  0.00  0.00    +0.000 C 
ATOM     23  C   UNL     1      -3.467  -2.661   3.037  0.00  0.00    +0.000 C 
ENDBRANCH  13  15
ENDBRANCH  11  14
ENDBRANCH   6  10
BRANCH   3  24
ATOM     24  O   UNL     1       2.477 -12.911  -4.988  0.00  0.00    +0.000 OA
ATOM     25  H   UNL     1       1.760 -12.539  -5.530  0.00  0.00    +0.000 HD
ENDBRANCH   3  24
BRANCH   3  26
ATOM     26  C   UNL     1       4.671 -12.353  -4.329  0.00  0.00    +0.000 C 
ATOM     27  C   UNL     1       6.038 -12.891  -3.895  0.00  0.00    +0.000 C 
BRANCH  27  28
ATOM     28  C   UNL     1       7.402 -13.433  -3.459  0.00  0.00    +0.000 C 
ATOM     29  C   UNL     1       8.765 -13.976  -3.021  0.00  0.00    +0.000 C 
BRANCH  29  31
ATOM     30  O   UNL     1      10.867 -14.931  -3.388  0.00  0.00    +0.000 OA
ATOM     31  C   UNL     1      10.039 -14.485  -2.612  0.00  0.00    +0.000 C 
BRANCH  31  32
ATOM     32  O   UNL     1      10.250 -14.429  -1.284  0.00  0.00    +0.000 OA
ATOM     33  H   UNL     1       9.524 -14.971  -0.913  0.00  0.00    +0.000 HD
ENDBRANCH  31  32
ENDBRANCH  29  31
ENDBRANCH  27  28
ENDBRANCH   3  26
TORSDOF 8
ENDMDL
MODEL 9
REMARK VINA RESULT:      -4.8     20.591     23.261
REMARK  Name = 122178712_SalternamideA.pdbqt.pdb
REMARK  8 active torsions:
REMARK  status: ('A' for Active; 'I' for Inactive)
REMARK    1  A    between atoms: C_3  and  O_24
REMARK    2  A    between atoms: C_3  and  C_26
REMARK    3  A    between atoms: C_6  and  N_10
REMARK    4  A    between atoms: C_11  and  C_14
REMARK    5  A    between atoms: C_13  and  C_15
REMARK    6  A    between atoms: C_27  and  C_28
REMARK    7  A    between atoms: C_29  and  C_31
REMARK    8  A    between atoms: C_31  and  O_32
REMARK                            x       y       z     vdW  Elec       q    Type
REMARK                         _______ _______ _______ _____ _____    ______ ____
ROOT
ATOM      1 CL   UNL     1      -5.089  -5.830   2.813  0.00  0.00    +0.000 Cl
ATOM      2  O   UNL     1      -3.508  -7.543   0.689  0.00  0.00    +0.000 OA
ATOM      3  C   UNL     1      -2.273  -3.436   1.104  0.00  0.00    +0.000 C 
ATOM      4  C   UNL     1      -1.748  -4.531   0.273  0.00  0.00    +0.000 C 
ATOM      5  C   UNL     1      -3.363  -4.172   1.765  0.00  0.00    +0.000 C 
ATOM      6  C   UNL     1      -2.004  -5.785   0.030  0.00  0.00    +0.000 C 
ATOM      7  C   UNL     1      -3.861  -5.374   1.738  0.00  0.00    +0.000 C 
ATOM      8  C   UNL     1      -3.183  -6.369   0.817  0.00  0.00    +0.000 C 
ENDROOT
BRANCH   6  10
ATOM      9  O   UNL     1       0.199  -7.625   0.588  0.00  0.00    +0.000 OA
ATOM     10  N   UNL     1      -1.321  -6.599  -0.835  0.00  0.00    +0.000 N 
ATOM     11  C   UNL     1      -0.290  -7.448  -0.518  0.00  0.00    +0.000 C 
ATOM     12  H   UNL     1      -1.625  -6.551  -1.806  0.00  0.00    +0.000 HD
BRANCH  11  14
ATOM     13  C   UNL     1       0.686  -8.825  -2.555  0.00  0.00    +0.000 C 
ATOM     14  C   UNL     1       0.244  -8.194  -1.634  0.00  0.00    +0.000 C 
BRANCH  13  15
ATOM     15  C   UNL     1       1.202  -9.576  -3.640  0.00  0.00    +0.000 C 
ATOM     16  C   UNL     1       2.672  -9.474  -3.935  0.00  0.00    +0.000 C 
ATOM     17  C   UNL     1       0.429 -10.377  -4.503  0.00  0.00    +0.000 C 
ATOM     18  C   UNL     1      -0.332 -11.186  -5.372  0.00  0.00    +0.000 C 
ATOM     19  C   UNL     1      -1.689 -11.621  -4.903  0.00  0.00    +0.000 C 
ATOM     20  C   UNL     1       0.081 -11.591  -6.652  0.00  0.00    +0.000 C 
ATOM     21  C   UNL     1       0.456 -11.958  -7.830  0.00  0.00    +0.000 C 
ATOM     22  C   UNL     1       1.253 -13.215  -7.989  0.00  0.00    +0.000 C 
ATOM     23  C   UNL     1       0.390 -10.974  -8.956  0.00  0.00    +0.000 C 
ENDBRANCH  13  15
ENDBRANCH  11  14
ENDBRANCH   6  10
BRANCH   3  24
ATOM     24  O   UNL     1      -2.825  -2.439   0.270  0.00  0.00    +0.000 OA
ATOM     25  H   UNL     1      -2.419  -1.601   0.550  0.00  0.00    +0.000 HD
ENDBRANCH   3  24
BRANCH   3  26
ATOM     26  C   UNL     1      -1.300  -2.854   2.020  0.00  0.00    +0.000 C 
ATOM     27  C   UNL     1      -0.277  -2.249   2.986  0.00  0.00    +0.000 C 
BRANCH  27  28
ATOM     28  C   UNL     1       0.747  -1.647   3.952  0.00  0.00    +0.000 C 
ATOM     29  C   UNL     1       1.772  -1.043   4.917  0.00  0.00    +0.000 C 
BRANCH  29  31
ATOM     30  O   UNL     1       3.664   0.216   5.459  0.00  0.00    +0.000 OA
ATOM     31  C   UNL     1       2.729  -0.478   5.818  0.00  0.00    +0.000 C 
BRANCH  31  32
ATOM     32  O   UNL     1       2.508  -0.781   7.110  0.00  0.00    +0.000 OA
ATOM     33  H   UNL     1       3.171  -0.243   7.590  0.00  0.00    +0.000 HD
ENDBRANCH  31  32
ENDBRANCH  29  31
ENDBRANCH  27  28
ENDBRANCH   3  26
TORSDOF 8
ENDMDL
