MODEL 1
REMARK VINA RESULT:      -5.0      0.000      0.000
REMARK  Name = 122180587_TripolinolateA.pdbqt.pdb
REMARK  9 active torsions:
REMARK  status: ('A' for Active; 'I' for Inactive)
REMARK    1  A    between atoms: C_1  and  O_16
REMARK    2  A    between atoms: C_2  and  O_7
REMARK    3  A    between atoms: C_3  and  C_9
REMARK    4  A    between atoms: C_10  and  C_11
REMARK    5  A    between atoms: C_11  and  O_12
REMARK    6  A    between atoms: O_12  and  C_14
REMARK    7  A    between atoms: O_16  and  C_18
REMARK    8  A    between atoms: C_18  and  C_19
REMARK    9  A    between atoms: C_19  and  C_21
REMARK                            x       y       z     vdW  Elec       q    Type
REMARK                         _______ _______ _______ _____ _____    ______ ____
ROOT
ATOM      1  C   UNL     1     -11.209  -3.859  21.420  0.00  0.00    +0.000 A 
ATOM      2  C   UNL     1     -11.755  -3.422  22.631  0.00  0.00    +0.000 A 
ATOM      3  C   UNL     1     -10.898  -5.436  23.678  0.00  0.00    +0.000 A 
ATOM      4  C   UNL     1     -10.541  -5.082  21.320  0.00  0.00    +0.000 A 
ATOM      5  C   UNL     1     -11.585  -4.226  23.762  0.00  0.00    +0.000 A 
ATOM      6  C   UNL     1     -10.379  -5.866  22.458  0.00  0.00    +0.000 A 
ENDROOT
BRANCH   2   7
ATOM      7  O   UNL     1     -12.441  -2.235  22.620  0.00  0.00    +0.000 OA
ATOM      8  C   UNL     1     -11.780  -1.146  23.203  0.00  0.00    +0.000 C 
ENDBRANCH   2   7
BRANCH   3   9
ATOM      9  C   UNL     1     -10.730  -6.240  24.844  0.00  0.00    +0.000 C 
ATOM     10  C   UNL     1     -10.588  -6.916  25.826  0.00  0.00    +0.000 C 
BRANCH  10  11
ATOM     11  C   UNL     1     -10.402  -7.780  27.078  0.00  0.00    +0.000 C 
BRANCH  11  12
ATOM     12  O   UNL     1     -10.240  -8.529  28.166  0.00  0.00    +0.000 OA
BRANCH  12  14
ATOM     13  O   UNL     1      -9.550 -10.452  27.030  0.00  0.00    +0.000 OA
ATOM     14  C   UNL     1      -9.570  -9.682  27.972  0.00  0.00    +0.000 C 
ATOM     15  C   UNL     1      -8.698 -10.088  29.112  0.00  0.00    +0.000 C 
ENDBRANCH  12  14
ENDBRANCH  11  12
ENDBRANCH  10  11
ENDBRANCH   3   9
BRANCH   1  16
ATOM     16  O   UNL     1     -11.403  -3.105  20.255  0.00  0.00    +0.000 OA
BRANCH  16  18
ATOM     17  O   UNL     1      -9.902  -3.374  18.499  0.00  0.00    +0.000 OA
ATOM     18  C   UNL     1     -10.228  -2.853  19.558  0.00  0.00    +0.000 C 
BRANCH  18  19
ATOM     19  C   UNL     1      -9.393  -1.863  20.283  0.00  0.00    +0.000 C 
ATOM     20  C   UNL     1      -9.608  -0.358  20.193  0.00  0.00    +0.000 C 
BRANCH  19  21
ATOM     21  C   UNL     1      -8.338  -2.327  21.112  0.00  0.00    +0.000 C 
ATOM     22  C   UNL     1      -7.199  -2.834  22.016  0.00  0.00    +0.000 C 
ENDBRANCH  19  21
ENDBRANCH  18  19
ENDBRANCH  16  18
ENDBRANCH   1  16
TORSDOF 9
ENDMDL
MODEL 2
REMARK VINA RESULT:      -4.7      3.538      9.411
REMARK  Name = 122180587_TripolinolateA.pdbqt.pdb
REMARK  9 active torsions:
REMARK  status: ('A' for Active; 'I' for Inactive)
REMARK    1  A    between atoms: C_1  and  O_16
REMARK    2  A    between atoms: C_2  and  O_7
REMARK    3  A    between atoms: C_3  and  C_9
REMARK    4  A    between atoms: C_10  and  C_11
REMARK    5  A    between atoms: C_11  and  O_12
REMARK    6  A    between atoms: O_12  and  C_14
REMARK    7  A    between atoms: O_16  and  C_18
REMARK    8  A    between atoms: C_18  and  C_19
REMARK    9  A    between atoms: C_19  and  C_21
REMARK                            x       y       z     vdW  Elec       q    Type
REMARK                         _______ _______ _______ _____ _____    ______ ____
ROOT
ATOM      1  C   UNL     1      -9.655  -3.598  22.359  0.00  0.00    +0.000 A 
ATOM      2  C   UNL     1      -9.275  -3.553  21.013  0.00  0.00    +0.000 A 
ATOM      3  C   UNL     1      -9.536  -1.142  21.080  0.00  0.00    +0.000 A 
ATOM      4  C   UNL     1     -10.003  -2.440  23.057  0.00  0.00    +0.000 A 
ATOM      5  C   UNL     1      -9.215  -2.307  20.383  0.00  0.00    +0.000 A 
ATOM      6  C   UNL     1      -9.933  -1.208  22.414  0.00  0.00    +0.000 A 
ENDROOT
BRANCH   2   7
ATOM      7  O   UNL     1      -9.005  -4.748  20.395  0.00  0.00    +0.000 OA
ATOM      8  C   UNL     1      -9.013  -4.722  18.995  0.00  0.00    +0.000 C 
ENDBRANCH   2   7
BRANCH   3   9
ATOM      9  C   UNL     1      -9.464   0.121  20.421  0.00  0.00    +0.000 C 
ATOM     10  C   UNL     1      -9.405   1.184  19.866  0.00  0.00    +0.000 C 
BRANCH  10  11
ATOM     11  C   UNL     1      -9.328   2.538  19.153  0.00  0.00    +0.000 C 
BRANCH  11  12
ATOM     12  O   UNL     1      -9.260   3.713  18.532  0.00  0.00    +0.000 OA
BRANCH  12  14
ATOM     13  O   UNL     1     -10.773   4.700  20.017  0.00  0.00    +0.000 OA
ATOM     14  C   UNL     1     -10.091   4.661  19.010  0.00  0.00    +0.000 C 
ATOM     15  C   UNL     1     -10.194   5.878  18.154  0.00  0.00    +0.000 C 
ENDBRANCH  12  14
ENDBRANCH  11  12
ENDBRANCH  10  11
ENDBRANCH   3   9
BRANCH   1  16
ATOM     16  O   UNL     1      -9.776  -4.834  23.008  0.00  0.00    +0.000 OA
BRANCH  16  18
ATOM     17  O   UNL     1      -7.627  -4.678  23.885  0.00  0.00    +0.000 OA
ATOM     18  C   UNL     1      -8.790  -5.055  23.962  0.00  0.00    +0.000 C 
BRANCH  18  19
ATOM     19  C   UNL     1      -9.330  -5.837  25.102  0.00  0.00    +0.000 C 
ATOM     20  C   UNL     1      -8.460  -6.416  26.209  0.00  0.00    +0.000 C 
BRANCH  19  21
ATOM     21  C   UNL     1     -10.730  -6.061  25.182  0.00  0.00    +0.000 C 
ATOM     22  C   UNL     1     -12.247  -6.310  25.273  0.00  0.00    +0.000 C 
ENDBRANCH  19  21
ENDBRANCH  18  19
ENDBRANCH  16  18
ENDBRANCH   1  16
TORSDOF 9
ENDMDL
MODEL 3
REMARK VINA RESULT:      -4.7      1.417      1.985
REMARK  Name = 122180587_TripolinolateA.pdbqt.pdb
REMARK  9 active torsions:
REMARK  status: ('A' for Active; 'I' for Inactive)
REMARK    1  A    between atoms: C_1  and  O_16
REMARK    2  A    between atoms: C_2  and  O_7
REMARK    3  A    between atoms: C_3  and  C_9
REMARK    4  A    between atoms: C_10  and  C_11
REMARK    5  A    between atoms: C_11  and  O_12
REMARK    6  A    between atoms: O_12  and  C_14
REMARK    7  A    between atoms: O_16  and  C_18
REMARK    8  A    between atoms: C_18  and  C_19
REMARK    9  A    between atoms: C_19  and  C_21
REMARK                            x       y       z     vdW  Elec       q    Type
REMARK                         _______ _______ _______ _____ _____    ______ ____
ROOT
ATOM      1  C   UNL     1     -11.278  -3.995  21.575  0.00  0.00    +0.000 A 
ATOM      2  C   UNL     1     -11.989  -3.494  22.670  0.00  0.00    +0.000 A 
ATOM      3  C   UNL     1     -11.389  -5.495  23.903  0.00  0.00    +0.000 A 
ATOM      4  C   UNL     1     -10.653  -5.243  21.620  0.00  0.00    +0.000 A 
ATOM      5  C   UNL     1     -12.032  -4.259  23.838  0.00  0.00    +0.000 A 
ATOM      6  C   UNL     1     -10.703  -5.989  22.794  0.00  0.00    +0.000 A 
ENDROOT
BRANCH   2   7
ATOM      7  O   UNL     1     -12.617  -2.284  22.512  0.00  0.00    +0.000 OA
ATOM      8  C   UNL     1     -13.422  -1.874  23.583  0.00  0.00    +0.000 C 
ENDBRANCH   2   7
BRANCH   3   9
ATOM      9  C   UNL     1     -11.440  -6.260  25.105  0.00  0.00    +0.000 C 
ATOM     10  C   UNL     1     -11.480  -6.903  26.119  0.00  0.00    +0.000 C 
BRANCH  10  11
ATOM     11  C   UNL     1     -11.529  -7.726  27.410  0.00  0.00    +0.000 C 
BRANCH  11  12
ATOM     12  O   UNL     1     -11.572  -8.442  28.531  0.00  0.00    +0.000 OA
BRANCH  12  14
ATOM     13  O   UNL     1     -13.655  -9.386  28.043  0.00  0.00    +0.000 OA
ATOM     14  C   UNL     1     -12.571  -9.344  28.595  0.00  0.00    +0.000 C 
ATOM     15  C   UNL     1     -12.304 -10.497  29.503  0.00  0.00    +0.000 C 
ENDBRANCH  12  14
ENDBRANCH  11  12
ENDBRANCH  10  11
ENDBRANCH   3   9
BRANCH   1  16
ATOM     16  O   UNL     1     -11.257  -3.280  20.370  0.00  0.00    +0.000 OA
BRANCH  16  18
ATOM     17  O   UNL     1      -9.616  -3.850  18.824  0.00  0.00    +0.000 OA
ATOM     18  C   UNL     1      -9.995  -3.206  19.794  0.00  0.00    +0.000 C 
BRANCH  18  19
ATOM     19  C   UNL     1      -9.141  -2.239  20.528  0.00  0.00    +0.000 C 
ATOM     20  C   UNL     1      -8.024  -2.658  21.476  0.00  0.00    +0.000 C 
BRANCH  19  21
ATOM     21  C   UNL     1      -9.359  -0.849  20.345  0.00  0.00    +0.000 C 
ATOM     22  C   UNL     1      -9.602   0.659  20.141  0.00  0.00    +0.000 C 
ENDBRANCH  19  21
ENDBRANCH  18  19
ENDBRANCH  16  18
ENDBRANCH   1  16
TORSDOF 9
ENDMDL
MODEL 4
REMARK VINA RESULT:      -4.7      1.818      2.714
REMARK  Name = 122180587_TripolinolateA.pdbqt.pdb
REMARK  9 active torsions:
REMARK  status: ('A' for Active; 'I' for Inactive)
REMARK    1  A    between atoms: C_1  and  O_16
REMARK    2  A    between atoms: C_2  and  O_7
REMARK    3  A    between atoms: C_3  and  C_9
REMARK    4  A    between atoms: C_10  and  C_11
REMARK    5  A    between atoms: C_11  and  O_12
REMARK    6  A    between atoms: O_12  and  C_14
REMARK    7  A    between atoms: O_16  and  C_18
REMARK    8  A    between atoms: C_18  and  C_19
REMARK    9  A    between atoms: C_19  and  C_21
REMARK                            x       y       z     vdW  Elec       q    Type
REMARK                         _______ _______ _______ _____ _____    ______ ____
ROOT
ATOM      1  C   UNL     1      -9.819  -3.746  23.080  0.00  0.00    +0.000 A 
ATOM      2  C   UNL     1     -10.949  -4.556  23.234  0.00  0.00    +0.000 A 
ATOM      3  C   UNL     1      -9.648  -5.995  24.690  0.00  0.00    +0.000 A 
ATOM      4  C   UNL     1      -8.605  -4.064  23.692  0.00  0.00    +0.000 A 
ATOM      5  C   UNL     1     -10.849  -5.683  24.054  0.00  0.00    +0.000 A 
ATOM      6  C   UNL     1      -8.526  -5.188  24.508  0.00  0.00    +0.000 A 
ENDROOT
BRANCH   2   7
ATOM      7  O   UNL     1     -12.082  -4.193  22.549  0.00  0.00    +0.000 OA
ATOM      8  C   UNL     1     -13.283  -4.309  23.259  0.00  0.00    +0.000 C 
ENDBRANCH   2   7
BRANCH   3   9
ATOM      9  C   UNL     1      -9.567  -7.147  25.527  0.00  0.00    +0.000 C 
ATOM     10  C   UNL     1      -9.496  -8.117  26.231  0.00  0.00    +0.000 C 
BRANCH  10  11
ATOM     11  C   UNL     1      -9.403  -9.357  27.127  0.00  0.00    +0.000 C 
BRANCH  11  12
ATOM     12  O   UNL     1      -9.321 -10.434  27.904  0.00  0.00    +0.000 OA
BRANCH  12  14
ATOM     13  O   UNL     1      -9.608 -10.558  30.221  0.00  0.00    +0.000 OA
ATOM     14  C   UNL     1      -9.058 -10.184  29.201  0.00  0.00    +0.000 C 
ATOM     15  C   UNL     1      -7.886  -9.291  29.432  0.00  0.00    +0.000 C 
ENDBRANCH  12  14
ENDBRANCH  11  12
ENDBRANCH  10  11
ENDBRANCH   3   9
BRANCH   1  16
ATOM     16  O   UNL     1      -9.868  -2.636  22.225  0.00  0.00    +0.000 OA
BRANCH  16  18
ATOM     17  O   UNL     1      -7.799  -1.957  21.407  0.00  0.00    +0.000 OA
ATOM     18  C   UNL     1      -8.832  -2.607  21.300  0.00  0.00    +0.000 C 
BRANCH  18  19
ATOM     19  C   UNL     1      -9.148  -3.467  20.133  0.00  0.00    +0.000 C 
ATOM     20  C   UNL     1      -8.668  -4.906  19.997  0.00  0.00    +0.000 C 
BRANCH  19  21
ATOM     21  C   UNL     1      -9.944  -2.939  19.082  0.00  0.00    +0.000 C 
ATOM     22  C   UNL     1     -10.810  -2.373  17.941  0.00  0.00    +0.000 C 
ENDBRANCH  19  21
ENDBRANCH  18  19
ENDBRANCH  16  18
ENDBRANCH   1  16
TORSDOF 9
ENDMDL
MODEL 5
REMARK VINA RESULT:      -4.6      1.890      2.275
REMARK  Name = 122180587_TripolinolateA.pdbqt.pdb
REMARK  9 active torsions:
REMARK  status: ('A' for Active; 'I' for Inactive)
REMARK    1  A    between atoms: C_1  and  O_16
REMARK    2  A    between atoms: C_2  and  O_7
REMARK    3  A    between atoms: C_3  and  C_9
REMARK    4  A    between atoms: C_10  and  C_11
REMARK    5  A    between atoms: C_11  and  O_12
REMARK    6  A    between atoms: O_12  and  C_14
REMARK    7  A    between atoms: O_16  and  C_18
REMARK    8  A    between atoms: C_18  and  C_19
REMARK    9  A    between atoms: C_19  and  C_21
REMARK                            x       y       z     vdW  Elec       q    Type
REMARK                         _______ _______ _______ _____ _____    ______ ____
ROOT
ATOM      1  C   UNL     1     -10.296  -3.480  22.869  0.00  0.00    +0.000 A 
ATOM      2  C   UNL     1     -11.627  -3.836  23.108  0.00  0.00    +0.000 A 
ATOM      3  C   UNL     1     -10.832  -5.616  24.551  0.00  0.00    +0.000 A 
ATOM      4  C   UNL     1      -9.237  -4.195  23.432  0.00  0.00    +0.000 A 
ATOM      5  C   UNL     1     -11.882  -4.911  23.963  0.00  0.00    +0.000 A 
ATOM      6  C   UNL     1      -9.511  -5.261  24.284  0.00  0.00    +0.000 A 
ENDROOT
BRANCH   2   7
ATOM      7  O   UNL     1     -12.598  -3.109  22.467  0.00  0.00    +0.000 OA
ATOM      8  C   UNL     1     -13.365  -2.268  23.283  0.00  0.00    +0.000 C 
ENDBRANCH   2   7
BRANCH   3   9
ATOM      9  C   UNL     1     -11.111  -6.708  25.425  0.00  0.00    +0.000 C 
ATOM     10  C   UNL     1     -11.346  -7.629  26.159  0.00  0.00    +0.000 C 
BRANCH  10  11
ATOM     11  C   UNL     1     -11.645  -8.806  27.093  0.00  0.00    +0.000 C 
BRANCH  11  12
ATOM     12  O   UNL     1     -11.907  -9.829  27.904  0.00  0.00    +0.000 OA
BRANCH  12  14
ATOM     13  O   UNL     1     -12.193 -12.021  27.142  0.00  0.00    +0.000 OA
ATOM     14  C   UNL     1     -11.538 -11.038  27.436  0.00  0.00    +0.000 C 
ATOM     15  C   UNL     1     -10.068 -11.203  27.245  0.00  0.00    +0.000 C 
ENDBRANCH  12  14
ENDBRANCH  11  12
ENDBRANCH  10  11
ENDBRANCH   3   9
BRANCH   1  16
ATOM     16  O   UNL     1     -10.002  -2.440  21.977  0.00  0.00    +0.000 OA
BRANCH  16  18
ATOM     17  O   UNL     1      -7.778  -2.470  21.296  0.00  0.00    +0.000 OA
ATOM     18  C   UNL     1      -8.959  -2.736  21.108  0.00  0.00    +0.000 C 
BRANCH  18  19
ATOM     19  C   UNL     1      -9.468  -3.416  19.891  0.00  0.00    +0.000 C 
ATOM     20  C   UNL     1     -10.565  -2.839  19.006  0.00  0.00    +0.000 C 
BRANCH  19  21
ATOM     21  C   UNL     1      -8.912  -4.667  19.516  0.00  0.00    +0.000 C 
ATOM     22  C   UNL     1      -8.314  -6.026  19.105  0.00  0.00    +0.000 C 
ENDBRANCH  19  21
ENDBRANCH  18  19
ENDBRANCH  16  18
ENDBRANCH   1  16
TORSDOF 9
ENDMDL
MODEL 6
REMARK VINA RESULT:      -4.4     18.111     21.922
REMARK  Name = 122180587_TripolinolateA.pdbqt.pdb
REMARK  9 active torsions:
REMARK  status: ('A' for Active; 'I' for Inactive)
REMARK    1  A    between atoms: C_1  and  O_16
REMARK    2  A    between atoms: C_2  and  O_7
REMARK    3  A    between atoms: C_3  and  C_9
REMARK    4  A    between atoms: C_10  and  C_11
REMARK    5  A    between atoms: C_11  and  O_12
REMARK    6  A    between atoms: O_12  and  C_14
REMARK    7  A    between atoms: O_16  and  C_18
REMARK    8  A    between atoms: C_18  and  C_19
REMARK    9  A    between atoms: C_19  and  C_21
REMARK                            x       y       z     vdW  Elec       q    Type
REMARK                         _______ _______ _______ _____ _____    ______ ____
ROOT
ATOM      1  C   UNL     1     -21.901  -6.743   8.583  0.00  0.00    +0.000 A 
ATOM      2  C   UNL     1     -20.902  -6.011   7.934  0.00  0.00    +0.000 A 
ATOM      3  C   UNL     1     -22.082  -6.360   5.844  0.00  0.00    +0.000 A 
ATOM      4  C   UNL     1     -22.966  -7.308   7.877  0.00  0.00    +0.000 A 
ATOM      5  C   UNL     1     -21.009  -5.822   6.553  0.00  0.00    +0.000 A 
ATOM      6  C   UNL     1     -23.058  -7.105   6.503  0.00  0.00    +0.000 A 
ENDROOT
BRANCH   2   7
ATOM      7  O   UNL     1     -19.866  -5.542   8.702  0.00  0.00    +0.000 OA
ATOM      8  C   UNL     1     -18.895  -4.796   8.022  0.00  0.00    +0.000 C 
ENDBRANCH   2   7
BRANCH   3   9
ATOM      9  C   UNL     1     -22.178  -6.152   4.436  0.00  0.00    +0.000 C 
ATOM     10  C   UNL     1     -22.257  -5.979   3.250  0.00  0.00    +0.000 C 
BRANCH  10  11
ATOM     11  C   UNL     1     -22.354  -5.758   1.737  0.00  0.00    +0.000 C 
BRANCH  11  12
ATOM     12  O   UNL     1     -22.437  -5.564   0.423  0.00  0.00    +0.000 OA
BRANCH  12  14
ATOM     13  O   UNL     1     -20.238  -6.015  -0.231  0.00  0.00    +0.000 OA
ATOM     14  C   UNL     1     -21.261  -5.355  -0.200  0.00  0.00    +0.000 C 
ATOM     15  C   UNL     1     -21.198  -4.092  -0.991  0.00  0.00    +0.000 C 
ENDBRANCH  12  14
ENDBRANCH  11  12
ENDBRANCH  10  11
ENDBRANCH   3   9
BRANCH   1  16
ATOM     16  O   UNL     1     -21.799  -6.997   9.957  0.00  0.00    +0.000 OA
BRANCH  16  18
ATOM     17  O   UNL     1     -22.884  -5.063  10.659  0.00  0.00    +0.000 OA
ATOM     18  C   UNL     1     -22.707  -6.273  10.721  0.00  0.00    +0.000 C 
BRANCH  18  19
ATOM     19  C   UNL     1     -23.439  -7.168  11.651  0.00  0.00    +0.000 C 
ATOM     20  C   UNL     1     -24.393  -8.261  11.188  0.00  0.00    +0.000 C 
BRANCH  19  21
ATOM     21  C   UNL     1     -23.246  -7.015  13.050  0.00  0.00    +0.000 C 
ATOM     22  C   UNL     1     -23.041  -6.855  14.568  0.00  0.00    +0.000 C 
ENDBRANCH  19  21
ENDBRANCH  18  19
ENDBRANCH  16  18
ENDBRANCH   1  16
TORSDOF 9
ENDMDL
MODEL 7
REMARK VINA RESULT:      -4.3      2.775      3.339
REMARK  Name = 122180587_TripolinolateA.pdbqt.pdb
REMARK  9 active torsions:
REMARK  status: ('A' for Active; 'I' for Inactive)
REMARK    1  A    between atoms: C_1  and  O_16
REMARK    2  A    between atoms: C_2  and  O_7
REMARK    3  A    between atoms: C_3  and  C_9
REMARK    4  A    between atoms: C_10  and  C_11
REMARK    5  A    between atoms: C_11  and  O_12
REMARK    6  A    between atoms: O_12  and  C_14
REMARK    7  A    between atoms: O_16  and  C_18
REMARK    8  A    between atoms: C_18  and  C_19
REMARK    9  A    between atoms: C_19  and  C_21
REMARK                            x       y       z     vdW  Elec       q    Type
REMARK                         _______ _______ _______ _____ _____    ______ ____
ROOT
ATOM      1  C   UNL     1     -10.157  -3.891  23.497  0.00  0.00    +0.000 A 
ATOM      2  C   UNL     1      -9.322  -3.295  24.448  0.00  0.00    +0.000 A 
ATOM      3  C   UNL     1      -8.993  -5.482  25.445  0.00  0.00    +0.000 A 
ATOM      4  C   UNL     1     -10.439  -5.258  23.528  0.00  0.00    +0.000 A 
ATOM      5  C   UNL     1      -8.738  -4.111  25.420  0.00  0.00    +0.000 A 
ATOM      6  C   UNL     1      -9.845  -6.055  24.502  0.00  0.00    +0.000 A 
ENDROOT
BRANCH   2   7
ATOM      7  O   UNL     1      -9.148  -1.936  24.370  0.00  0.00    +0.000 OA
ATOM      8  C   UNL     1      -7.821  -1.491  24.400  0.00  0.00    +0.000 C 
ENDBRANCH   2   7
BRANCH   3   9
ATOM      9  C   UNL     1      -8.384  -6.299  26.442  0.00  0.00    +0.000 C 
ATOM     10  C   UNL     1      -7.869  -6.987  27.281  0.00  0.00    +0.000 C 
BRANCH  10  11
ATOM     11  C   UNL     1      -7.211  -7.868  28.349  0.00  0.00    +0.000 C 
BRANCH  11  12
ATOM     12  O   UNL     1      -6.641  -8.632  29.277  0.00  0.00    +0.000 OA
BRANCH  12  14
ATOM     13  O   UNL     1      -4.573  -7.567  29.034  0.00  0.00    +0.000 OA
ATOM     14  C   UNL     1      -5.370  -8.306  29.583  0.00  0.00    +0.000 C 
ATOM     15  C   UNL     1      -4.843  -8.966  30.813  0.00  0.00    +0.000 C 
ENDBRANCH  12  14
ENDBRANCH  11  12
ENDBRANCH  10  11
ENDBRANCH   3   9
BRANCH   1  16
ATOM     16  O   UNL     1     -10.800  -3.096  22.538  0.00  0.00    +0.000 OA
BRANCH  16  18
ATOM     17  O   UNL     1     -11.694  -4.155  20.670  0.00  0.00    +0.000 OA
ATOM     18  C   UNL     1     -10.755  -3.632  21.257  0.00  0.00    +0.000 C 
BRANCH  18  19
ATOM     19  C   UNL     1      -9.392  -3.502  20.684  0.00  0.00    +0.000 C 
ATOM     20  C   UNL     1      -8.530  -2.257  20.845  0.00  0.00    +0.000 C 
BRANCH  19  21
ATOM     21  C   UNL     1      -8.847  -4.587  19.948  0.00  0.00    +0.000 C 
ATOM     22  C   UNL     1      -8.249  -5.764  19.155  0.00  0.00    +0.000 C 
ENDBRANCH  19  21
ENDBRANCH  18  19
ENDBRANCH  16  18
ENDBRANCH   1  16
TORSDOF 9
ENDMDL
MODEL 8
REMARK VINA RESULT:      -4.2     15.393     17.752
REMARK  Name = 122180587_TripolinolateA.pdbqt.pdb
REMARK  9 active torsions:
REMARK  status: ('A' for Active; 'I' for Inactive)
REMARK    1  A    between atoms: C_1  and  O_16
REMARK    2  A    between atoms: C_2  and  O_7
REMARK    3  A    between atoms: C_3  and  C_9
REMARK    4  A    between atoms: C_10  and  C_11
REMARK    5  A    between atoms: C_11  and  O_12
REMARK    6  A    between atoms: O_12  and  C_14
REMARK    7  A    between atoms: O_16  and  C_18
REMARK    8  A    between atoms: C_18  and  C_19
REMARK    9  A    between atoms: C_19  and  C_21
REMARK                            x       y       z     vdW  Elec       q    Type
REMARK                         _______ _______ _______ _____ _____    ______ ____
ROOT
ATOM      1  C   UNL     1     -15.853 -16.171  13.822  0.00  0.00    +0.000 A 
ATOM      2  C   UNL     1     -15.773 -17.079  12.761  0.00  0.00    +0.000 A 
ATOM      3  C   UNL     1     -13.542 -16.249  12.295  0.00  0.00    +0.000 A 
ATOM      4  C   UNL     1     -14.810 -15.287  14.106  0.00  0.00    +0.000 A 
ATOM      5  C   UNL     1     -14.600 -17.110  12.003  0.00  0.00    +0.000 A 
ATOM      6  C   UNL     1     -13.648 -15.336  13.343  0.00  0.00    +0.000 A 
ENDROOT
BRANCH   2   7
ATOM      7  O   UNL     1     -16.870 -17.868  12.525  0.00  0.00    +0.000 OA
ATOM      8  C   UNL     1     -16.736 -19.216  12.883  0.00  0.00    +0.000 C 
ENDBRANCH   2   7
BRANCH   3   9
ATOM      9  C   UNL     1     -12.350 -16.299  11.513  0.00  0.00    +0.000 C 
ATOM     10  C   UNL     1     -11.347 -16.340  10.854  0.00  0.00    +0.000 C 
BRANCH  10  11
ATOM     11  C   UNL     1     -10.070 -16.392  10.010  0.00  0.00    +0.000 C 
BRANCH  11  12
ATOM     12  O   UNL     1      -8.962 -16.437   9.274  0.00  0.00    +0.000 OA
BRANCH  12  14
ATOM     13  O   UNL     1      -9.074 -17.543   7.217  0.00  0.00    +0.000 OA
ATOM     14  C   UNL     1      -8.885 -17.475   8.418  0.00  0.00    +0.000 C 
ATOM     15  C   UNL     1      -8.503 -18.770   9.051  0.00  0.00    +0.000 C 
ENDBRANCH  12  14
ENDBRANCH  11  12
ENDBRANCH  10  11
ENDBRANCH   3   9
BRANCH   1  16
ATOM     16  O   UNL     1     -17.034 -16.075  14.571  0.00  0.00    +0.000 OA
BRANCH  16  18
ATOM     17  O   UNL     1     -16.312 -17.670  16.103  0.00  0.00    +0.000 OA
ATOM     18  C   UNL     1     -16.936 -16.652  15.832  0.00  0.00    +0.000 C 
BRANCH  18  19
ATOM     19  C   UNL     1     -17.713 -15.870  16.826  0.00  0.00    +0.000 C 
ATOM     20  C   UNL     1     -18.528 -14.634  16.470  0.00  0.00    +0.000 C 
BRANCH  19  21
ATOM     21  C   UNL     1     -17.712 -16.287  18.183  0.00  0.00    +0.000 C 
ATOM     22  C   UNL     1     -17.703 -16.740  19.655  0.00  0.00    +0.000 C 
ENDBRANCH  19  21
ENDBRANCH  18  19
ENDBRANCH  16  18
ENDBRANCH   1  16
TORSDOF 9
ENDMDL
MODEL 9
REMARK VINA RESULT:      -4.2      3.996      7.344
REMARK  Name = 122180587_TripolinolateA.pdbqt.pdb
REMARK  9 active torsions:
REMARK  status: ('A' for Active; 'I' for Inactive)
REMARK    1  A    between atoms: C_1  and  O_16
REMARK    2  A    between atoms: C_2  and  O_7
REMARK    3  A    between atoms: C_3  and  C_9
REMARK    4  A    between atoms: C_10  and  C_11
REMARK    5  A    between atoms: C_11  and  O_12
REMARK    6  A    between atoms: O_12  and  C_14
REMARK    7  A    between atoms: O_16  and  C_18
REMARK    8  A    between atoms: C_18  and  C_19
REMARK    9  A    between atoms: C_19  and  C_21
REMARK                            x       y       z     vdW  Elec       q    Type
REMARK                         _______ _______ _______ _____ _____    ______ ____
ROOT
ATOM      1  C   UNL     1     -10.210  -2.888  22.274  0.00  0.00    +0.000 A 
ATOM      2  C   UNL     1      -9.559  -2.369  21.151  0.00  0.00    +0.000 A 
ATOM      3  C   UNL     1      -7.608  -1.971  22.536  0.00  0.00    +0.000 A 
ATOM      4  C   UNL     1      -9.590  -2.924  23.525  0.00  0.00    +0.000 A 
ATOM      5  C   UNL     1      -8.245  -1.915  21.297  0.00  0.00    +0.000 A 
ATOM      6  C   UNL     1      -8.280  -2.471  23.650  0.00  0.00    +0.000 A 
ENDROOT
BRANCH   2   7
ATOM      7  O   UNL     1     -10.269  -2.323  19.977  0.00  0.00    +0.000 OA
ATOM      8  C   UNL     1      -9.927  -3.289  19.023  0.00  0.00    +0.000 C 
ENDBRANCH   2   7
BRANCH   3   9
ATOM      9  C   UNL     1      -6.265  -1.508  22.664  0.00  0.00    +0.000 C 
ATOM     10  C   UNL     1      -5.135  -1.116  22.773  0.00  0.00    +0.000 C 
BRANCH  10  11
ATOM     11  C   UNL     1      -3.694  -0.613  22.908  0.00  0.00    +0.000 C 
BRANCH  11  12
ATOM     12  O   UNL     1      -2.442  -0.177  23.028  0.00  0.00    +0.000 OA
BRANCH  12  14
ATOM     13  O   UNL     1      -1.957  -1.640  24.786  0.00  0.00    +0.000 OA
ATOM     14  C   UNL     1      -1.670  -0.883  23.877  0.00  0.00    +0.000 C 
ATOM     15  C   UNL     1      -0.204  -0.708  23.667  0.00  0.00    +0.000 C 
ENDBRANCH  12  14
ENDBRANCH  11  12
ENDBRANCH  10  11
ENDBRANCH   3   9
BRANCH   1  16
ATOM     16  O   UNL     1     -11.545  -3.304  22.177  0.00  0.00    +0.000 OA
BRANCH  16  18
ATOM     17  O   UNL     1     -11.319  -5.476  21.375  0.00  0.00    +0.000 OA
ATOM     18  C   UNL     1     -11.698  -4.684  22.229  0.00  0.00    +0.000 C 
BRANCH  18  19
ATOM     19  C   UNL     1     -12.406  -5.085  23.470  0.00  0.00    +0.000 C 
ATOM     20  C   UNL     1     -13.843  -4.687  23.782  0.00  0.00    +0.000 C 
BRANCH  19  21
ATOM     21  C   UNL     1     -11.725  -5.887  24.424  0.00  0.00    +0.000 C 
ATOM     22  C   UNL     1     -10.987  -6.750  25.464  0.00  0.00    +0.000 C 
ENDBRANCH  19  21
ENDBRANCH  18  19
ENDBRANCH  16  18
ENDBRANCH   1  16
TORSDOF 9
ENDMDL
