MODEL 1
REMARK VINA RESULT:      -6.2      0.000      0.000
REMARK  Name = 135403648_CalciumFolinate.pdbqt.pdb
REMARK  10 active torsions:
REMARK  status: ('A' for Active; 'I' for Inactive)
REMARK    1  A    between atoms: N_1  and  C_3
REMARK    2  A    between atoms: N_1  and  C_24
REMARK    3  A    between atoms: C_6  and  C_11
REMARK    4  A    between atoms: CA_13  and  C_15
REMARK    5  A    between atoms: CA_13  and  CB_18
REMARK    6  A    between atoms: C_15  and  O_16
REMARK    7  A    between atoms: CG_19  and  CD_21
REMARK    8  A    between atoms: CD_21  and  OE1_22
REMARK    9  A    between atoms: C_24  and  C_32
REMARK   10  A    between atoms: N_27  and  C_37
REMARK                            x       y       z     vdW  Elec       q    Type
REMARK                         _______ _______ _______ _____ _____    ______ ____
ROOT
ATOM      1  N   UNL     1       5.027  -8.842  11.826  0.00  0.00    +0.000 N 
ATOM      2  H   UNL     1       5.784  -9.023  11.168  0.00  0.00    +0.000 HD
ENDROOT
BRANCH   1   3
ATOM      3  C   UNL     1       4.502 -10.031  12.374  0.00  0.00    +0.000 A 
ATOM      4  C   UNL     1       5.239 -10.717  13.345  0.00  0.00    +0.000 A 
ATOM      5  C   UNL     1       3.356 -10.648  11.858  0.00  0.00    +0.000 A 
ATOM      6  C   UNL     1       3.641 -12.528  13.347  0.00  0.00    +0.000 A 
ATOM      7  C   UNL     1       4.806 -11.946  13.840  0.00  0.00    +0.000 A 
ATOM      8  C   UNL     1       2.918 -11.876  12.348  0.00  0.00    +0.000 A 
BRANCH   6  11
ATOM      9  O   UNL     1       3.090 -14.019  15.057  0.00  0.00    +0.000 OA
ATOM     10  N   UNL     1       2.764 -14.750  12.883  0.00  0.00    +0.000 N 
ATOM     11  C   ACE A   0       3.139 -13.833  13.846  0.00  0.00    +0.000 C 
ATOM     12  H   UNL     1       2.846 -14.503  11.900  0.00  0.00    +0.000 HD
ATOM     13  CA  UNL     1       2.271 -16.025  13.093  0.00  0.00    +0.000 C 
BRANCH  13  15
ATOM     14  OXT UNL     1       1.826 -18.018  11.849  0.00  0.00    +0.000 OA
ATOM     15  C   UNL     1       1.950 -16.802  11.870  0.00  0.00    +0.000 C 
BRANCH  15  16
ATOM     16  O   UNL     1       1.800 -16.054  10.767  0.00  0.00    +0.000 OA
ATOM     17  H   UNL     1       2.235 -15.202  10.979  0.00  0.00    +0.000 HD
ENDBRANCH  15  16
ENDBRANCH  13  15
BRANCH  13  18
ATOM     18  CB  UNL     1       2.082 -16.561  14.394  0.00  0.00    +0.000 C 
ATOM     19  CG  UNL     1       1.870 -17.147  15.795  0.00  0.00    +0.000 C 
BRANCH  19  21
ATOM     20  OE2 UNL     1       2.452 -17.586  18.015  0.00  0.00    +0.000 OA
ATOM     21  CD  UNL     1       1.664 -17.709  17.094  0.00  0.00    +0.000 C 
BRANCH  21  22
ATOM     22  OE1 UNL     1       0.523 -18.413  17.213  0.00  0.00    +0.000 OA
ATOM     23  HE1 UNL     1       0.829 -19.342  17.206  0.00  0.00    +0.000 HD
ENDBRANCH  21  22
ENDBRANCH  19  21
ENDBRANCH  13  18
ENDBRANCH   6  11
ENDBRANCH   1   3
BRANCH   1  24
ATOM     24  C   UNL     1       5.204  -7.688  12.699  0.00  0.00    +0.000 C 
BRANCH  24  31
ATOM     25  O   UNL     1       4.931  -6.320  17.772  0.00  0.00    +0.000 OA
ATOM     26  N   UNL     1       5.290  -6.568  14.898  0.00  0.00    +0.000 N 
ATOM     27  N   UNL     1       5.919  -3.999  13.668  0.00  0.00    +0.000 N 
ATOM     28  N   UNL     1       5.721  -2.947  15.769  0.00  0.00    +0.000 NA
ATOM     29  N   UNL     1       5.386  -4.132  17.727  0.00  0.00    +0.000 N 
ATOM     30  N   UNL     1       5.639  -1.844  17.782  0.00  0.00    +0.000 N 
ATOM     31  C   UNL     1       5.366  -6.533  13.509  0.00  0.00    +0.000 C 
ATOM     32  C   UNL     1       5.641  -5.244  13.024  0.00  0.00    +0.000 C 
ATOM     33  C   UNL     1       5.419  -5.349  15.619  0.00  0.00    +0.000 A 
ATOM     34  C   UNL     1       5.685  -4.123  15.050  0.00  0.00    +0.000 A 
ATOM     35  C   UNL     1       5.229  -5.333  17.107  0.00  0.00    +0.000 A 
ATOM     36  C   UNL     1       5.584  -2.981  17.049  0.00  0.00    +0.000 A 
ATOM     37  H   UNL     1       5.567  -3.111  13.322  0.00  0.00    +0.000 HD
ATOM     38  H   UNL     1       5.210  -4.120  18.719  0.00  0.00    +0.000 HD
ATOM     39  H   UNL     1       5.995  -1.059  17.244  0.00  0.00    +0.000 HD
ATOM     40  H   UNL     1       6.062  -1.910  18.699  0.00  0.00    +0.000 HD
BRANCH  26  42
ATOM     41  O   UNL     1       4.790  -8.784  16.001  0.00  0.00    +0.000 OA
ATOM     42  C   UNL     1       5.057  -7.752  15.504  0.00  0.00    +0.000 C 
ENDBRANCH  26  42
ENDBRANCH  24  31
ENDBRANCH   1  24
TORSDOF 10
ENDMDL
MODEL 2
REMARK VINA RESULT:      -6.0      1.982      3.471
REMARK  Name = 135403648_CalciumFolinate.pdbqt.pdb
REMARK  10 active torsions:
REMARK  status: ('A' for Active; 'I' for Inactive)
REMARK    1  A    between atoms: N_1  and  C_3
REMARK    2  A    between atoms: N_1  and  C_24
REMARK    3  A    between atoms: C_6  and  C_11
REMARK    4  A    between atoms: CA_13  and  C_15
REMARK    5  A    between atoms: CA_13  and  CB_18
REMARK    6  A    between atoms: C_15  and  O_16
REMARK    7  A    between atoms: CG_19  and  CD_21
REMARK    8  A    between atoms: CD_21  and  OE1_22
REMARK    9  A    between atoms: C_24  and  C_32
REMARK   10  A    between atoms: N_27  and  C_37
REMARK                            x       y       z     vdW  Elec       q    Type
REMARK                         _______ _______ _______ _____ _____    ______ ____
ROOT
ATOM      1  N   UNL     1       5.392  -6.426  12.373  0.00  0.00    +0.000 N 
ATOM      2  H   UNL     1       6.105  -6.187  11.685  0.00  0.00    +0.000 HD
ENDROOT
BRANCH   1   3
ATOM      3  C   UNL     1       5.127  -7.812  12.405  0.00  0.00    +0.000 A 
ATOM      4  C   UNL     1       3.835  -8.265  12.119  0.00  0.00    +0.000 A 
ATOM      5  C   UNL     1       6.059  -8.738  12.886  0.00  0.00    +0.000 A 
ATOM      6  C   UNL     1       4.455 -10.531  12.675  0.00  0.00    +0.000 A 
ATOM      7  C   UNL     1       3.504  -9.614  12.236  0.00  0.00    +0.000 A 
ATOM      8  C   UNL     1       5.736 -10.088  13.006  0.00  0.00    +0.000 A 
BRANCH   6  11
ATOM      9  O   UNL     1       3.363 -12.490  12.025  0.00  0.00    +0.000 OA
ATOM     10  N   UNL     1       4.793 -12.641  13.841  0.00  0.00    +0.000 N 
ATOM     11  C   ACE A   0       4.150 -11.978  12.812  0.00  0.00    +0.000 C 
ATOM     12  H   UNL     1       5.428 -12.127  14.447  0.00  0.00    +0.000 HD
ATOM     13  CA  UNL     1       4.675 -13.979  14.173  0.00  0.00    +0.000 C 
BRANCH  13  15
ATOM     14  OXT UNL     1       5.002 -14.910  16.350  0.00  0.00    +0.000 OA
ATOM     15  C   UNL     1       5.482 -14.429  15.333  0.00  0.00    +0.000 C 
BRANCH  15  16
ATOM     16  O   UNL     1       6.804 -14.266  15.181  0.00  0.00    +0.000 OA
ATOM     17  H   UNL     1       6.918 -13.317  14.965  0.00  0.00    +0.000 HD
ENDBRANCH  15  16
ENDBRANCH  13  15
BRANCH  13  18
ATOM     18  CB  UNL     1       3.837 -14.868  13.450  0.00  0.00    +0.000 C 
ATOM     19  CG  UNL     1       2.922 -15.825  12.677  0.00  0.00    +0.000 C 
BRANCH  19  21
ATOM     20  OE2 UNL     1       1.708 -17.800  12.386  0.00  0.00    +0.000 OA
ATOM     21  CD  UNL     1       2.054 -16.711  11.964  0.00  0.00    +0.000 C 
BRANCH  21  22
ATOM     22  OE1 UNL     1       1.662 -16.247  10.763  0.00  0.00    +0.000 OA
ATOM     23  HE1 UNL     1       1.088 -16.962  10.421  0.00  0.00    +0.000 HD
ENDBRANCH  21  22
ENDBRANCH  19  21
ENDBRANCH  13  18
ENDBRANCH   6  11
ENDBRANCH   1   3
BRANCH   1  24
ATOM     24  C   UNL     1       5.453  -5.697  13.634  0.00  0.00    +0.000 C 
BRANCH  24  31
ATOM     25  O   UNL     1       4.640  -6.690  18.736  0.00  0.00    +0.000 OA
ATOM     26  N   UNL     1       5.270  -5.650  16.096  0.00  0.00    +0.000 N 
ATOM     27  N   UNL     1       5.847  -2.792  16.176  0.00  0.00    +0.000 N 
ATOM     28  N   UNL     1       5.395  -2.767  18.490  0.00  0.00    +0.000 NA
ATOM     29  N   UNL     1       4.959  -4.695  19.693  0.00  0.00    +0.000 N 
ATOM     30  N   UNL     1       5.064  -2.657  20.761  0.00  0.00    +0.000 N 
ATOM     31  C   UNL     1       5.469  -5.010  14.877  0.00  0.00    +0.000 C 
ATOM     32  C   UNL     1       5.705  -3.635  15.031  0.00  0.00    +0.000 C 
ATOM     33  C   UNL     1       5.258  -4.867  17.284  0.00  0.00    +0.000 A 
ATOM     34  C   UNL     1       5.497  -3.511  17.334  0.00  0.00    +0.000 A 
ATOM     35  C   UNL     1       4.934  -5.506  18.601  0.00  0.00    +0.000 A 
ATOM     36  C   UNL     1       5.146  -3.360  19.607  0.00  0.00    +0.000 A 
ATOM     37  H   UNL     1       5.473  -1.848  16.213  0.00  0.00    +0.000 HD
ATOM     38  H   UNL     1       4.695  -5.120  20.567  0.00  0.00    +0.000 HD
ATOM     39  H   UNL     1       5.417  -1.710  20.658  0.00  0.00    +0.000 HD
ATOM     40  H   UNL     1       5.406  -3.110  21.598  0.00  0.00    +0.000 HD
BRANCH  26  42
ATOM     41  O   UNL     1       4.817  -8.134  16.062  0.00  0.00    +0.000 OA
ATOM     42  C   UNL     1       5.058  -6.984  16.101  0.00  0.00    +0.000 C 
ENDBRANCH  26  42
ENDBRANCH  24  31
ENDBRANCH   1  24
TORSDOF 10
ENDMDL
MODEL 3
REMARK VINA RESULT:      -6.0     26.863     29.105
REMARK  Name = 135403648_CalciumFolinate.pdbqt.pdb
REMARK  10 active torsions:
REMARK  status: ('A' for Active; 'I' for Inactive)
REMARK    1  A    between atoms: N_1  and  C_3
REMARK    2  A    between atoms: N_1  and  C_24
REMARK    3  A    between atoms: C_6  and  C_11
REMARK    4  A    between atoms: CA_13  and  C_15
REMARK    5  A    between atoms: CA_13  and  CB_18
REMARK    6  A    between atoms: C_15  and  O_16
REMARK    7  A    between atoms: CG_19  and  CD_21
REMARK    8  A    between atoms: CD_21  and  OE1_22
REMARK    9  A    between atoms: C_24  and  C_32
REMARK   10  A    between atoms: N_27  and  C_37
REMARK                            x       y       z     vdW  Elec       q    Type
REMARK                         _______ _______ _______ _____ _____    ______ ____
ROOT
ATOM      1  N   UNL     1     -22.182   1.522   8.290  0.00  0.00    +0.000 N 
ATOM      2  H   UNL     1     -23.040   2.030   8.077  0.00  0.00    +0.000 HD
ENDROOT
BRANCH   1   3
ATOM      3  C   UNL     1     -21.542   2.019   9.445  0.00  0.00    +0.000 A 
ATOM      4  C   UNL     1     -20.188   1.738   9.648  0.00  0.00    +0.000 A 
ATOM      5  C   UNL     1     -22.252   2.630  10.486  0.00  0.00    +0.000 A 
ATOM      6  C   UNL     1     -20.251   2.769  11.831  0.00  0.00    +0.000 A 
ATOM      7  C   UNL     1     -19.542   2.123  10.822  0.00  0.00    +0.000 A 
ATOM      8  C   UNL     1     -21.614   3.017  11.661  0.00  0.00    +0.000 A 
BRANCH   6  11
ATOM      9  O   UNL     1     -18.450   2.856  13.314  0.00  0.00    +0.000 OA
ATOM     10  N   UNL     1     -20.381   3.970  13.944  0.00  0.00    +0.000 N 
ATOM     11  C   ACE A   0     -19.606   3.200  13.096  0.00  0.00    +0.000 C 
ATOM     12  H   UNL     1     -21.335   4.200  13.677  0.00  0.00    +0.000 HD
ATOM     13  CA  UNL     1     -20.011   4.488  15.172  0.00  0.00    +0.000 C 
BRANCH  13  15
ATOM     14  OXT UNL     1     -20.920   5.712  17.013  0.00  0.00    +0.000 OA
ATOM     15  C   UNL     1     -21.048   5.280  15.877  0.00  0.00    +0.000 C 
BRANCH  15  16
ATOM     16  O   UNL     1     -22.161   5.494  15.158  0.00  0.00    +0.000 OA
ATOM     17  H   UNL     1     -21.879   6.081  14.426  0.00  0.00    +0.000 HD
ENDBRANCH  15  16
ENDBRANCH  13  15
BRANCH  13  18
ATOM     18  CB  UNL     1     -18.721   4.279  15.726  0.00  0.00    +0.000 C 
ATOM     19  CG  UNL     1     -17.322   4.057  16.314  0.00  0.00    +0.000 C 
BRANCH  19  21
ATOM     20  OE2 UNL     1     -15.100   4.659  16.716  0.00  0.00    +0.000 OA
ATOM     21  CD  UNL     1     -16.009   3.859  16.847  0.00  0.00    +0.000 C 
BRANCH  21  22
ATOM     22  OE1 UNL     1     -15.852   2.690  17.495  0.00  0.00    +0.000 OA
ATOM     23  HE1 UNL     1     -15.044   2.835  18.029  0.00  0.00    +0.000 HD
ENDBRANCH  21  22
ENDBRANCH  19  21
ENDBRANCH  13  18
ENDBRANCH   6  11
ENDBRANCH   1   3
BRANCH   1  24
ATOM     24  C   UNL     1     -22.227   0.080   8.082  0.00  0.00    +0.000 C 
BRANCH  24  31
ATOM     25  O   UNL     1     -21.974  -4.258  11.048  0.00  0.00    +0.000 OA
ATOM     26  N   UNL     1     -22.262  -2.210   9.005  0.00  0.00    +0.000 N 
ATOM     27  N   UNL     1     -22.560  -3.376   6.348  0.00  0.00    +0.000 N 
ATOM     28  N   UNL     1     -22.317  -5.533   7.270  0.00  0.00    +0.000 NA
ATOM     29  N   UNL     1     -22.181  -5.904   9.549  0.00  0.00    +0.000 N 
ATOM     30  N   UNL     1     -22.181  -7.678   8.081  0.00  0.00    +0.000 N 
ATOM     31  C   UNL     1     -22.286  -1.331   7.928  0.00  0.00    +0.000 C 
ATOM     32  C   UNL     1     -22.400  -2.000   6.699  0.00  0.00    +0.000 C 
ATOM     33  C   UNL     1     -22.279  -3.608   8.746  0.00  0.00    +0.000 A 
ATOM     34  C   UNL     1     -22.388  -4.175   7.494  0.00  0.00    +0.000 A 
ATOM     35  C   UNL     1     -22.138  -4.584   9.877  0.00  0.00    +0.000 A 
ATOM     36  C   UNL     1     -22.228  -6.338   8.272  0.00  0.00    +0.000 A 
ATOM     37  H   UNL     1     -22.101  -3.796   5.546  0.00  0.00    +0.000 HD
ATOM     38  H   UNL     1     -22.039  -6.552  10.307  0.00  0.00    +0.000 HD
ATOM     39  H   UNL     1     -22.430  -7.938   7.131  0.00  0.00    +0.000 HD
ATOM     40  H   UNL     1     -22.639  -8.255   8.774  0.00  0.00    +0.000 HD
BRANCH  26  42
ATOM     41  O   UNL     1     -22.135  -1.196  11.315  0.00  0.00    +0.000 OA
ATOM     42  C   UNL     1     -22.182  -1.702  10.255  0.00  0.00    +0.000 C 
ENDBRANCH  26  42
ENDBRANCH  24  31
ENDBRANCH   1  24
TORSDOF 10
ENDMDL
MODEL 4
REMARK VINA RESULT:      -5.9     25.337     27.024
REMARK  Name = 135403648_CalciumFolinate.pdbqt.pdb
REMARK  10 active torsions:
REMARK  status: ('A' for Active; 'I' for Inactive)
REMARK    1  A    between atoms: N_1  and  C_3
REMARK    2  A    between atoms: N_1  and  C_24
REMARK    3  A    between atoms: C_6  and  C_11
REMARK    4  A    between atoms: CA_13  and  C_15
REMARK    5  A    between atoms: CA_13  and  CB_18
REMARK    6  A    between atoms: C_15  and  O_16
REMARK    7  A    between atoms: CG_19  and  CD_21
REMARK    8  A    between atoms: CD_21  and  OE1_22
REMARK    9  A    between atoms: C_24  and  C_32
REMARK   10  A    between atoms: N_27  and  C_37
REMARK                            x       y       z     vdW  Elec       q    Type
REMARK                         _______ _______ _______ _____ _____    ______ ____
ROOT
ATOM      1  N   UNL     1     -18.899  -7.546  -2.166  0.00  0.00    +0.000 N 
ATOM      2  H   UNL     1     -18.444  -7.954  -2.982  0.00  0.00    +0.000 HD
ENDROOT
BRANCH   1   3
ATOM      3  C   UNL     1     -18.958  -8.449  -1.083  0.00  0.00    +0.000 A 
ATOM      4  C   UNL     1     -18.628  -9.791  -1.296  0.00  0.00    +0.000 A 
ATOM      5  C   UNL     1     -19.505  -8.092   0.155  0.00  0.00    +0.000 A 
ATOM      6  C   UNL     1     -19.275 -10.358   0.961  0.00  0.00    +0.000 A 
ATOM      7  C   UNL     1     -18.769 -10.736  -0.280  0.00  0.00    +0.000 A 
ATOM      8  C   UNL     1     -19.648  -9.031   1.175  0.00  0.00    +0.000 A 
BRANCH   6  11
ATOM      9  O   UNL     1     -20.466 -11.993   2.126  0.00  0.00    +0.000 OA
ATOM     10  N   UNL     1     -18.397 -11.397   2.979  0.00  0.00    +0.000 N 
ATOM     11  C   ACE A   0     -19.438 -11.327   2.073  0.00  0.00    +0.000 C 
ATOM     12  H   UNL     1     -17.585 -10.797   2.853  0.00  0.00    +0.000 HD
ATOM     13  CA  UNL     1     -18.313 -12.212   4.093  0.00  0.00    +0.000 C 
BRANCH  13  15
ATOM     14  OXT UNL     1     -17.055 -12.082   6.121  0.00  0.00    +0.000 OA
ATOM     15  C   UNL     1     -17.075 -12.079   4.899  0.00  0.00    +0.000 C 
BRANCH  15  16
ATOM     16  O   UNL     1     -15.955 -11.954   4.171  0.00  0.00    +0.000 OA
ATOM     17  H   UNL     1     -15.758 -10.994   4.175  0.00  0.00    +0.000 HD
ENDBRANCH  15  16
ENDBRANCH  13  15
BRANCH  13  18
ATOM     18  CB  UNL     1     -19.345 -13.122   4.446  0.00  0.00    +0.000 C 
ATOM     19  CG  UNL     1     -20.454 -14.105   4.838  0.00  0.00    +0.000 C 
BRANCH  19  21
ATOM     20  OE2 UNL     1     -21.701 -15.347   6.375  0.00  0.00    +0.000 OA
ATOM     21  CD  UNL     1     -21.482 -15.023   5.221  0.00  0.00    +0.000 C 
BRANCH  21  22
ATOM     22  OE1 UNL     1     -22.184 -15.524   4.188  0.00  0.00    +0.000 OA
ATOM     23  HE1 UNL     1     -21.838 -15.027   3.419  0.00  0.00    +0.000 HD
ENDBRANCH  21  22
ENDBRANCH  19  21
ENDBRANCH  13  18
ENDBRANCH   6  11
ENDBRANCH   1   3
BRANCH   1  24
ATOM     24  C   UNL     1     -18.587  -6.148  -1.895  0.00  0.00    +0.000 C 
BRANCH  24  31
ATOM     25  O   UNL     1     -20.668  -1.836   0.285  0.00  0.00    +0.000 OA
ATOM     26  N   UNL     1     -19.051  -3.922  -0.933  0.00  0.00    +0.000 N 
ATOM     27  N   UNL     1     -16.465  -2.901  -1.814  0.00  0.00    +0.000 N 
ATOM     28  N   UNL     1     -17.083  -0.736  -1.112  0.00  0.00    +0.000 NA
ATOM     29  N   UNL     1     -19.055  -0.311   0.019  0.00  0.00    +0.000 N 
ATOM     30  N   UNL     1     -17.554   1.389  -0.379  0.00  0.00    +0.000 N 
ATOM     31  C   UNL     1     -18.234  -4.796  -1.641  0.00  0.00    +0.000 C 
ATOM     32  C   UNL     1     -17.032  -4.193  -2.043  0.00  0.00    +0.000 C 
ATOM     33  C   UNL     1     -18.630  -2.573  -0.772  0.00  0.00    +0.000 A 
ATOM     34  C   UNL     1     -17.425  -2.068  -1.210  0.00  0.00    +0.000 A 
ATOM     35  C   UNL     1     -19.537  -1.576  -0.114  0.00  0.00    +0.000 A 
ATOM     36  C   UNL     1     -17.877   0.081  -0.510  0.00  0.00    +0.000 A 
ATOM     37  H   UNL     1     -15.946  -2.394  -2.525  0.00  0.00    +0.000 HD
ATOM     38  H   UNL     1     -19.688   0.364   0.419  0.00  0.00    +0.000 HD
ATOM     39  H   UNL     1     -16.580   1.568  -0.607  0.00  0.00    +0.000 HD
ATOM     40  H   UNL     1     -17.844   1.848   0.474  0.00  0.00    +0.000 HD
BRANCH  26  42
ATOM     41  O   UNL     1     -21.226  -4.836  -0.030  0.00  0.00    +0.000 OA
ATOM     42  C   UNL     1     -20.232  -4.378  -0.460  0.00  0.00    +0.000 C 
ENDBRANCH  26  42
ENDBRANCH  24  31
ENDBRANCH   1  24
TORSDOF 10
ENDMDL
MODEL 5
REMARK VINA RESULT:      -5.9     26.489     29.071
REMARK  Name = 135403648_CalciumFolinate.pdbqt.pdb
REMARK  10 active torsions:
REMARK  status: ('A' for Active; 'I' for Inactive)
REMARK    1  A    between atoms: N_1  and  C_3
REMARK    2  A    between atoms: N_1  and  C_24
REMARK    3  A    between atoms: C_6  and  C_11
REMARK    4  A    between atoms: CA_13  and  C_15
REMARK    5  A    between atoms: CA_13  and  CB_18
REMARK    6  A    between atoms: C_15  and  O_16
REMARK    7  A    between atoms: CG_19  and  CD_21
REMARK    8  A    between atoms: CD_21  and  OE1_22
REMARK    9  A    between atoms: C_24  and  C_32
REMARK   10  A    between atoms: N_27  and  C_37
REMARK                            x       y       z     vdW  Elec       q    Type
REMARK                         _______ _______ _______ _____ _____    ______ ____
ROOT
ATOM      1  N   UNL     1     -22.749   1.925  10.733  0.00  0.00    +0.000 N 
ATOM      2  H   UNL     1     -23.667   2.161  11.108  0.00  0.00    +0.000 HD
ENDROOT
BRANCH   1   3
ATOM      3  C   UNL     1     -21.711   2.616  11.392  0.00  0.00    +0.000 A 
ATOM      4  C   UNL     1     -20.383   2.277  11.113  0.00  0.00    +0.000 A 
ATOM      5  C   UNL     1     -21.958   3.504  12.446  0.00  0.00    +0.000 A 
ATOM      6  C   UNL     1     -19.589   3.777  12.831  0.00  0.00    +0.000 A 
ATOM      7  C   UNL     1     -19.329   2.863  11.814  0.00  0.00    +0.000 A 
ATOM      8  C   UNL     1     -20.911   4.094  13.150  0.00  0.00    +0.000 A 
BRANCH   6  11
ATOM      9  O   UNL     1     -18.170   3.944  14.677  0.00  0.00    +0.000 OA
ATOM     10  N   UNL     1     -17.941   5.557  13.030  0.00  0.00    +0.000 N 
ATOM     11  C   ACE A   0     -18.501   4.430  13.602  0.00  0.00    +0.000 C 
ATOM     12  H   UNL     1     -18.288   5.886  12.133  0.00  0.00    +0.000 HD
ATOM     13  CA  UNL     1     -16.922   6.337  13.548  0.00  0.00    +0.000 C 
BRANCH  13  15
ATOM     14  OXT UNL     1     -17.078   8.583  12.747  0.00  0.00    +0.000 OA
ATOM     15  C   UNL     1     -16.515   7.498  12.721  0.00  0.00    +0.000 C 
BRANCH  15  16
ATOM     16  O   UNL     1     -15.459   7.266  11.927  0.00  0.00    +0.000 OA
ATOM     17  H   UNL     1     -14.878   6.673  12.448  0.00  0.00    +0.000 HD
ENDBRANCH  15  16
ENDBRANCH  13  15
BRANCH  13  18
ATOM     18  CB  UNL     1     -16.303   6.046  14.792  0.00  0.00    +0.000 C 
ATOM     19  CG  UNL     1     -15.640   5.721  16.136  0.00  0.00    +0.000 C 
BRANCH  19  21
ATOM     20  OE2 UNL     1     -15.659   5.165  18.405  0.00  0.00    +0.000 OA
ATOM     21  CD  UNL     1     -15.029   5.401  17.390  0.00  0.00    +0.000 C 
BRANCH  21  22
ATOM     22  OE1 UNL     1     -13.684   5.404  17.362  0.00  0.00    +0.000 OA
ATOM     23  HE1 UNL     1     -13.475   4.930  16.532  0.00  0.00    +0.000 HD
ENDBRANCH  21  22
ENDBRANCH  19  21
ENDBRANCH  13  18
ENDBRANCH   6  11
ENDBRANCH   1   3
BRANCH   1  24
ATOM     24  C   UNL     1     -22.545   0.524  10.383  0.00  0.00    +0.000 C 
BRANCH  24  31
ATOM     25  O   UNL     1     -22.484  -2.379   5.996  0.00  0.00    +0.000 OA
ATOM     26  N   UNL     1     -22.325  -1.233   8.663  0.00  0.00    +0.000 N 
ATOM     27  N   UNL     1     -21.831  -3.278  10.684  0.00  0.00    +0.000 N 
ATOM     28  N   UNL     1     -21.899  -4.942   9.014  0.00  0.00    +0.000 NA
ATOM     29  N   UNL     1     -22.073  -4.438   6.763  0.00  0.00    +0.000 N 
ATOM     30  N   UNL     1     -21.858  -6.625   7.451  0.00  0.00    +0.000 N 
ATOM     31  C   UNL     1     -22.348  -0.827   9.993  0.00  0.00    +0.000 C 
ATOM     32  C   UNL     1     -22.131  -1.894  10.879  0.00  0.00    +0.000 C 
ATOM     33  C   UNL     1     -22.167  -2.617   8.375  0.00  0.00    +0.000 A 
ATOM     34  C   UNL     1     -21.965  -3.599   9.320  0.00  0.00    +0.000 A 
ATOM     35  C   UNL     1     -22.252  -3.104   6.959  0.00  0.00    +0.000 A 
ATOM     36  C   UNL     1     -21.944  -5.315   7.781  0.00  0.00    +0.000 A 
ATOM     37  H   UNL     1     -22.222  -4.013  11.265  0.00  0.00    +0.000 HD
ATOM     38  H   UNL     1     -22.179  -4.764   5.815  0.00  0.00    +0.000 HD
ATOM     39  H   UNL     1     -21.556  -7.198   8.234  0.00  0.00    +0.000 HD
ATOM     40  H   UNL     1     -21.371  -6.850   6.594  0.00  0.00    +0.000 HD
BRANCH  26  42
ATOM     41  O   UNL     1     -22.600   0.553   6.899  0.00  0.00    +0.000 OA
ATOM     42  C   UNL     1     -22.492  -0.302   7.698  0.00  0.00    +0.000 C 
ENDBRANCH  26  42
ENDBRANCH  24  31
ENDBRANCH   1  24
TORSDOF 10
ENDMDL
MODEL 6
REMARK VINA RESULT:      -5.9      6.864     11.746
REMARK  Name = 135403648_CalciumFolinate.pdbqt.pdb
REMARK  10 active torsions:
REMARK  status: ('A' for Active; 'I' for Inactive)
REMARK    1  A    between atoms: N_1  and  C_3
REMARK    2  A    between atoms: N_1  and  C_24
REMARK    3  A    between atoms: C_6  and  C_11
REMARK    4  A    between atoms: CA_13  and  C_15
REMARK    5  A    between atoms: CA_13  and  CB_18
REMARK    6  A    between atoms: C_15  and  O_16
REMARK    7  A    between atoms: CG_19  and  CD_21
REMARK    8  A    between atoms: CD_21  and  OE1_22
REMARK    9  A    between atoms: C_24  and  C_32
REMARK   10  A    between atoms: N_27  and  C_37
REMARK                            x       y       z     vdW  Elec       q    Type
REMARK                         _______ _______ _______ _____ _____    ______ ____
ROOT
ATOM      1  N   UNL     1       0.658 -16.594  20.994  0.00  0.00    +0.000 N 
ATOM      2  H   UNL     1       1.205 -17.280  21.513  0.00  0.00    +0.000 HD
ENDROOT
BRANCH   1   3
ATOM      3  C   UNL     1       1.219 -16.310  19.731  0.00  0.00    +0.000 A 
ATOM      4  C   UNL     1       1.864 -15.086  19.532  0.00  0.00    +0.000 A 
ATOM      5  C   UNL     1       0.999 -17.129  18.617  0.00  0.00    +0.000 A 
ATOM      6  C   UNL     1       2.156 -15.567  17.184  0.00  0.00    +0.000 A 
ATOM      7  C   UNL     1       2.344 -14.722  18.274  0.00  0.00    +0.000 A 
ATOM      8  C   UNL     1       1.475 -16.773  17.358  0.00  0.00    +0.000 A 
BRANCH   6  11
ATOM      9  O   UNL     1       3.388 -14.253  15.698  0.00  0.00    +0.000 OA
ATOM     10  N   UNL     1       2.231 -16.047  14.799  0.00  0.00    +0.000 N 
ATOM     11  C   ACE A   0       2.652 -15.225  15.827  0.00  0.00    +0.000 C 
ATOM     12  H   UNL     1       1.614 -16.829  15.006  0.00  0.00    +0.000 HD
ATOM     13  CA  UNL     1       2.551 -15.936  13.457  0.00  0.00    +0.000 C 
BRANCH  13  15
ATOM     14  OXT UNL     1       2.307 -18.129  12.539  0.00  0.00    +0.000 OA
ATOM     15  C   UNL     1       1.954 -16.959  12.565  0.00  0.00    +0.000 C 
BRANCH  15  16
ATOM     16  O   UNL     1       0.975 -16.495  11.773  0.00  0.00    +0.000 OA
ATOM     17  H   UNL     1       0.754 -17.244  11.181  0.00  0.00    +0.000 HD
ENDBRANCH  15  16
ENDBRANCH  13  15
BRANCH  13  18
ATOM     18  CB  UNL     1       3.399 -14.910  12.963  0.00  0.00    +0.000 C 
ATOM     19  CG  UNL     1       4.313 -13.806  12.417  0.00  0.00    +0.000 C 
BRANCH  19  21
ATOM     20  OE2 UNL     1       4.882 -11.597  11.913  0.00  0.00    +0.000 OA
ATOM     21  CD  UNL     1       5.162 -12.782  11.891  0.00  0.00    +0.000 C 
BRANCH  21  22
ATOM     22  OE1 UNL     1       6.301 -13.242  11.342  0.00  0.00    +0.000 OA
ATOM     23  HE1 UNL     1       6.639 -13.867  12.015  0.00  0.00    +0.000 HD
ENDBRANCH  21  22
ENDBRANCH  19  21
ENDBRANCH  13  18
ENDBRANCH   6  11
ENDBRANCH   1   3
BRANCH   1  24
ATOM     24  C   UNL     1      -0.791 -16.720  21.104  0.00  0.00    +0.000 C 
BRANCH  24  31
ATOM     25  O   UNL     1      -5.018 -13.965  19.614  0.00  0.00    +0.000 OA
ATOM     26  N   UNL     1      -3.050 -15.880  20.568  0.00  0.00    +0.000 N 
ATOM     27  N   UNL     1      -4.310 -18.120  21.948  0.00  0.00    +0.000 N 
ATOM     28  N   UNL     1      -6.423 -17.122  21.633  0.00  0.00    +0.000 NA
ATOM     29  N   UNL     1      -6.717 -15.199  20.381  0.00  0.00    +0.000 N 
ATOM     30  N   UNL     1      -8.533 -16.277  21.299  0.00  0.00    +0.000 N 
ATOM     31  C   UNL     1      -2.207 -16.803  21.177  0.00  0.00    +0.000 C 
ATOM     32  C   UNL     1      -2.917 -17.818  21.837  0.00  0.00    +0.000 C 
ATOM     33  C   UNL     1      -4.455 -16.023  20.738  0.00  0.00    +0.000 A 
ATOM     34  C   UNL     1      -5.064 -17.058  21.415  0.00  0.00    +0.000 A 
ATOM     35  C   UNL     1      -5.387 -14.982  20.193  0.00  0.00    +0.000 A 
ATOM     36  C   UNL     1      -7.192 -16.225  21.119  0.00  0.00    +0.000 A 
ATOM     37  H   UNL     1      -4.732 -18.464  22.805  0.00  0.00    +0.000 HD
ATOM     38  H   UNL     1      -7.335 -14.473  20.054  0.00  0.00    +0.000 HD
ATOM     39  H   UNL     1      -8.835 -17.172  21.676  0.00  0.00    +0.000 HD
ATOM     40  H   UNL     1      -9.110 -15.967  20.528  0.00  0.00    +0.000 HD
BRANCH  26  42
ATOM     41  O   UNL     1      -1.977 -13.963  19.321  0.00  0.00    +0.000 OA
ATOM     42  C   UNL     1      -2.500 -14.861  19.872  0.00  0.00    +0.000 C 
ENDBRANCH  26  42
ENDBRANCH  24  31
ENDBRANCH   1  24
TORSDOF 10
ENDMDL
MODEL 7
REMARK VINA RESULT:      -5.8     25.029     26.782
REMARK  Name = 135403648_CalciumFolinate.pdbqt.pdb
REMARK  10 active torsions:
REMARK  status: ('A' for Active; 'I' for Inactive)
REMARK    1  A    between atoms: N_1  and  C_3
REMARK    2  A    between atoms: N_1  and  C_24
REMARK    3  A    between atoms: C_6  and  C_11
REMARK    4  A    between atoms: CA_13  and  C_15
REMARK    5  A    between atoms: CA_13  and  CB_18
REMARK    6  A    between atoms: C_15  and  O_16
REMARK    7  A    between atoms: CG_19  and  CD_21
REMARK    8  A    between atoms: CD_21  and  OE1_22
REMARK    9  A    between atoms: C_24  and  C_32
REMARK   10  A    between atoms: N_27  and  C_37
REMARK                            x       y       z     vdW  Elec       q    Type
REMARK                         _______ _______ _______ _____ _____    ______ ____
ROOT
ATOM      1  N   UNL     1     -18.883  -7.435  -2.093  0.00  0.00    +0.000 N 
ATOM      2  H   UNL     1     -18.374  -7.809  -2.893  0.00  0.00    +0.000 HD
ENDROOT
BRANCH   1   3
ATOM      3  C   UNL     1     -18.944  -8.354  -1.024  0.00  0.00    +0.000 A 
ATOM      4  C   UNL     1     -18.605  -9.691  -1.255  0.00  0.00    +0.000 A 
ATOM      5  C   UNL     1     -19.503  -8.020   0.215  0.00  0.00    +0.000 A 
ATOM      6  C   UNL     1     -19.264 -10.296   0.988  0.00  0.00    +0.000 A 
ATOM      7  C   UNL     1     -18.747 -10.652  -0.255  0.00  0.00    +0.000 A 
ATOM      8  C   UNL     1     -19.647  -8.975   1.220  0.00  0.00    +0.000 A 
BRANCH   6  11
ATOM      9  O   UNL     1     -20.499 -11.874   2.186  0.00  0.00    +0.000 OA
ATOM     10  N   UNL     1     -18.342 -11.456   2.918  0.00  0.00    +0.000 N 
ATOM     11  C   ACE A   0     -19.430 -11.283   2.084  0.00  0.00    +0.000 C 
ATOM     12  H   UNL     1     -17.497 -10.914   2.755  0.00  0.00    +0.000 HD
ATOM     13  CA  UNL     1     -18.250 -12.308   4.004  0.00  0.00    +0.000 C 
BRANCH  13  15
ATOM     14  OXT UNL     1     -15.890 -12.613   4.231  0.00  0.00    +0.000 OA
ATOM     15  C   UNL     1     -16.957 -12.290   4.731  0.00  0.00    +0.000 C 
BRANCH  15  16
ATOM     16  O   UNL     1     -17.048 -11.881   6.006  0.00  0.00    +0.000 OA
ATOM     17  H   UNL     1     -16.597 -11.012   6.024  0.00  0.00    +0.000 HD
ENDBRANCH  15  16
ENDBRANCH  13  15
BRANCH  13  18
ATOM     18  CB  UNL     1     -19.322 -13.150   4.400  0.00  0.00    +0.000 C 
ATOM     19  CG  UNL     1     -20.487 -14.050   4.830  0.00  0.00    +0.000 C 
BRANCH  19  21
ATOM     20  OE2 UNL     1     -21.675 -16.058   4.962  0.00  0.00    +0.000 OA
ATOM     21  CD  UNL     1     -21.585 -14.874   5.234  0.00  0.00    +0.000 C 
BRANCH  21  22
ATOM     22  OE1 UNL     1     -22.533 -14.222   5.930  0.00  0.00    +0.000 OA
ATOM     23  HE1 UNL     1     -22.346 -14.472   6.857  0.00  0.00    +0.000 HD
ENDBRANCH  21  22
ENDBRANCH  19  21
ENDBRANCH  13  18
ENDBRANCH   6  11
ENDBRANCH   1   3
BRANCH   1  24
ATOM     24  C   UNL     1     -18.652  -6.027  -1.792  0.00  0.00    +0.000 C 
BRANCH  24  31
ATOM     25  O   UNL     1     -15.242  -2.291  -3.235  0.00  0.00    +0.000 OA
ATOM     26  N   UNL     1     -17.394  -3.940  -2.188  0.00  0.00    +0.000 N 
ATOM     27  N   UNL     1     -19.022  -2.483  -0.256  0.00  0.00    +0.000 N 
ATOM     28  N   UNL     1     -17.613  -0.607  -0.486  0.00  0.00    +0.000 NA
ATOM     29  N   UNL     1     -15.898  -0.521  -2.037  0.00  0.00    +0.000 N 
ATOM     30  N   UNL     1     -16.354   1.302  -0.707  0.00  0.00    +0.000 N 
ATOM     31  C   UNL     1     -18.383  -4.658  -1.525  0.00  0.00    +0.000 C 
ATOM     32  C   UNL     1     -19.082  -3.869  -0.597  0.00  0.00    +0.000 C 
ATOM     33  C   UNL     1     -17.170  -2.585  -1.817  0.00  0.00    +0.000 A 
ATOM     34  C   UNL     1     -17.910  -1.893  -0.883  0.00  0.00    +0.000 A 
ATOM     35  C   UNL     1     -16.037  -1.817  -2.430  0.00  0.00    +0.000 A 
ATOM     36  C   UNL     1     -16.651   0.030  -1.061  0.00  0.00    +0.000 A 
ATOM     37  H   UNL     1     -19.116  -2.147   0.698  0.00  0.00    +0.000 HD
ATOM     38  H   UNL     1     -15.108  -0.026  -2.416  0.00  0.00    +0.000 HD
ATOM     39  H   UNL     1     -17.080   1.719  -0.130  0.00  0.00    +0.000 HD
ATOM     40  H   UNL     1     -16.041   1.921  -1.443  0.00  0.00    +0.000 HD
BRANCH  26  42
ATOM     41  O   UNL     1     -16.006  -5.168  -3.904  0.00  0.00    +0.000 OA
ATOM     42  C   UNL     1     -16.659  -4.569  -3.131  0.00  0.00    +0.000 C 
ENDBRANCH  26  42
ENDBRANCH  24  31
ENDBRANCH   1  24
TORSDOF 10
ENDMDL
MODEL 8
REMARK VINA RESULT:      -5.7     22.948     24.983
REMARK  Name = 135403648_CalciumFolinate.pdbqt.pdb
REMARK  10 active torsions:
REMARK  status: ('A' for Active; 'I' for Inactive)
REMARK    1  A    between atoms: N_1  and  C_3
REMARK    2  A    between atoms: N_1  and  C_24
REMARK    3  A    between atoms: C_6  and  C_11
REMARK    4  A    between atoms: CA_13  and  C_15
REMARK    5  A    between atoms: CA_13  and  CB_18
REMARK    6  A    between atoms: C_15  and  O_16
REMARK    7  A    between atoms: CG_19  and  CD_21
REMARK    8  A    between atoms: CD_21  and  OE1_22
REMARK    9  A    between atoms: C_24  and  C_32
REMARK   10  A    between atoms: N_27  and  C_37
REMARK                            x       y       z     vdW  Elec       q    Type
REMARK                         _______ _______ _______ _____ _____    ______ ____
ROOT
ATOM      1  N   UNL     1     -13.064  -2.641  -4.149  0.00  0.00    +0.000 N 
ATOM      2  H   UNL     1     -12.622  -1.789  -4.494  0.00  0.00    +0.000 HD
ENDROOT
BRANCH   1   3
ATOM      3  C   UNL     1     -12.129  -3.534  -3.584  0.00  0.00    +0.000 A 
ATOM      4  C   UNL     1     -10.763  -3.270  -3.726  0.00  0.00    +0.000 A 
ATOM      5  C   UNL     1     -12.510  -4.768  -3.043  0.00  0.00    +0.000 A 
ATOM      6  C   UNL     1     -10.200  -5.381  -2.696  0.00  0.00    +0.000 A 
ATOM      7  C   UNL     1      -9.805  -4.176  -3.272  0.00  0.00    +0.000 A 
ATOM      8  C   UNL     1     -11.559  -5.677  -2.586  0.00  0.00    +0.000 A 
BRANCH   6  11
ATOM      9  O   UNL     1      -8.022  -6.151  -2.355  0.00  0.00    +0.000 OA
ATOM     10  N   UNL     1      -9.743  -7.494  -1.579  0.00  0.00    +0.000 N 
ATOM     11  C   ACE A   0      -9.217  -6.374  -2.195  0.00  0.00    +0.000 C 
ATOM     12  H   UNL     1     -10.752  -7.592  -1.498  0.00  0.00    +0.000 HD
ATOM     13  CA  UNL     1      -9.040  -8.555  -1.035  0.00  0.00    +0.000 C 
BRANCH  13  15
ATOM     14  OXT UNL     1      -9.584 -10.822  -0.509  0.00  0.00    +0.000 OA
ATOM     15  C   UNL     1      -9.862  -9.633  -0.435  0.00  0.00    +0.000 C 
BRANCH  15  16
ATOM     16  O   UNL     1     -10.955  -9.199   0.209  0.00  0.00    +0.000 OA
ATOM     17  H   UNL     1     -10.776  -8.254   0.400  0.00  0.00    +0.000 HD
ENDBRANCH  15  16
ENDBRANCH  13  15
BRANCH  13  18
ATOM     18  CB  UNL     1      -7.621  -8.610  -1.048  0.00  0.00    +0.000 C 
ATOM     19  CG  UNL     1      -6.089  -8.661  -1.052  0.00  0.00    +0.000 C 
BRANCH  19  21
ATOM     20  OE2 UNL     1      -3.958  -7.703  -1.065  0.00  0.00    +0.000 OA
ATOM     21  CD  UNL     1      -4.658  -8.699  -1.040  0.00  0.00    +0.000 C 
BRANCH  21  22
ATOM     22  OE1 UNL     1      -4.143  -9.941  -1.022  0.00  0.00    +0.000 OA
ATOM     23  HE1 UNL     1      -3.246  -9.819  -1.395  0.00  0.00    +0.000 HD
ENDBRANCH  21  22
ENDBRANCH  19  21
ENDBRANCH  13  18
ENDBRANCH   6  11
ENDBRANCH   1   3
BRANCH   1  24
ATOM     24  C   UNL     1     -14.353  -2.468  -3.489  0.00  0.00    +0.000 C 
BRANCH  24  31
ATOM     25  O   UNL     1     -16.873   0.838  -0.266  0.00  0.00    +0.000 OA
ATOM     26  N   UNL     1     -15.972  -1.239  -2.089  0.00  0.00    +0.000 N 
ATOM     27  N   UNL     1     -17.975  -3.336  -2.403  0.00  0.00    +0.000 N 
ATOM     28  N   UNL     1     -19.365  -2.239  -0.846  0.00  0.00    +0.000 NA
ATOM     29  N   UNL     1     -18.847  -0.166   0.040  0.00  0.00    +0.000 N 
ATOM     30  N   UNL     1     -20.828  -1.203   0.590  0.00  0.00    +0.000 N 
ATOM     31  C   UNL     1     -15.611  -2.351  -2.842  0.00  0.00    +0.000 C 
ATOM     32  C   UNL     1     -16.636  -3.309  -2.901  0.00  0.00    +0.000 C 
ATOM     33  C   UNL     1     -17.239  -1.236  -1.441  0.00  0.00    +0.000 A 
ATOM     34  C   UNL     1     -18.182  -2.234  -1.554  0.00  0.00    +0.000 A 
ATOM     35  C   UNL     1     -17.613  -0.105  -0.529  0.00  0.00    +0.000 A 
ATOM     36  C   UNL     1     -19.663  -1.233  -0.098  0.00  0.00    +0.000 A 
ATOM     37  H   UNL     1     -18.401  -4.173  -2.015  0.00  0.00    +0.000 HD
ATOM     38  H   UNL     1     -19.073   0.572   0.688  0.00  0.00    +0.000 HD
ATOM     39  H   UNL     1     -21.475  -1.924   0.281  0.00  0.00    +0.000 HD
ATOM     40  H   UNL     1     -21.274  -0.301   0.695  0.00  0.00    +0.000 HD
BRANCH  26  42
ATOM     41  O   UNL     1     -14.341   0.682  -1.933  0.00  0.00    +0.000 OA
ATOM     42  C   UNL     1     -15.090  -0.223  -1.970  0.00  0.00    +0.000 C 
ENDBRANCH  26  42
ENDBRANCH  24  31
ENDBRANCH   1  24
TORSDOF 10
ENDMDL
MODEL 9
REMARK VINA RESULT:      -5.6     15.822     19.585
REMARK  Name = 135403648_CalciumFolinate.pdbqt.pdb
REMARK  10 active torsions:
REMARK  status: ('A' for Active; 'I' for Inactive)
REMARK    1  A    between atoms: N_1  and  C_3
REMARK    2  A    between atoms: N_1  and  C_24
REMARK    3  A    between atoms: C_6  and  C_11
REMARK    4  A    between atoms: CA_13  and  C_15
REMARK    5  A    between atoms: CA_13  and  CB_18
REMARK    6  A    between atoms: C_15  and  O_16
REMARK    7  A    between atoms: CG_19  and  CD_21
REMARK    8  A    between atoms: CD_21  and  OE1_22
REMARK    9  A    between atoms: C_24  and  C_32
REMARK   10  A    between atoms: N_27  and  C_37
REMARK                            x       y       z     vdW  Elec       q    Type
REMARK                         _______ _______ _______ _____ _____    ______ ____
ROOT
ATOM      1  N   UNL     1      -8.965   0.847  21.897  0.00  0.00    +0.000 N 
ATOM      2  H   UNL     1      -9.445   1.589  22.405  0.00  0.00    +0.000 HD
ENDROOT
BRANCH   1   3
ATOM      3  C   UNL     1      -7.565   1.027  21.890  0.00  0.00    +0.000 A 
ATOM      4  C   UNL     1      -6.744  -0.003  22.359  0.00  0.00    +0.000 A 
ATOM      5  C   UNL     1      -6.974   2.262  21.600  0.00  0.00    +0.000 A 
ATOM      6  C   UNL     1      -4.785   1.391  22.132  0.00  0.00    +0.000 A 
ATOM      7  C   UNL     1      -5.364   0.170  22.465  0.00  0.00    +0.000 A 
ATOM      8  C   UNL     1      -5.596   2.442  21.702  0.00  0.00    +0.000 A 
BRANCH   6  11
ATOM      9  O   UNL     1      -2.770   1.470  23.309  0.00  0.00    +0.000 OA
ATOM     10  N   UNL     1      -2.688   1.994  21.054  0.00  0.00    +0.000 N 
ATOM     11  C   ACE A   0      -3.321   1.620  22.224  0.00  0.00    +0.000 C 
ATOM     12  H   UNL     1      -3.234   2.098  20.202  0.00  0.00    +0.000 HD
ATOM     13  CA  UNL     1      -1.342   2.266  20.884  0.00  0.00    +0.000 C 
BRANCH  13  15
ATOM     14  OXT UNL     1       0.228   2.860  19.182  0.00  0.00    +0.000 OA
ATOM     15  C   UNL     1      -0.931   2.651  19.512  0.00  0.00    +0.000 C 
BRANCH  15  16
ATOM     16  O   UNL     1      -1.946   2.755  18.641  0.00  0.00    +0.000 OA
ATOM     17  H   UNL     1      -2.186   1.830  18.423  0.00  0.00    +0.000 HD
ENDBRANCH  15  16
ENDBRANCH  13  15
BRANCH  13  18
ATOM     18  CB  UNL     1      -0.411   2.180  21.951  0.00  0.00    +0.000 C 
ATOM     19  CG  UNL     1       0.594   2.075  23.105  0.00  0.00    +0.000 C 
BRANCH  19  21
ATOM     20  OE2 UNL     1       2.505   1.231  24.152  0.00  0.00    +0.000 OA
ATOM     21  CD  UNL     1       1.529   1.959  24.182  0.00  0.00    +0.000 C 
BRANCH  21  22
ATOM     22  OE1 UNL     1       1.226   2.713  25.255  0.00  0.00    +0.000 OA
ATOM     23  HE1 UNL     1       0.248   2.732  25.249  0.00  0.00    +0.000 HD
ENDBRANCH  21  22
ENDBRANCH  19  21
ENDBRANCH  13  18
ENDBRANCH   6  11
ENDBRANCH   1   3
BRANCH   1  24
ATOM     24  C   UNL     1      -9.496  -0.498  22.080  0.00  0.00    +0.000 C 
BRANCH  24  31
ATOM     25  O   UNL     1     -13.825  -2.736  24.062  0.00  0.00    +0.000 OA
ATOM     26  N   UNL     1     -11.306  -2.013  22.805  0.00  0.00    +0.000 N 
ATOM     27  N   UNL     1      -9.733  -4.371  22.115  0.00  0.00    +0.000 N 
ATOM     28  N   UNL     1     -11.389  -5.752  23.070  0.00  0.00    +0.000 NA
ATOM     29  N   UNL     1     -13.397  -4.921  23.862  0.00  0.00    +0.000 N 
ATOM     30  N   UNL     1     -12.983  -7.186  23.894  0.00  0.00    +0.000 N 
ATOM     31  C   UNL     1     -10.025  -1.796  22.307  0.00  0.00    +0.000 C 
ATOM     32  C   UNL     1      -9.348  -2.997  22.040  0.00  0.00    +0.000 C 
ATOM     33  C   UNL     1     -11.728  -3.350  23.041  0.00  0.00    +0.000 A 
ATOM     34  C   UNL     1     -10.984  -4.473  22.750  0.00  0.00    +0.000 A 
ATOM     35  C   UNL     1     -13.057  -3.615  23.684  0.00  0.00    +0.000 A 
ATOM     36  C   UNL     1     -12.552  -5.939  23.592  0.00  0.00    +0.000 A 
ATOM     37  H   UNL     1      -9.106  -5.101  22.438  0.00  0.00    +0.000 HD
ATOM     38  H   UNL     1     -14.269  -5.090  24.337  0.00  0.00    +0.000 HD
ATOM     39  H   UNL     1     -12.398  -7.905  23.478  0.00  0.00    +0.000 HD
ATOM     40  H   UNL     1     -13.970  -7.371  23.771  0.00  0.00    +0.000 HD
BRANCH  26  42
ATOM     41  O   UNL     1     -12.718   0.000  23.379  0.00  0.00    +0.000 OA
ATOM     42  C   UNL     1     -12.083  -0.943  23.081  0.00  0.00    +0.000 C 
ENDBRANCH  26  42
ENDBRANCH  24  31
ENDBRANCH   1  24
TORSDOF 10
ENDMDL
