MODEL 1
REMARK VINA RESULT:      -7.0      0.000      0.000
REMARK  Name = 135423438_Nintedanib.pdbqt.pdb
REMARK  9 active torsions:
REMARK  status: ('A' for Active; 'I' for Inactive)
REMARK    1  A    between atoms: N_1  and  C_22
REMARK    2  A    between atoms: C_2  and  C_4
REMARK    3  A    between atoms: C_2  and  C_37
REMARK    4  A    between atoms: C_7  and  O_13
REMARK    5  A    between atoms: C_10  and  C_16
REMARK    6  A    between atoms: C_16  and  O_17
REMARK    7  A    between atoms: C_19  and  N_26
REMARK    8  A    between atoms: C_27  and  C_29
REMARK    9  A    between atoms: C_29  and  N_30
REMARK                            x       y       z     vdW  Elec       q    Type
REMARK                         _______ _______ _______ _____ _____    ______ ____
ROOT
ATOM      1  N   UNL     1     -10.186  -2.589  23.277  0.00  0.00    +0.000 NA
ATOM      2  C   UNL     1     -10.326  -3.720  22.646  0.00  0.00    +0.000 C 
ENDROOT
BRANCH   2   4
ATOM      3  N   UNL     1     -12.050  -6.476  24.335  0.00  0.00    +0.000 N 
ATOM      4  C   UNL     1     -10.777  -4.867  23.445  0.00  0.00    +0.000 A 
ATOM      5  C   UNL     1     -10.000  -5.615  24.398  0.00  0.00    +0.000 A 
ATOM      6  C   UNL     1     -10.820  -6.608  24.930  0.00  0.00    +0.000 A 
ATOM      7  C   UNL     1     -12.045  -5.433  23.444  0.00  0.00    +0.000 A 
ATOM      8  C   UNL     1      -8.667  -5.541  24.852  0.00  0.00    +0.000 A 
ATOM      9  C   UNL     1     -10.383  -7.526  25.891  0.00  0.00    +0.000 A 
ATOM     10  C   UNL     1      -9.054  -7.422  26.324  0.00  0.00    +0.000 A 
ATOM     11  C   UNL     1      -8.208  -6.446  25.811  0.00  0.00    +0.000 A 
ATOM     12  H   UNL     1     -12.842  -7.069  24.538  0.00  0.00    +0.000 HD
BRANCH   7  13
ATOM     13  O   UNL     1     -13.135  -5.105  22.758  0.00  0.00    +0.000 OA
ATOM     14  H   UNL     1     -13.060  -4.202  22.403  0.00  0.00    +0.000 HD
ENDBRANCH   7  13
BRANCH  10  16
ATOM     15  O   UNL     1      -7.598  -8.034  28.095  0.00  0.00    +0.000 OA
ATOM     16  C   UNL     1      -8.504  -8.349  27.337  0.00  0.00    +0.000 C 
BRANCH  16  17
ATOM     17  O   UNL     1      -9.170  -9.535  27.251  0.00  0.00    +0.000 OA
ATOM     18  C   UNL     1      -9.312 -10.302  28.419  0.00  0.00    +0.000 C 
ENDBRANCH  16  17
ENDBRANCH  10  16
ENDBRANCH   2   4
BRANCH   1  22
ATOM     19  C   UNL     1      -8.792   0.917  21.361  0.00  0.00    +0.000 A 
ATOM     20  C   UNL     1     -10.105   0.810  21.826  0.00  0.00    +0.000 A 
ATOM     21  C   UNL     1      -7.953  -0.189  21.556  0.00  0.00    +0.000 A 
ATOM     22  C   UNL     1      -9.729  -1.448  22.608  0.00  0.00    +0.000 A 
ATOM     23  C   UNL     1     -10.570  -0.347  22.450  0.00  0.00    +0.000 A 
ATOM     24  C   UNL     1      -8.407  -1.351  22.178  0.00  0.00    +0.000 A 
BRANCH  19  26
ATOM     25  O   UNL     1      -9.675   1.887  18.781  0.00  0.00    +0.000 OA
ATOM     26  N   UNL     1      -8.307   2.111  20.708  0.00  0.00    +0.000 N 
ATOM     27  C   UNL     1      -8.824   2.477  19.439  0.00  0.00    +0.000 C 
ATOM     28  C   UNL     1      -7.282   2.855  21.446  0.00  0.00    +0.000 C 
BRANCH  27  29
ATOM     29  C   UNL     1      -8.281   3.688  18.840  0.00  0.00    +0.000 C 
BRANCH  29  30
ATOM     30  N   UNL     1      -7.736   4.890  18.212  0.00  0.00    +0.000 N 
ATOM     31  N   UNL     1      -9.863   7.732  18.259  0.00  0.00    +0.000 N 
ATOM     32  C   UNL     1      -8.768   5.381  17.257  0.00  0.00    +0.000 C 
ATOM     33  C   UNL     1      -7.904   5.995  19.197  0.00  0.00    +0.000 C 
ATOM     34  C   UNL     1      -9.702   6.625  17.278  0.00  0.00    +0.000 C 
ATOM     35  C   UNL     1      -8.839   7.239  19.219  0.00  0.00    +0.000 C 
ATOM     36  C   UNL     1     -11.161   7.548  18.893  0.00  0.00    +0.000 C 
ENDBRANCH  29  30
ENDBRANCH  27  29
ENDBRANCH  19  26
ENDBRANCH   1  22
BRANCH   2  37
ATOM     37  C   UNL     1     -10.063  -3.924  21.211  0.00  0.00    +0.000 A 
ATOM     38  C   UNL     1      -8.946  -4.658  20.816  0.00  0.00    +0.000 A 
ATOM     39  C   UNL     1     -10.958  -3.406  20.276  0.00  0.00    +0.000 A 
ATOM     40  C   UNL     1      -8.720  -4.868  19.459  0.00  0.00    +0.000 A 
ATOM     41  C   UNL     1     -10.722  -3.622  18.922  0.00  0.00    +0.000 A 
ATOM     42  C   UNL     1      -9.606  -4.352  18.514  0.00  0.00    +0.000 A 
ENDBRANCH   2  37
TORSDOF 9
ENDMDL
MODEL 2
REMARK VINA RESULT:      -6.9      1.178      2.133
REMARK  Name = 135423438_Nintedanib.pdbqt.pdb
REMARK  9 active torsions:
REMARK  status: ('A' for Active; 'I' for Inactive)
REMARK    1  A    between atoms: N_1  and  C_22
REMARK    2  A    between atoms: C_2  and  C_4
REMARK    3  A    between atoms: C_2  and  C_37
REMARK    4  A    between atoms: C_7  and  O_13
REMARK    5  A    between atoms: C_10  and  C_16
REMARK    6  A    between atoms: C_16  and  O_17
REMARK    7  A    between atoms: C_19  and  N_26
REMARK    8  A    between atoms: C_27  and  C_29
REMARK    9  A    between atoms: C_29  and  N_30
REMARK                            x       y       z     vdW  Elec       q    Type
REMARK                         _______ _______ _______ _____ _____    ______ ____
ROOT
ATOM      1  N   UNL     1     -10.222  -2.636  23.200  0.00  0.00    +0.000 NA
ATOM      2  C   UNL     1     -10.368  -3.775  22.585  0.00  0.00    +0.000 C 
ENDROOT
BRANCH   2   4
ATOM      3  N   UNL     1     -12.112  -6.494  24.313  0.00  0.00    +0.000 N 
ATOM      4  C   UNL     1     -10.827  -4.908  23.399  0.00  0.00    +0.000 A 
ATOM      5  C   UNL     1     -10.053  -5.652  24.358  0.00  0.00    +0.000 A 
ATOM      6  C   UNL     1     -10.881  -6.631  24.904  0.00  0.00    +0.000 A 
ATOM      7  C   UNL     1     -12.100  -5.462  23.409  0.00  0.00    +0.000 A 
ATOM      8  C   UNL     1      -8.718  -5.585  24.806  0.00  0.00    +0.000 A 
ATOM      9  C   UNL     1     -10.449  -7.541  25.875  0.00  0.00    +0.000 A 
ATOM     10  C   UNL     1      -9.118  -7.446  26.302  0.00  0.00    +0.000 A 
ATOM     11  C   UNL     1      -8.265  -6.484  25.774  0.00  0.00    +0.000 A 
ATOM     12  H   UNL     1     -12.909  -7.076  24.526  0.00  0.00    +0.000 HD
BRANCH   7  13
ATOM     13  O   UNL     1     -13.190  -5.131  22.724  0.00  0.00    +0.000 OA
ATOM     14  H   UNL     1     -13.130  -4.214  22.402  0.00  0.00    +0.000 HD
ENDBRANCH   7  13
BRANCH  10  16
ATOM     15  O   UNL     1      -7.703  -8.031  28.115  0.00  0.00    +0.000 OA
ATOM     16  C   UNL     1      -8.573  -8.366  27.323  0.00  0.00    +0.000 C 
BRANCH  16  17
ATOM     17  O   UNL     1      -9.198  -9.571  27.203  0.00  0.00    +0.000 OA
ATOM     18  C   UNL     1      -9.381 -10.342  28.363  0.00  0.00    +0.000 C 
ENDBRANCH  16  17
ENDBRANCH  10  16
ENDBRANCH   2   4
BRANCH   1  22
ATOM     19  C   UNL     1      -8.805   0.834  21.238  0.00  0.00    +0.000 A 
ATOM     20  C   UNL     1     -10.123   0.736  21.690  0.00  0.00    +0.000 A 
ATOM     21  C   UNL     1      -7.969  -0.268  21.462  0.00  0.00    +0.000 A 
ATOM     22  C   UNL     1      -9.757  -1.507  22.516  0.00  0.00    +0.000 A 
ATOM     23  C   UNL     1     -10.596  -0.409  22.328  0.00  0.00    +0.000 A 
ATOM     24  C   UNL     1      -8.430  -1.418  22.100  0.00  0.00    +0.000 A 
BRANCH  19  26
ATOM     25  O   UNL     1      -9.831   1.897  18.748  0.00  0.00    +0.000 OA
ATOM     26  N   UNL     1      -8.312   2.017  20.569  0.00  0.00    +0.000 N 
ATOM     27  C   UNL     1      -8.904   2.432  19.349  0.00  0.00    +0.000 C 
ATOM     28  C   UNL     1      -7.199   2.696  21.238  0.00  0.00    +0.000 C 
BRANCH  27  29
ATOM     29  C   UNL     1      -8.349   3.628  18.730  0.00  0.00    +0.000 C 
BRANCH  29  30
ATOM     30  N   UNL     1      -7.788   4.812  18.083  0.00  0.00    +0.000 N 
ATOM     31  N   UNL     1      -4.399   5.517  18.869  0.00  0.00    +0.000 N 
ATOM     32  C   UNL     1      -7.162   5.632  19.157  0.00  0.00    +0.000 C 
ATOM     33  C   UNL     1      -6.508   4.383  17.453  0.00  0.00    +0.000 C 
ATOM     34  C   UNL     1      -5.676   5.939  19.504  0.00  0.00    +0.000 C 
ATOM     35  C   UNL     1      -5.022   4.690  17.801  0.00  0.00    +0.000 C 
ATOM     36  C   UNL     1      -3.752   4.596  19.794  0.00  0.00    +0.000 C 
ENDBRANCH  29  30
ENDBRANCH  27  29
ENDBRANCH  19  26
ENDBRANCH   1  22
BRANCH   2  37
ATOM     37  C   UNL     1     -10.104  -4.000  21.153  0.00  0.00    +0.000 A 
ATOM     38  C   UNL     1     -10.962  -3.450  20.202  0.00  0.00    +0.000 A 
ATOM     39  C   UNL     1      -8.980  -4.733  20.777  0.00  0.00    +0.000 A 
ATOM     40  C   UNL     1     -10.691  -3.646  18.852  0.00  0.00    +0.000 A 
ATOM     41  C   UNL     1      -8.718  -4.924  19.424  0.00  0.00    +0.000 A 
ATOM     42  C   UNL     1      -9.572  -4.381  18.463  0.00  0.00    +0.000 A 
ENDBRANCH   2  37
TORSDOF 9
ENDMDL
MODEL 3
REMARK VINA RESULT:      -6.6      2.310      3.357
REMARK  Name = 135423438_Nintedanib.pdbqt.pdb
REMARK  9 active torsions:
REMARK  status: ('A' for Active; 'I' for Inactive)
REMARK    1  A    between atoms: N_1  and  C_22
REMARK    2  A    between atoms: C_2  and  C_4
REMARK    3  A    between atoms: C_2  and  C_37
REMARK    4  A    between atoms: C_7  and  O_13
REMARK    5  A    between atoms: C_10  and  C_16
REMARK    6  A    between atoms: C_16  and  O_17
REMARK    7  A    between atoms: C_19  and  N_26
REMARK    8  A    between atoms: C_27  and  C_29
REMARK    9  A    between atoms: C_29  and  N_30
REMARK                            x       y       z     vdW  Elec       q    Type
REMARK                         _______ _______ _______ _____ _____    ______ ____
ROOT
ATOM      1  N   UNL     1     -10.724  -2.525  23.453  0.00  0.00    +0.000 NA
ATOM      2  C   UNL     1     -10.876  -3.660  22.834  0.00  0.00    +0.000 C 
ENDROOT
BRANCH   2   4
ATOM      3  N   UNL     1     -13.177  -6.013  24.444  0.00  0.00    +0.000 N 
ATOM      4  C   UNL     1     -11.572  -4.723  23.572  0.00  0.00    +0.000 A 
ATOM      5  C   UNL     1     -10.969  -5.759  24.369  0.00  0.00    +0.000 A 
ATOM      6  C   UNL     1     -11.994  -6.543  24.893  0.00  0.00    +0.000 A 
ATOM      7  C   UNL     1     -12.945  -4.917  23.653  0.00  0.00    +0.000 A 
ATOM      8  C   UNL     1      -9.639  -6.104  24.685  0.00  0.00    +0.000 A 
ATOM      9  C   UNL     1     -11.763  -7.649  25.719  0.00  0.00    +0.000 A 
ATOM     10  C   UNL     1     -10.431  -7.963  26.018  0.00  0.00    +0.000 A 
ATOM     11  C   UNL     1      -9.384  -7.204  25.507  0.00  0.00    +0.000 A 
ATOM     12  H   UNL     1     -14.087  -6.385  24.676  0.00  0.00    +0.000 HD
BRANCH   7  13
ATOM     13  O   UNL     1     -13.946  -4.227  23.117  0.00  0.00    +0.000 OA
ATOM     14  H   UNL     1     -14.802  -4.537  23.460  0.00  0.00    +0.000 HD
ENDBRANCH   7  13
BRANCH  10  16
ATOM     15  O   UNL     1     -10.169 -10.272  26.499  0.00  0.00    +0.000 OA
ATOM     16  C   UNL     1     -10.090  -9.114  26.882  0.00  0.00    +0.000 C 
BRANCH  16  17
ATOM     17  O   UNL     1      -9.700  -8.645  28.101  0.00  0.00    +0.000 OA
ATOM     18  C   UNL     1      -8.652  -9.306  28.762  0.00  0.00    +0.000 C 
ENDBRANCH  16  17
ENDBRANCH  10  16
ENDBRANCH   2   4
BRANCH   1  22
ATOM     19  C   UNL     1      -8.661   0.739  21.723  0.00  0.00    +0.000 A 
ATOM     20  C   UNL     1     -10.019   0.818  22.042  0.00  0.00    +0.000 A 
ATOM     21  C   UNL     1      -8.009  -0.470  21.999  0.00  0.00    +0.000 A 
ATOM     22  C   UNL     1     -10.044  -1.463  22.845  0.00  0.00    +0.000 A 
ATOM     23  C   UNL     1     -10.704  -0.258  22.604  0.00  0.00    +0.000 A 
ATOM     24  C   UNL     1      -8.683  -1.553  22.561  0.00  0.00    +0.000 A 
BRANCH  19  26
ATOM     25  O   UNL     1      -6.162   1.829  22.694  0.00  0.00    +0.000 OA
ATOM     26  N   UNL     1      -7.949   1.851  21.133  0.00  0.00    +0.000 N 
ATOM     27  C   UNL     1      -6.730   2.289  21.709  0.00  0.00    +0.000 C 
ATOM     28  C   UNL     1      -8.585   2.445  19.954  0.00  0.00    +0.000 C 
BRANCH  27  29
ATOM     29  C   UNL     1      -6.075   3.418  21.064  0.00  0.00    +0.000 C 
BRANCH  29  30
ATOM     30  N   UNL     1      -5.396   4.533  20.407  0.00  0.00    +0.000 N 
ATOM     31  N   UNL     1      -2.125   3.838  19.216  0.00  0.00    +0.000 N 
ATOM     32  C   UNL     1      -4.055   4.655  21.044  0.00  0.00    +0.000 C 
ATOM     33  C   UNL     1      -4.899   4.016  19.102  0.00  0.00    +0.000 C 
ATOM     34  C   UNL     1      -2.621   4.347  20.524  0.00  0.00    +0.000 C 
ATOM     35  C   UNL     1      -3.464   3.708  18.582  0.00  0.00    +0.000 C 
ATOM     36  C   UNL     1      -1.634   2.486  19.449  0.00  0.00    +0.000 C 
ENDBRANCH  29  30
ENDBRANCH  27  29
ENDBRANCH  19  26
ENDBRANCH   1  22
BRANCH   2  37
ATOM     37  C   UNL     1     -10.403  -3.947  21.469  0.00  0.00    +0.000 A 
ATOM     38  C   UNL     1      -9.264  -4.730  21.288  0.00  0.00    +0.000 A 
ATOM     39  C   UNL     1     -11.125  -3.457  20.382  0.00  0.00    +0.000 A 
ATOM     40  C   UNL     1      -8.839  -5.018  19.995  0.00  0.00    +0.000 A 
ATOM     41  C   UNL     1     -10.691  -3.750  19.094  0.00  0.00    +0.000 A 
ATOM     42  C   UNL     1      -9.551  -4.530  18.900  0.00  0.00    +0.000 A 
ENDBRANCH   2  37
TORSDOF 9
ENDMDL
MODEL 4
REMARK VINA RESULT:      -6.5      4.968     11.828
REMARK  Name = 135423438_Nintedanib.pdbqt.pdb
REMARK  9 active torsions:
REMARK  status: ('A' for Active; 'I' for Inactive)
REMARK    1  A    between atoms: N_1  and  C_22
REMARK    2  A    between atoms: C_2  and  C_4
REMARK    3  A    between atoms: C_2  and  C_37
REMARK    4  A    between atoms: C_7  and  O_13
REMARK    5  A    between atoms: C_10  and  C_16
REMARK    6  A    between atoms: C_16  and  O_17
REMARK    7  A    between atoms: C_19  and  N_26
REMARK    8  A    between atoms: C_27  and  C_29
REMARK    9  A    between atoms: C_29  and  N_30
REMARK                            x       y       z     vdW  Elec       q    Type
REMARK                         _______ _______ _______ _____ _____    ______ ____
ROOT
ATOM      1  N   UNL     1      -8.641  -4.399  23.508  0.00  0.00    +0.000 NA
ATOM      2  C   UNL     1      -9.821  -4.272  22.973  0.00  0.00    +0.000 C 
ENDROOT
BRANCH   2   4
ATOM      3  N   UNL     1     -10.257  -2.533  19.778  0.00  0.00    +0.000 N 
ATOM      4  C   UNL     1      -9.865  -3.790  21.586  0.00  0.00    +0.000 A 
ATOM      5  C   UNL     1      -9.364  -4.467  20.419  0.00  0.00    +0.000 A 
ATOM      6  C   UNL     1      -9.622  -3.657  19.314  0.00  0.00    +0.000 A 
ATOM      7  C   UNL     1     -10.416  -2.596  21.139  0.00  0.00    +0.000 A 
ATOM      8  C   UNL     1      -8.707  -5.695  20.204  0.00  0.00    +0.000 A 
ATOM      9  C   UNL     1      -9.263  -4.010  18.009  0.00  0.00    +0.000 A 
ATOM     10  C   UNL     1      -8.615  -5.239  17.828  0.00  0.00    +0.000 A 
ATOM     11  C   UNL     1      -8.339  -6.069  18.910  0.00  0.00    +0.000 A 
ATOM     12  H   UNL     1     -10.564  -1.774  19.188  0.00  0.00    +0.000 HD
BRANCH   7  13
ATOM     13  O   UNL     1     -11.023  -1.622  21.810  0.00  0.00    +0.000 OA
ATOM     14  H   UNL     1     -11.905  -1.906  22.108  0.00  0.00    +0.000 HD
ENDBRANCH   7  13
BRANCH  10  16
ATOM     15  O   UNL     1      -7.228  -5.231  15.903  0.00  0.00    +0.000 OA
ATOM     16  C   UNL     1      -8.198  -5.696  16.485  0.00  0.00    +0.000 C 
BRANCH  16  17
ATOM     17  O   UNL     1      -9.058  -6.668  16.068  0.00  0.00    +0.000 OA
ATOM     18  C   UNL     1     -10.102  -6.302  15.202  0.00  0.00    +0.000 C 
ENDBRANCH  16  17
ENDBRANCH  10  16
ENDBRANCH   2   4
BRANCH   1  22
ATOM     19  C   UNL     1      -8.326  -5.652  27.538  0.00  0.00    +0.000 A 
ATOM     20  C   UNL     1      -8.388  -4.299  27.195  0.00  0.00    +0.000 A 
ATOM     21  C   UNL     1      -8.372  -6.579  26.489  0.00  0.00    +0.000 A 
ATOM     22  C   UNL     1      -8.498  -4.820  24.836  0.00  0.00    +0.000 A 
ATOM     23  C   UNL     1      -8.482  -3.882  25.868  0.00  0.00    +0.000 A 
ATOM     24  C   UNL     1      -8.467  -6.175  25.158  0.00  0.00    +0.000 A 
BRANCH  19  26
ATOM     25  O   UNL     1      -5.865  -6.385  28.875  0.00  0.00    +0.000 OA
ATOM     26  N   UNL     1      -8.220  -6.088  28.912  0.00  0.00    +0.000 N 
ATOM     27  C   UNL     1      -6.950  -6.419  29.448  0.00  0.00    +0.000 C 
ATOM     28  C   UNL     1      -9.487  -6.154  29.645  0.00  0.00    +0.000 C 
BRANCH  27  29
ATOM     29  C   UNL     1      -6.925  -6.858  30.836  0.00  0.00    +0.000 C 
BRANCH  29  30
ATOM     30  N   UNL     1      -6.925  -7.313  32.225  0.00  0.00    +0.000 N 
ATOM     31  N   UNL     1      -5.941 -10.688  32.723  0.00  0.00    +0.000 N 
ATOM     32  C   UNL     1      -7.700  -8.584  32.260  0.00  0.00    +0.000 C 
ATOM     33  C   UNL     1      -5.595  -7.940  32.465  0.00  0.00    +0.000 C 
ATOM     34  C   UNL     1      -7.269 -10.064  32.476  0.00  0.00    +0.000 C 
ATOM     35  C   UNL     1      -5.164  -9.420  32.679  0.00  0.00    +0.000 C 
ATOM     36  C   UNL     1      -5.597 -11.437  31.522  0.00  0.00    +0.000 C 
ENDBRANCH  29  30
ENDBRANCH  27  29
ENDBRANCH  19  26
ENDBRANCH   1  22
BRANCH   2  37
ATOM     37  C   UNL     1     -11.093  -4.571  23.653  0.00  0.00    +0.000 A 
ATOM     38  C   UNL     1     -11.666  -5.834  23.514  0.00  0.00    +0.000 A 
ATOM     39  C   UNL     1     -11.683  -3.592  24.452  0.00  0.00    +0.000 A 
ATOM     40  C   UNL     1     -12.854  -6.116  24.182  0.00  0.00    +0.000 A 
ATOM     41  C   UNL     1     -12.870  -3.884  25.114  0.00  0.00    +0.000 A 
ATOM     42  C   UNL     1     -13.455  -5.144  24.980  0.00  0.00    +0.000 A 
ENDBRANCH   2  37
TORSDOF 9
ENDMDL
MODEL 5
REMARK VINA RESULT:      -6.4      2.756     11.865
REMARK  Name = 135423438_Nintedanib.pdbqt.pdb
REMARK  9 active torsions:
REMARK  status: ('A' for Active; 'I' for Inactive)
REMARK    1  A    between atoms: N_1  and  C_22
REMARK    2  A    between atoms: C_2  and  C_4
REMARK    3  A    between atoms: C_2  and  C_37
REMARK    4  A    between atoms: C_7  and  O_13
REMARK    5  A    between atoms: C_10  and  C_16
REMARK    6  A    between atoms: C_16  and  O_17
REMARK    7  A    between atoms: C_19  and  N_26
REMARK    8  A    between atoms: C_27  and  C_29
REMARK    9  A    between atoms: C_29  and  N_30
REMARK                            x       y       z     vdW  Elec       q    Type
REMARK                         _______ _______ _______ _____ _____    ______ ____
ROOT
ATOM      1  N   UNL     1      -8.408  -2.336  24.230  0.00  0.00    +0.000 NA
ATOM      2  C   UNL     1      -8.387  -2.066  22.957  0.00  0.00    +0.000 C 
ENDROOT
BRANCH   2   4
ATOM      3  N   UNL     1      -6.267   0.866  22.385  0.00  0.00    +0.000 N 
ATOM      4  C   UNL     1      -7.738  -0.810  22.561  0.00  0.00    +0.000 A 
ATOM      5  C   UNL     1      -8.266   0.195  21.676  0.00  0.00    +0.000 A 
ATOM      6  C   UNL     1      -7.327   1.220  21.587  0.00  0.00    +0.000 A 
ATOM      7  C   UNL     1      -6.497  -0.348  22.981  0.00  0.00    +0.000 A 
ATOM      8  C   UNL     1      -9.460   0.321  20.936  0.00  0.00    +0.000 A 
ATOM      9  C   UNL     1      -7.517   2.364  20.805  0.00  0.00    +0.000 A 
ATOM     10  C   UNL     1      -8.715   2.461  20.085  0.00  0.00    +0.000 A 
ATOM     11  C   UNL     1      -9.671   1.454  20.148  0.00  0.00    +0.000 A 
ATOM     12  H   UNL     1      -5.441   1.432  22.510  0.00  0.00    +0.000 HD
BRANCH   7  13
ATOM     13  O   UNL     1      -5.613  -0.887  23.813  0.00  0.00    +0.000 OA
ATOM     14  H   UNL     1      -5.519  -0.345  24.616  0.00  0.00    +0.000 HD
ENDBRANCH   7  13
BRANCH  10  16
ATOM     15  O   UNL     1      -8.211   4.052  18.398  0.00  0.00    +0.000 OA
ATOM     16  C   UNL     1      -9.003   3.633  19.230  0.00  0.00    +0.000 C 
BRANCH  16  17
ATOM     17  O   UNL     1     -10.242   4.108  19.544  0.00  0.00    +0.000 OA
ATOM     18  C   UNL     1     -10.333   5.160  20.470  0.00  0.00    +0.000 C 
ENDBRANCH  16  17
ENDBRANCH  10  16
ENDBRANCH   2   4
BRANCH   1  22
ATOM     19  C   UNL     1     -10.371  -5.835  25.576  0.00  0.00    +0.000 A 
ATOM     20  C   UNL     1     -10.953  -4.572  25.710  0.00  0.00    +0.000 A 
ATOM     21  C   UNL     1      -9.105  -5.895  24.977  0.00  0.00    +0.000 A 
ATOM     22  C   UNL     1      -9.034  -3.494  24.708  0.00  0.00    +0.000 A 
ATOM     23  C   UNL     1     -10.305  -3.416  25.276  0.00  0.00    +0.000 A 
ATOM     24  C   UNL     1      -8.448  -4.746  24.538  0.00  0.00    +0.000 A 
BRANCH  19  26
ATOM     25  O   UNL     1     -12.749  -6.982  24.390  0.00  0.00    +0.000 OA
ATOM     26  N   UNL     1     -11.035  -7.035  26.032  0.00  0.00    +0.000 N 
ATOM     27  C   UNL     1     -12.197  -7.492  25.361  0.00  0.00    +0.000 C 
ATOM     28  C   UNL     1     -10.424  -7.685  27.194  0.00  0.00    +0.000 C 
BRANCH  27  29
ATOM     29  C   UNL     1     -12.816  -8.702  25.883  0.00  0.00    +0.000 C 
BRANCH  29  30
ATOM     30  N   UNL     1     -13.454  -9.919  26.381  0.00  0.00    +0.000 N 
ATOM     31  N   UNL     1     -11.918 -11.391  29.223  0.00  0.00    +0.000 N 
ATOM     32  C   UNL     1     -12.380 -10.942  26.518  0.00  0.00    +0.000 C 
ATOM     33  C   UNL     1     -13.661  -9.719  27.843  0.00  0.00    +0.000 C 
ATOM     34  C   UNL     1     -11.704 -11.586  27.763  0.00  0.00    +0.000 C 
ATOM     35  C   UNL     1     -12.985 -10.363  29.089  0.00  0.00    +0.000 C 
ATOM     36  C   UNL     1     -10.736 -10.710  29.735  0.00  0.00    +0.000 C 
ENDBRANCH  29  30
ENDBRANCH  27  29
ENDBRANCH  19  26
ENDBRANCH   1  22
BRANCH   2  37
ATOM     37  C   UNL     1      -8.965  -2.920  21.904  0.00  0.00    +0.000 A 
ATOM     38  C   UNL     1      -8.128  -3.732  21.142  0.00  0.00    +0.000 A 
ATOM     39  C   UNL     1     -10.347  -2.922  21.714  0.00  0.00    +0.000 A 
ATOM     40  C   UNL     1      -8.685  -4.555  20.168  0.00  0.00    +0.000 A 
ATOM     41  C   UNL     1     -10.893  -3.747  20.736  0.00  0.00    +0.000 A 
ATOM     42  C   UNL     1     -10.064  -4.562  19.965  0.00  0.00    +0.000 A 
ENDBRANCH   2  37
TORSDOF 9
ENDMDL
MODEL 6
REMARK VINA RESULT:      -6.4     17.196     22.022
REMARK  Name = 135423438_Nintedanib.pdbqt.pdb
REMARK  9 active torsions:
REMARK  status: ('A' for Active; 'I' for Inactive)
REMARK    1  A    between atoms: N_1  and  C_22
REMARK    2  A    between atoms: C_2  and  C_4
REMARK    3  A    between atoms: C_2  and  C_37
REMARK    4  A    between atoms: C_7  and  O_13
REMARK    5  A    between atoms: C_10  and  C_16
REMARK    6  A    between atoms: C_16  and  O_17
REMARK    7  A    between atoms: C_19  and  N_26
REMARK    8  A    between atoms: C_27  and  C_29
REMARK    9  A    between atoms: C_29  and  N_30
REMARK                            x       y       z     vdW  Elec       q    Type
REMARK                         _______ _______ _______ _____ _____    ______ ____
ROOT
ATOM      1  N   UNL     1      -1.052  -1.407   5.286  0.00  0.00    +0.000 NA
ATOM      2  C   UNL     1      -0.357  -0.338   5.022  0.00  0.00    +0.000 C 
ENDROOT
BRANCH   2   4
ATOM      3  N   UNL     1       1.942   0.805   7.635  0.00  0.00    +0.000 N 
ATOM      4  C   UNL     1       0.356   0.278   6.148  0.00  0.00    +0.000 A 
ATOM      5  C   UNL     1      -0.169   1.238   7.083  0.00  0.00    +0.000 A 
ATOM      6  C   UNL     1       0.842   1.546   7.991  0.00  0.00    +0.000 A 
ATOM      7  C   UNL     1       1.668   0.035   6.533  0.00  0.00    +0.000 A 
ATOM      8  C   UNL     1      -1.416   1.879   7.235  0.00  0.00    +0.000 A 
ATOM      9  C   UNL     1       0.675   2.453   9.042  0.00  0.00    +0.000 A 
ATOM     10  C   UNL     1      -0.577   3.071   9.167  0.00  0.00    +0.000 A 
ATOM     11  C   UNL     1      -1.606   2.789   8.276  0.00  0.00    +0.000 A 
ATOM     12  H   UNL     1       2.823   0.830   8.127  0.00  0.00    +0.000 HD
BRANCH   7  13
ATOM     13  O   UNL     1       2.581  -0.780   6.016  0.00  0.00    +0.000 OA
ATOM     14  H   UNL     1       3.438  -0.668   6.465  0.00  0.00    +0.000 HD
ENDBRANCH   7  13
BRANCH  10  16
ATOM     15  O   UNL     1      -0.639   3.796  11.426  0.00  0.00    +0.000 OA
ATOM     16  C   UNL     1      -0.846   4.045  10.247  0.00  0.00    +0.000 C 
BRANCH  16  17
ATOM     17  O   UNL     1      -1.336   5.189   9.691  0.00  0.00    +0.000 OA
ATOM     18  C   UNL     1      -2.390   5.846  10.346  0.00  0.00    +0.000 C 
ENDBRANCH  16  17
ENDBRANCH  10  16
ENDBRANCH   2   4
BRANCH   1  22
ATOM     19  C   UNL     1      -3.294  -3.233   2.197  0.00  0.00    +0.000 A 
ATOM     20  C   UNL     1      -3.895  -2.397   3.141  0.00  0.00    +0.000 A 
ATOM     21  C   UNL     1      -1.914  -3.444   2.317  0.00  0.00    +0.000 A 
ATOM     22  C   UNL     1      -1.794  -2.045   4.284  0.00  0.00    +0.000 A 
ATOM     23  C   UNL     1      -3.161  -1.800   4.165  0.00  0.00    +0.000 A 
ATOM     24  C   UNL     1      -1.169  -2.853   3.336  0.00  0.00    +0.000 A 
BRANCH  19  26
ATOM     25  O   UNL     1      -4.508  -5.858   2.335  0.00  0.00    +0.000 OA
ATOM     26  N   UNL     1      -4.053  -3.859   1.138  0.00  0.00    +0.000 N 
ATOM     27  C   UNL     1      -4.596  -5.154   1.334  0.00  0.00    +0.000 C 
ATOM     28  C   UNL     1      -4.187  -3.067  -0.088  0.00  0.00    +0.000 C 
BRANCH  27  29
ATOM     29  C   UNL     1      -5.341  -5.723   0.219  0.00  0.00    +0.000 C 
BRANCH  29  30
ATOM     30  N   UNL     1      -6.103  -6.311  -0.881  0.00  0.00    +0.000 N 
ATOM     31  N   UNL     1      -4.529  -9.023  -2.545  0.00  0.00    +0.000 N 
ATOM     32  C   UNL     1      -5.189  -6.367  -2.055  0.00  0.00    +0.000 C 
ATOM     33  C   UNL     1      -6.128  -7.781  -0.638  0.00  0.00    +0.000 C 
ATOM     34  C   UNL     1      -4.496  -7.555  -2.783  0.00  0.00    +0.000 C 
ATOM     35  C   UNL     1      -5.435  -8.969  -1.366  0.00  0.00    +0.000 C 
ATOM     36  C   UNL     1      -3.212  -9.400  -2.049  0.00  0.00    +0.000 C 
ENDBRANCH  29  30
ENDBRANCH  27  29
ENDBRANCH  19  26
ENDBRANCH   1  22
BRANCH   2  37
ATOM     37  C   UNL     1      -0.244   0.288   3.692  0.00  0.00    +0.000 A 
ATOM     38  C   UNL     1       0.833  -0.039   2.870  0.00  0.00    +0.000 A 
ATOM     39  C   UNL     1      -1.237   1.172   3.271  0.00  0.00    +0.000 A 
ATOM     40  C   UNL     1       0.918   0.537   1.606  0.00  0.00    +0.000 A 
ATOM     41  C   UNL     1      -1.141   1.742   2.006  0.00  0.00    +0.000 A 
ATOM     42  C   UNL     1      -0.067   1.425   1.175  0.00  0.00    +0.000 A 
ENDBRANCH   2  37
TORSDOF 9
ENDMDL
MODEL 7
REMARK VINA RESULT:      -6.3      2.778      3.978
REMARK  Name = 135423438_Nintedanib.pdbqt.pdb
REMARK  9 active torsions:
REMARK  status: ('A' for Active; 'I' for Inactive)
REMARK    1  A    between atoms: N_1  and  C_22
REMARK    2  A    between atoms: C_2  and  C_4
REMARK    3  A    between atoms: C_2  and  C_37
REMARK    4  A    between atoms: C_7  and  O_13
REMARK    5  A    between atoms: C_10  and  C_16
REMARK    6  A    between atoms: C_16  and  O_17
REMARK    7  A    between atoms: C_19  and  N_26
REMARK    8  A    between atoms: C_27  and  C_29
REMARK    9  A    between atoms: C_29  and  N_30
REMARK                            x       y       z     vdW  Elec       q    Type
REMARK                         _______ _______ _______ _____ _____    ______ ____
ROOT
ATOM      1  N   UNL     1      -8.001  -4.502  24.524  0.00  0.00    +0.000 NA
ATOM      2  C   UNL     1      -9.165  -5.081  24.600  0.00  0.00    +0.000 C 
ENDROOT
BRANCH   2   4
ATOM      3  N   UNL     1      -8.573  -8.352  26.139  0.00  0.00    +0.000 N 
ATOM      4  C   UNL     1      -9.199  -6.408  25.229  0.00  0.00    +0.000 A 
ATOM      5  C   UNL     1     -10.371  -7.171  25.572  0.00  0.00    +0.000 A 
ATOM      6  C   UNL     1      -9.945  -8.372  26.138  0.00  0.00    +0.000 A 
ATOM      7  C   UNL     1      -8.106  -7.184  25.593  0.00  0.00    +0.000 A 
ATOM      8  C   UNL     1     -11.758  -6.944  25.459  0.00  0.00    +0.000 A 
ATOM      9  C   UNL     1     -10.829  -9.357  26.591  0.00  0.00    +0.000 A 
ATOM     10  C   UNL     1     -12.200  -9.103  26.461  0.00  0.00    +0.000 A 
ATOM     11  C   UNL     1     -12.658  -7.914  25.905  0.00  0.00    +0.000 A 
ATOM     12  H   UNL     1      -7.998  -9.104  26.492  0.00  0.00    +0.000 HD
BRANCH   7  13
ATOM     13  O   UNL     1      -6.804  -6.948  25.474  0.00  0.00    +0.000 OA
ATOM     14  H   UNL     1      -6.607  -6.009  25.636  0.00  0.00    +0.000 HD
ENDBRANCH   7  13
BRANCH  10  16
ATOM     15  O   UNL     1     -14.152  -9.782  27.627  0.00  0.00    +0.000 OA
ATOM     16  C   UNL     1     -13.208 -10.087  26.913  0.00  0.00    +0.000 C 
BRANCH  16  17
ATOM     17  O   UNL     1     -12.885 -11.308  26.402  0.00  0.00    +0.000 OA
ATOM     18  C   UNL     1     -13.588 -12.430  26.872  0.00  0.00    +0.000 C 
ENDBRANCH  16  17
ENDBRANCH  10  16
ENDBRANCH   2   4
BRANCH   1  22
ATOM     19  C   UNL     1      -7.467  -0.715  22.713  0.00  0.00    +0.000 A 
ATOM     20  C   UNL     1      -7.728  -0.843  24.080  0.00  0.00    +0.000 A 
ATOM     21  C   UNL     1      -7.390  -1.897  21.965  0.00  0.00    +0.000 A 
ATOM     22  C   UNL     1      -7.862  -3.251  23.911  0.00  0.00    +0.000 A 
ATOM     23  C   UNL     1      -7.914  -2.088  24.678  0.00  0.00    +0.000 A 
ATOM     24  C   UNL     1      -7.573  -3.148  22.551  0.00  0.00    +0.000 A 
BRANCH  19  26
ATOM     25  O   UNL     1      -5.134   0.972  23.018  0.00  0.00    +0.000 OA
ATOM     26  N   UNL     1      -7.282   0.575  22.088  0.00  0.00    +0.000 N 
ATOM     27  C   UNL     1      -6.088   1.303  22.320  0.00  0.00    +0.000 C 
ATOM     28  C   UNL     1      -8.394   1.026  21.246  0.00  0.00    +0.000 C 
BRANCH  27  29
ATOM     29  C   UNL     1      -5.978   2.598  21.662  0.00  0.00    +0.000 C 
BRANCH  29  30
ATOM     30  N   UNL     1      -5.843   3.886  20.986  0.00  0.00    +0.000 N 
ATOM     31  N   UNL     1      -8.496   4.738  18.787  0.00  0.00    +0.000 N 
ATOM     32  C   UNL     1      -6.056   3.634  19.534  0.00  0.00    +0.000 C 
ATOM     33  C   UNL     1      -7.124   4.614  21.204  0.00  0.00    +0.000 C 
ATOM     34  C   UNL     1      -7.220   4.004  18.570  0.00  0.00    +0.000 C 
ATOM     35  C   UNL     1      -8.289   4.984  20.240  0.00  0.00    +0.000 C 
ATOM     36  C   UNL     1      -9.570   3.761  18.672  0.00  0.00    +0.000 C 
ENDBRANCH  29  30
ENDBRANCH  27  29
ENDBRANCH  19  26
ENDBRANCH   1  22
BRANCH   2  37
ATOM     37  C   UNL     1     -10.427  -4.507  24.102  0.00  0.00    +0.000 A 
ATOM     38  C   UNL     1     -10.881  -4.848  22.829  0.00  0.00    +0.000 A 
ATOM     39  C   UNL     1     -11.161  -3.659  24.930  0.00  0.00    +0.000 A 
ATOM     40  C   UNL     1     -12.087  -4.322  22.377  0.00  0.00    +0.000 A 
ATOM     41  C   UNL     1     -12.366  -3.139  24.468  0.00  0.00    +0.000 A 
ATOM     42  C   UNL     1     -12.828  -3.469  23.195  0.00  0.00    +0.000 A 
ENDBRANCH   2  37
TORSDOF 9
ENDMDL
MODEL 8
REMARK VINA RESULT:      -6.3     14.980     18.889
REMARK  Name = 135423438_Nintedanib.pdbqt.pdb
REMARK  9 active torsions:
REMARK  status: ('A' for Active; 'I' for Inactive)
REMARK    1  A    between atoms: N_1  and  C_22
REMARK    2  A    between atoms: C_2  and  C_4
REMARK    3  A    between atoms: C_2  and  C_37
REMARK    4  A    between atoms: C_7  and  O_13
REMARK    5  A    between atoms: C_10  and  C_16
REMARK    6  A    between atoms: C_16  and  O_17
REMARK    7  A    between atoms: C_19  and  N_26
REMARK    8  A    between atoms: C_27  and  C_29
REMARK    9  A    between atoms: C_29  and  N_30
REMARK                            x       y       z     vdW  Elec       q    Type
REMARK                         _______ _______ _______ _____ _____    ______ ____
ROOT
ATOM      1  N   UNL     1       0.085 -13.396  19.246  0.00  0.00    +0.000 NA
ATOM      2  C   UNL     1       1.261 -13.805  19.626  0.00  0.00    +0.000 C 
ENDROOT
BRANCH   2   4
ATOM      3  N   UNL     1       4.191 -11.679  19.064  0.00  0.00    +0.000 N 
ATOM      4  C   UNL     1       2.414 -13.034  19.141  0.00  0.00    +0.000 A 
ATOM      5  C   UNL     1       2.894 -12.958  17.787  0.00  0.00    +0.000 A 
ATOM      6  C   UNL     1       4.000 -12.110  17.775  0.00  0.00    +0.000 A 
ATOM      7  C   UNL     1       3.246 -12.219  19.898  0.00  0.00    +0.000 A 
ATOM      8  C   UNL     1       2.490 -13.541  16.568  0.00  0.00    +0.000 A 
ATOM      9  C   UNL     1       4.720 -11.811  16.613  0.00  0.00    +0.000 A 
ATOM     10  C   UNL     1       4.291 -12.403  15.418  0.00  0.00    +0.000 A 
ATOM     11  C   UNL     1       3.194 -13.257  15.396  0.00  0.00    +0.000 A 
ATOM     12  H   UNL     1       4.927 -11.047  19.344  0.00  0.00    +0.000 HD
BRANCH   7  13
ATOM     13  O   UNL     1       3.222 -11.930  21.195  0.00  0.00    +0.000 OA
ATOM     14  H   UNL     1       3.797 -12.536  21.694  0.00  0.00    +0.000 HD
ENDBRANCH   7  13
BRANCH  10  16
ATOM     15  O   UNL     1       5.620 -11.120  13.929  0.00  0.00    +0.000 OA
ATOM     16  C   UNL     1       4.990 -12.146  14.140  0.00  0.00    +0.000 C 
BRANCH  16  17
ATOM     17  O   UNL     1       4.798 -13.213  13.315  0.00  0.00    +0.000 OA
ATOM     18  C   UNL     1       4.640 -12.968  11.941  0.00  0.00    +0.000 C 
ENDBRANCH  16  17
ENDBRANCH  10  16
ENDBRANCH   2   4
BRANCH   1  22
ATOM     19  C   UNL     1      -3.342 -15.567  20.448  0.00  0.00    +0.000 A 
ATOM     20  C   UNL     1      -2.626 -15.909  19.298  0.00  0.00    +0.000 A 
ATOM     21  C   UNL     1      -2.878 -14.472  21.188  0.00  0.00    +0.000 A 
ATOM     22  C   UNL     1      -1.072 -14.086  19.629  0.00  0.00    +0.000 A 
ATOM     23  C   UNL     1      -1.501 -15.190  18.894  0.00  0.00    +0.000 A 
ATOM     24  C   UNL     1      -1.755 -13.746  20.795  0.00  0.00    +0.000 A 
BRANCH  19  26
ATOM     25  O   UNL     1      -6.076 -14.884  19.784  0.00  0.00    +0.000 OA
ATOM     26  N   UNL     1      -4.513 -16.305  20.866  0.00  0.00    +0.000 N 
ATOM     27  C   UNL     1      -5.800 -15.862  20.472  0.00  0.00    +0.000 C 
ATOM     28  C   UNL     1      -4.245 -17.483  21.697  0.00  0.00    +0.000 C 
BRANCH  27  29
ATOM     29  C   UNL     1      -6.931 -16.652  20.938  0.00  0.00    +0.000 C 
BRANCH  29  30
ATOM     30  N   UNL     1      -8.082 -17.420  21.410  0.00  0.00    +0.000 N 
ATOM     31  N   UNL     1      -9.113 -16.732  24.736  0.00  0.00    +0.000 N 
ATOM     32  C   UNL     1      -7.694 -18.015  22.718  0.00  0.00    +0.000 C 
ATOM     33  C   UNL     1      -9.047 -16.433  21.972  0.00  0.00    +0.000 C 
ATOM     34  C   UNL     1      -8.144 -17.713  24.177  0.00  0.00    +0.000 C 
ATOM     35  C   UNL     1      -9.496 -16.130  23.431  0.00  0.00    +0.000 C 
ATOM     36  C   UNL     1      -8.335 -15.730  25.453  0.00  0.00    +0.000 C 
ENDBRANCH  29  30
ENDBRANCH  27  29
ENDBRANCH  19  26
ENDBRANCH   1  22
BRANCH   2  37
ATOM     37  C   UNL     1       1.510 -14.971  20.492  0.00  0.00    +0.000 A 
ATOM     38  C   UNL     1       1.423 -14.829  21.876  0.00  0.00    +0.000 A 
ATOM     39  C   UNL     1       1.796 -16.203  19.906  0.00  0.00    +0.000 A 
ATOM     40  C   UNL     1       1.634 -15.941  22.685  0.00  0.00    +0.000 A 
ATOM     41  C   UNL     1       2.006 -17.309  20.725  0.00  0.00    +0.000 A 
ATOM     42  C   UNL     1       1.924 -17.178  22.111  0.00  0.00    +0.000 A 
ENDBRANCH   2  37
TORSDOF 9
ENDMDL
MODEL 9
REMARK VINA RESULT:      -6.2     19.043     23.445
REMARK  Name = 135423438_Nintedanib.pdbqt.pdb
REMARK  9 active torsions:
REMARK  status: ('A' for Active; 'I' for Inactive)
REMARK    1  A    between atoms: N_1  and  C_22
REMARK    2  A    between atoms: C_2  and  C_4
REMARK    3  A    between atoms: C_2  and  C_37
REMARK    4  A    between atoms: C_7  and  O_13
REMARK    5  A    between atoms: C_10  and  C_16
REMARK    6  A    between atoms: C_16  and  O_17
REMARK    7  A    between atoms: C_19  and  N_26
REMARK    8  A    between atoms: C_27  and  C_29
REMARK    9  A    between atoms: C_29  and  N_30
REMARK                            x       y       z     vdW  Elec       q    Type
REMARK                         _______ _______ _______ _____ _____    ______ ____
ROOT
ATOM      1  N   UNL     1      -1.485  -4.387   1.613  0.00  0.00    +0.000 NA
ATOM      2  C   UNL     1      -1.620  -3.185   2.093  0.00  0.00    +0.000 C 
ENDROOT
BRANCH   2   4
ATOM      3  N   UNL     1       1.685  -2.070   3.212  0.00  0.00    +0.000 N 
ATOM      4  C   UNL     1      -0.434  -2.591   2.725  0.00  0.00    +0.000 A 
ATOM      5  C   UNL     1      -0.413  -1.689   3.846  0.00  0.00    +0.000 A 
ATOM      6  C   UNL     1       0.919  -1.383   4.121  0.00  0.00    +0.000 A 
ATOM      7  C   UNL     1       0.891  -2.804   2.369  0.00  0.00    +0.000 A 
ATOM      8  C   UNL     1      -1.410  -1.097   4.649  0.00  0.00    +0.000 A 
ATOM      9  C   UNL     1       1.307  -0.525   5.155  0.00  0.00    +0.000 A 
ATOM     10  C   UNL     1       0.293   0.043   5.937  0.00  0.00    +0.000 A 
ATOM     11  C   UNL     1      -1.046  -0.238   5.687  0.00  0.00    +0.000 A 
ATOM     12  H   UNL     1       2.693  -2.034   3.184  0.00  0.00    +0.000 HD
BRANCH   7  13
ATOM     13  O   UNL     1       1.415  -3.565   1.414  0.00  0.00    +0.000 OA
ATOM     14  H   UNL     1       1.761  -4.395   1.786  0.00  0.00    +0.000 HD
ENDBRANCH   7  13
BRANCH  10  16
ATOM     15  O   UNL     1       1.754   1.263   7.354  0.00  0.00    +0.000 OA
ATOM     16  C   UNL     1       0.609   0.963   7.052  0.00  0.00    +0.000 C 
BRANCH  16  17
ATOM     17  O   UNL     1      -0.559   1.372   7.624  0.00  0.00    +0.000 OA
ATOM     18  C   UNL     1      -0.512   2.437   8.538  0.00  0.00    +0.000 C 
ENDBRANCH  16  17
ENDBRANCH  10  16
ENDBRANCH   2   4
BRANCH   1  22
ATOM     19  C   UNL     1      -4.683  -6.478  -0.204  0.00  0.00    +0.000 A 
ATOM     20  C   UNL     1      -3.770  -5.738  -0.959  0.00  0.00    +0.000 A 
ATOM     21  C   UNL     1      -4.496  -6.498   1.185  0.00  0.00    +0.000 A 
ATOM     22  C   UNL     1      -2.568  -5.050   1.023  0.00  0.00    +0.000 A 
ATOM     23  C   UNL     1      -2.721  -5.040  -0.363  0.00  0.00    +0.000 A 
ATOM     24  C   UNL     1      -3.450  -5.805   1.792  0.00  0.00    +0.000 A 
BRANCH  19  26
ATOM     25  O   UNL     1      -4.642  -9.277  -0.941  0.00  0.00    +0.000 OA
ATOM     26  N   UNL     1      -5.778  -7.196  -0.817  0.00  0.00    +0.000 N 
ATOM     27  C   UNL     1      -5.628  -8.570  -1.130  0.00  0.00    +0.000 C 
ATOM     28  C   UNL     1      -6.982  -6.400  -1.073  0.00  0.00    +0.000 C 
BRANCH  27  29
ATOM     29  C   UNL     1      -6.770  -9.224  -1.754  0.00  0.00    +0.000 C 
BRANCH  29  30
ATOM     30  N   UNL     1      -7.928  -9.885  -2.352  0.00  0.00    +0.000 N 
ATOM     31  N   UNL     1     -10.981  -8.084  -2.161  0.00  0.00    +0.000 N 
ATOM     32  C   UNL     1      -9.011  -9.863  -1.330  0.00  0.00    +0.000 C 
ATOM     33  C   UNL     1      -8.558  -8.891  -3.265  0.00  0.00    +0.000 C 
ATOM     34  C   UNL     1     -10.348  -9.071  -1.244  0.00  0.00    +0.000 C 
ATOM     35  C   UNL     1      -9.896  -8.099  -3.179  0.00  0.00    +0.000 C 
ATOM     36  C   UNL     1     -10.919  -6.790  -1.495  0.00  0.00    +0.000 C 
ENDBRANCH  29  30
ENDBRANCH  27  29
ENDBRANCH  19  26
ENDBRANCH   1  22
BRANCH   2  37
ATOM     37  C   UNL     1      -2.863  -2.394   2.051  0.00  0.00    +0.000 A 
ATOM     38  C   UNL     1      -3.100  -1.546   0.970  0.00  0.00    +0.000 A 
ATOM     39  C   UNL     1      -3.794  -2.536   3.078  0.00  0.00    +0.000 A 
ATOM     40  C   UNL     1      -4.288  -0.823   0.925  0.00  0.00    +0.000 A 
ATOM     41  C   UNL     1      -4.978  -1.809   3.023  0.00  0.00    +0.000 A 
ATOM     42  C   UNL     1      -5.225  -0.954   1.949  0.00  0.00    +0.000 A 
ENDBRANCH   2  37
TORSDOF 9
ENDMDL
