MODEL 1
REMARK VINA RESULT:      -7.1      0.000      0.000
REMARK  Name = 14132199_RiccardinD.pdbqt.pdb
REMARK  3 active torsions:
REMARK  status: ('A' for Active; 'I' for Inactive)
REMARK    1  A    between atoms: C_11  and  O_30
REMARK    2  A    between atoms: C_16  and  O_32
REMARK    3  A    between atoms: C_28  and  O_34
REMARK                            x       y       z     vdW  Elec       q    Type
REMARK                         _______ _______ _______ _____ _____    ______ ____
ROOT
ATOM      1  O   UNL     1      -9.745 -16.393   6.173  0.00  0.00    +0.000 OA
ATOM      2  C   UNL     1     -15.610 -13.797   3.485  0.00  0.00    +0.000 C 
ATOM      3  C   UNL     1     -17.000 -13.442   3.465  0.00  0.00    +0.000 A 
ATOM      4  C   UNL     1     -17.862 -13.751   4.549  0.00  0.00    +0.000 A 
ATOM      5  C   UNL     1     -14.145 -14.222   3.676  0.00  0.00    +0.000 C 
ATOM      6  C   UNL     1     -15.034 -16.617   8.480  0.00  0.00    +0.000 C 
ATOM      7  C   UNL     1     -17.386 -14.567   5.688  0.00  0.00    +0.000 A 
ATOM      8  C   UNL     1     -16.079 -16.061   7.686  0.00  0.00    +0.000 A 
ATOM      9  C   UNL     1     -13.634 -17.063   8.910  0.00  0.00    +0.000 C 
ATOM     10  C   UNL     1     -12.849 -14.684   4.054  0.00  0.00    +0.000 A 
ATOM     11  C   UNL     1     -17.253 -14.074   6.995  0.00  0.00    +0.000 A 
ATOM     12  C   UNL     1     -12.231 -17.251   8.789  0.00  0.00    +0.000 A 
ATOM     13  C   UNL     1     -16.952 -15.878   5.447  0.00  0.00    +0.000 A 
ATOM     14  C   UNL     1     -16.587 -14.800   7.985  0.00  0.00    +0.000 A 
ATOM     15  C   UNL     1     -16.297 -16.616   6.428  0.00  0.00    +0.000 A 
ATOM     16  C   UNL     1     -19.180 -13.262   4.475  0.00  0.00    +0.000 A 
ATOM     17  C   UNL     1     -17.465 -12.730   2.357  0.00  0.00    +0.000 A 
ATOM     18  C   UNL     1     -19.644 -12.569   3.357  0.00  0.00    +0.000 A 
ATOM     19  C   UNL     1     -18.788 -12.311   2.293  0.00  0.00    +0.000 A 
ATOM     20  C   UNL     1     -11.667 -16.761   7.616  0.00  0.00    +0.000 A 
ATOM     21  C   UNL     1     -12.485 -16.006   3.792  0.00  0.00    +0.000 A 
ATOM     22  C   UNL     1     -12.047 -13.882   4.866  0.00  0.00    +0.000 A 
ATOM     23  C   UNL     1     -10.309 -16.878   7.342  0.00  0.00    +0.000 A 
ATOM     24  C   UNL     1     -11.428 -17.878   9.730  0.00  0.00    +0.000 A 
ATOM     25  C   UNL     1     -10.635 -15.777   5.313  0.00  0.00    +0.000 A 
ATOM     26  C   UNL     1     -11.367 -16.555   4.414  0.00  0.00    +0.000 A 
ATOM     27  C   UNL     1     -10.926 -14.424   5.492  0.00  0.00    +0.000 A 
ATOM     28  C   UNL     1      -9.505 -17.507   8.286  0.00  0.00    +0.000 A 
ATOM     29  C   UNL     1     -10.057 -18.004   9.472  0.00  0.00    +0.000 A 
ENDROOT
BRANCH  11  30
ATOM     30  O   UNL     1     -17.773 -12.845   7.306  0.00  0.00    +0.000 OA
ATOM     31  H   UNL     1     -18.267 -12.928   8.144  0.00  0.00    +0.000 HD
ENDBRANCH  11  30
BRANCH  16  32
ATOM     32  O   UNL     1     -20.077 -13.419   5.498  0.00  0.00    +0.000 OA
ATOM     33  H   UNL     1     -20.004 -12.624   6.060  0.00  0.00    +0.000 HD
ENDBRANCH  16  32
BRANCH  28  34
ATOM     34  O   UNL     1      -8.162 -17.659   8.088  0.00  0.00    +0.000 OA
ATOM     35  H   UNL     1      -8.020 -18.559   7.743  0.00  0.00    +0.000 HD
ENDBRANCH  28  34
TORSDOF 3
ENDMDL
MODEL 2
REMARK VINA RESULT:      -7.0     21.567     22.918
REMARK  Name = 14132199_RiccardinD.pdbqt.pdb
REMARK  3 active torsions:
REMARK  status: ('A' for Active; 'I' for Inactive)
REMARK    1  A    between atoms: C_11  and  O_30
REMARK    2  A    between atoms: C_16  and  O_32
REMARK    3  A    between atoms: C_28  and  O_34
REMARK                            x       y       z     vdW  Elec       q    Type
REMARK                         _______ _______ _______ _____ _____    ______ ____
ROOT
ATOM      1  O   UNL     1      -9.723  -5.790  22.883  0.00  0.00    +0.000 OA
ATOM      2  C   UNL     1      -9.468   0.553  20.044  0.00  0.00    +0.000 C 
ATOM      3  C   UNL     1      -9.433   1.988  20.037  0.00  0.00    +0.000 A 
ATOM      4  C   UNL     1      -9.516   2.740  21.237  0.00  0.00    +0.000 A 
ATOM      5  C   UNL     1      -9.494  -0.973  20.228  0.00  0.00    +0.000 C 
ATOM      6  C   UNL     1     -10.207  -0.726  25.617  0.00  0.00    +0.000 C 
ATOM      7  C   UNL     1      -9.772   2.073  22.534  0.00  0.00    +0.000 A 
ATOM      8  C   UNL     1     -10.184   0.430  24.784  0.00  0.00    +0.000 A 
ATOM      9  C   UNL     1     -10.182  -2.198  26.037  0.00  0.00    +0.000 C 
ATOM     10  C   UNL     1      -9.523  -2.345  20.615  0.00  0.00    +0.000 A 
ATOM     11  C   UNL     1      -8.843   2.030  23.583  0.00  0.00    +0.000 A 
ATOM     12  C   UNL     1     -10.110  -3.606  25.855  0.00  0.00    +0.000 A 
ATOM     13  C   UNL     1     -10.969   1.362  22.704  0.00  0.00    +0.000 A 
ATOM     14  C   UNL     1      -9.030   1.201  24.691  0.00  0.00    +0.000 A 
ATOM     15  C   UNL     1     -11.172   0.541  23.809  0.00  0.00    +0.000 A 
ATOM     16  C   UNL     1      -9.362   4.134  21.128  0.00  0.00    +0.000 A 
ATOM     17  C   UNL     1      -9.259   2.619  18.803  0.00  0.00    +0.000 A 
ATOM     18  C   UNL     1      -9.209   4.761  19.891  0.00  0.00    +0.000 A 
ATOM     19  C   UNL     1      -9.166   4.003  18.727  0.00  0.00    +0.000 A 
ATOM     20  C   UNL     1      -9.952  -4.025  24.539  0.00  0.00    +0.000 A 
ATOM     21  C   UNL     1     -10.749  -2.991  20.777  0.00  0.00    +0.000 A 
ATOM     22  C   UNL     1      -8.343  -2.963  21.035  0.00  0.00    +0.000 A 
ATOM     23  C   UNL     1      -9.878  -5.370  24.194  0.00  0.00    +0.000 A 
ATOM     24  C   UNL     1     -10.196  -4.545  26.872  0.00  0.00    +0.000 A 
ATOM     25  C   UNL     1      -9.637  -4.769  21.954  0.00  0.00    +0.000 A 
ATOM     26  C   UNL     1     -10.810  -4.215  21.439  0.00  0.00    +0.000 A 
ATOM     27  C   UNL     1      -8.395  -4.187  21.698  0.00  0.00    +0.000 A 
ATOM     28  C   UNL     1      -9.964  -6.310  25.214  0.00  0.00    +0.000 A 
ATOM     29  C   UNL     1     -10.121  -5.905  26.544  0.00  0.00    +0.000 A 
ENDROOT
BRANCH  11  30
ATOM     30  O   UNL     1      -7.715   2.805  23.513  0.00  0.00    +0.000 OA
ATOM     31  H   UNL     1      -7.966   3.673  23.143  0.00  0.00    +0.000 HD
ENDBRANCH  11  30
BRANCH  16  32
ATOM     32  O   UNL     1      -9.334   4.955  22.224  0.00  0.00    +0.000 OA
ATOM     33  H   UNL     1      -8.486   4.790  22.678  0.00  0.00    +0.000 HD
ENDBRANCH  16  32
BRANCH  28  34
ATOM     34  O   UNL     1      -9.899  -7.650  24.954  0.00  0.00    +0.000 OA
ATOM     35  H   UNL     1      -9.684  -7.751  24.009  0.00  0.00    +0.000 HD
ENDBRANCH  28  34
TORSDOF 3
ENDMDL
MODEL 3
REMARK VINA RESULT:      -7.0     18.777     21.508
REMARK  Name = 14132199_RiccardinD.pdbqt.pdb
REMARK  3 active torsions:
REMARK  status: ('A' for Active; 'I' for Inactive)
REMARK    1  A    between atoms: C_11  and  O_30
REMARK    2  A    between atoms: C_16  and  O_32
REMARK    3  A    between atoms: C_28  and  O_34
REMARK                            x       y       z     vdW  Elec       q    Type
REMARK                         _______ _______ _______ _____ _____    ______ ____
ROOT
ATOM      1  O   UNL     1       2.985 -16.337  16.678  0.00  0.00    +0.000 OA
ATOM      2  C   UNL     1       5.185  -9.760  16.153  0.00  0.00    +0.000 C 
ATOM      3  C   UNL     1       5.500  -8.531  15.483  0.00  0.00    +0.000 A 
ATOM      4  C   UNL     1       5.375  -8.398  14.076  0.00  0.00    +0.000 A 
ATOM      5  C   UNL     1       4.781 -11.133  16.716  0.00  0.00    +0.000 C 
ATOM      6  C   UNL     1       3.778 -13.303  11.829  0.00  0.00    +0.000 C 
ATOM      7  C   UNL     1       5.036  -9.565  13.231  0.00  0.00    +0.000 A 
ATOM      8  C   UNL     1       4.301 -11.989  12.001  0.00  0.00    +0.000 A 
ATOM      9  C   UNL     1       3.266 -14.705  12.170  0.00  0.00    +0.000 C 
ATOM     10  C   UNL     1       4.354 -12.457  17.030  0.00  0.00    +0.000 A 
ATOM     11  C   UNL     1       3.839  -9.680  12.509  0.00  0.00    +0.000 A 
ATOM     12  C   UNL     1       2.919 -15.798  13.009  0.00  0.00    +0.000 A 
ATOM     13  C   UNL     1       5.907 -10.663  13.214  0.00  0.00    +0.000 A 
ATOM     14  C   UNL     1       3.458 -10.885  11.915  0.00  0.00    +0.000 A 
ATOM     15  C   UNL     1       5.544 -11.866  12.616  0.00  0.00    +0.000 A 
ATOM     16  C   UNL     1       5.605  -7.120  13.534  0.00  0.00    +0.000 A 
ATOM     17  C   UNL     1       5.886  -7.449  16.277  0.00  0.00    +0.000 A 
ATOM     18  C   UNL     1       6.009  -6.047  14.329  0.00  0.00    +0.000 A 
ATOM     19  C   UNL     1       6.159  -6.214  15.700  0.00  0.00    +0.000 A 
ATOM     20  C   UNL     1       3.092 -15.578  14.371  0.00  0.00    +0.000 A 
ATOM     21  C   UNL     1       5.271 -13.507  16.983  0.00  0.00    +0.000 A 
ATOM     22  C   UNL     1       2.990 -12.721  17.168  0.00  0.00    +0.000 A 
ATOM     23  C   UNL     1       2.810 -16.553  15.321  0.00  0.00    +0.000 A 
ATOM     24  C   UNL     1       2.447 -17.024  12.564  0.00  0.00    +0.000 A 
ATOM     25  C   UNL     1       3.448 -15.076  17.009  0.00  0.00    +0.000 A 
ATOM     26  C   UNL     1       4.821 -14.825  16.984  0.00  0.00    +0.000 A 
ATOM     27  C   UNL     1       2.532 -14.037  17.169  0.00  0.00    +0.000 A 
ATOM     28  C   UNL     1       2.338 -17.782  14.874  0.00  0.00    +0.000 A 
ATOM     29  C   UNL     1       2.156 -18.019  13.507  0.00  0.00    +0.000 A 
ENDROOT
BRANCH  11  30
ATOM     30  O   UNL     1       3.014  -8.592  12.397  0.00  0.00    +0.000 OA
ATOM     31  H   UNL     1       2.283  -8.825  11.793  0.00  0.00    +0.000 HD
ENDBRANCH  11  30
BRANCH  16  32
ATOM     32  O   UNL     1       5.428  -6.847  12.204  0.00  0.00    +0.000 OA
ATOM     33  H   UNL     1       4.466  -6.771  12.058  0.00  0.00    +0.000 HD
ENDBRANCH  16  32
BRANCH  28  34
ATOM     34  O   UNL     1       2.038 -18.788  15.747  0.00  0.00    +0.000 OA
ATOM     35  H   UNL     1       2.800 -19.395  15.762  0.00  0.00    +0.000 HD
ENDBRANCH  28  34
TORSDOF 3
ENDMDL
MODEL 4
REMARK VINA RESULT:      -7.0     13.749     16.439
REMARK  Name = 14132199_RiccardinD.pdbqt.pdb
REMARK  3 active torsions:
REMARK  status: ('A' for Active; 'I' for Inactive)
REMARK    1  A    between atoms: C_11  and  O_30
REMARK    2  A    between atoms: C_16  and  O_32
REMARK    3  A    between atoms: C_28  and  O_34
REMARK                            x       y       z     vdW  Elec       q    Type
REMARK                         _______ _______ _______ _____ _____    ______ ____
ROOT
ATOM      1  O   UNL     1       0.682  -3.860   1.969  0.00  0.00    +0.000 OA
ATOM      2  C   UNL     1      -2.324  -8.881  -1.787  0.00  0.00    +0.000 C 
ATOM      3  C   UNL     1      -3.414  -9.612  -2.369  0.00  0.00    +0.000 A 
ATOM      4  C   UNL     1      -4.765  -9.261  -2.114  0.00  0.00    +0.000 A 
ATOM      5  C   UNL     1      -1.278  -7.981  -1.110  0.00  0.00    +0.000 C 
ATOM      6  C   UNL     1      -4.968  -4.963   1.513  0.00  0.00    +0.000 C 
ATOM      7  C   UNL     1      -5.102  -8.204  -1.135  0.00  0.00    +0.000 A 
ATOM      8  C   UNL     1      -5.314  -6.098   0.724  0.00  0.00    +0.000 A 
ATOM      9  C   UNL     1      -4.114  -3.908   2.220  0.00  0.00    +0.000 C 
ATOM     10  C   UNL     1      -0.480  -7.029  -0.409  0.00  0.00    +0.000 A 
ATOM     11  C   UNL     1      -5.702  -6.984  -1.482  0.00  0.00    +0.000 A 
ATOM     12  C   UNL     1      -2.918  -3.256   2.627  0.00  0.00    +0.000 A 
ATOM     13  C   UNL     1      -4.723  -8.376   0.204  0.00  0.00    +0.000 A 
ATOM     14  C   UNL     1      -5.790  -5.928  -0.573  0.00  0.00    +0.000 A 
ATOM     15  C   UNL     1      -4.818  -7.336   1.124  0.00  0.00    +0.000 A 
ATOM     16  C   UNL     1      -5.752  -9.974  -2.819  0.00  0.00    +0.000 A 
ATOM     17  C   UNL     1      -3.093 -10.655  -3.241  0.00  0.00    +0.000 A 
ATOM     18  C   UNL     1      -5.428 -11.027  -3.674  0.00  0.00    +0.000 A 
ATOM     19  C   UNL     1      -4.098 -11.374  -3.878  0.00  0.00    +0.000 A 
ATOM     20  C   UNL     1      -1.743  -3.815   2.137  0.00  0.00    +0.000 A 
ATOM     21  C   UNL     1      -0.148  -7.258   0.927  0.00  0.00    +0.000 A 
ATOM     22  C   UNL     1      -0.224  -5.788  -0.993  0.00  0.00    +0.000 A 
ATOM     23  C   UNL     1      -0.491  -3.302   2.454  0.00  0.00    +0.000 A 
ATOM     24  C   UNL     1      -2.860  -2.147   3.458  0.00  0.00    +0.000 A 
ATOM     25  C   UNL     1       0.504  -4.953   1.141  0.00  0.00    +0.000 A 
ATOM     26  C   UNL     1       0.358  -6.221   1.707  0.00  0.00    +0.000 A 
ATOM     27  C   UNL     1       0.281  -4.744  -0.220  0.00  0.00    +0.000 A 
ATOM     28  C   UNL     1      -0.433  -2.191   3.287  0.00  0.00    +0.000 A 
ATOM     29  C   UNL     1      -1.606  -1.615   3.787  0.00  0.00    +0.000 A 
ENDROOT
BRANCH  11  30
ATOM     30  O   UNL     1      -6.196  -6.816  -2.749  0.00  0.00    +0.000 OA
ATOM     31  H   UNL     1      -6.459  -7.692  -3.091  0.00  0.00    +0.000 HD
ENDBRANCH  11  30
BRANCH  16  32
ATOM     32  O   UNL     1      -7.084  -9.666  -2.725  0.00  0.00    +0.000 OA
ATOM     33  H   UNL     1      -7.384  -9.440  -3.626  0.00  0.00    +0.000 HD
ENDBRANCH  16  32
BRANCH  28  34
ATOM     34  O   UNL     1       0.761  -1.630   3.642  0.00  0.00    +0.000 OA
ATOM     35  H   UNL     1       0.738  -0.697   3.360  0.00  0.00    +0.000 HD
ENDBRANCH  28  34
TORSDOF 3
ENDMDL
MODEL 5
REMARK VINA RESULT:      -6.8     12.229     14.968
REMARK  Name = 14132199_RiccardinD.pdbqt.pdb
REMARK  3 active torsions:
REMARK  status: ('A' for Active; 'I' for Inactive)
REMARK    1  A    between atoms: C_11  and  O_30
REMARK    2  A    between atoms: C_16  and  O_32
REMARK    3  A    between atoms: C_28  and  O_34
REMARK                            x       y       z     vdW  Elec       q    Type
REMARK                         _______ _______ _______ _____ _____    ______ ____
ROOT
ATOM      1  O   UNL     1     -23.880  -1.949  12.062  0.00  0.00    +0.000 OA
ATOM      2  C   UNL     1     -23.341  -3.210   5.245  0.00  0.00    +0.000 C 
ATOM      3  C   UNL     1     -23.087  -3.995   4.071  0.00  0.00    +0.000 A 
ATOM      4  C   UNL     1     -22.643  -5.340   4.158  0.00  0.00    +0.000 A 
ATOM      5  C   UNL     1     -23.593  -2.518   6.594  0.00  0.00    +0.000 C 
ATOM      6  C   UNL     1     -21.909  -6.762   9.553  0.00  0.00    +0.000 C 
ATOM      7  C   UNL     1     -22.303  -5.943   5.466  0.00  0.00    +0.000 A 
ATOM      8  C   UNL     1     -21.844  -6.734   8.129  0.00  0.00    +0.000 A 
ATOM      9  C   UNL     1     -22.157  -6.302  10.992  0.00  0.00    +0.000 C 
ATOM     10  C   UNL     1     -23.775  -2.071   7.936  0.00  0.00    +0.000 A 
ATOM     11  C   UNL     1     -23.023  -6.998   6.046  0.00  0.00    +0.000 A 
ATOM     12  C   UNL     1     -22.543  -5.409  12.027  0.00  0.00    +0.000 A 
ATOM     13  C   UNL     1     -21.265  -5.380   6.221  0.00  0.00    +0.000 A 
ATOM     14  C   UNL     1     -22.816  -7.381   7.373  0.00  0.00    +0.000 A 
ATOM     15  C   UNL     1     -21.040  -5.761   7.541  0.00  0.00    +0.000 A 
ATOM     16  C   UNL     1     -22.528  -6.052   2.950  0.00  0.00    +0.000 A 
ATOM     17  C   UNL     1     -23.344  -3.401   2.833  0.00  0.00    +0.000 A 
ATOM     18  C   UNL     1     -22.767  -5.449   1.716  0.00  0.00    +0.000 A 
ATOM     19  C   UNL     1     -23.166  -4.119   1.657  0.00  0.00    +0.000 A 
ATOM     20  C   UNL     1     -23.012  -4.172  11.598  0.00  0.00    +0.000 A 
ATOM     21  C   UNL     1     -22.696  -1.529   8.635  0.00  0.00    +0.000 A 
ATOM     22  C   UNL     1     -24.962  -2.375   8.604  0.00  0.00    +0.000 A 
ATOM     23  C   UNL     1     -23.416  -3.183  12.488  0.00  0.00    +0.000 A 
ATOM     24  C   UNL     1     -22.472  -5.685  13.384  0.00  0.00    +0.000 A 
ATOM     25  C   UNL     1     -23.920  -1.787  10.690  0.00  0.00    +0.000 A 
ATOM     26  C   UNL     1     -22.768  -1.374  10.018  0.00  0.00    +0.000 A 
ATOM     27  C   UNL     1     -25.043  -2.224   9.987  0.00  0.00    +0.000 A 
ATOM     28  C   UNL     1     -23.343  -3.462  13.848  0.00  0.00    +0.000 A 
ATOM     29  C   UNL     1     -22.876  -4.702  14.297  0.00  0.00    +0.000 A 
ENDROOT
BRANCH  11  30
ATOM     30  O   UNL     1     -23.965  -7.658   5.301  0.00  0.00    +0.000 OA
ATOM     31  H   UNL     1     -23.566  -7.886   4.440  0.00  0.00    +0.000 HD
ENDBRANCH  11  30
BRANCH  16  32
ATOM     32  O   UNL     1     -22.196  -7.381   2.913  0.00  0.00    +0.000 OA
ATOM     33  H   UNL     1     -22.133  -7.629   1.971  0.00  0.00    +0.000 HD
ENDBRANCH  16  32
BRANCH  28  34
ATOM     34  O   UNL     1     -23.723  -2.541  14.783  0.00  0.00    +0.000 OA
ATOM     35  H   UNL     1     -23.004  -2.477  15.437  0.00  0.00    +0.000 HD
ENDBRANCH  28  34
TORSDOF 3
ENDMDL
MODEL 6
REMARK VINA RESULT:      -6.8     13.792     17.226
REMARK  Name = 14132199_RiccardinD.pdbqt.pdb
REMARK  3 active torsions:
REMARK  status: ('A' for Active; 'I' for Inactive)
REMARK    1  A    between atoms: C_11  and  O_30
REMARK    2  A    between atoms: C_16  and  O_32
REMARK    3  A    between atoms: C_28  and  O_34
REMARK                            x       y       z     vdW  Elec       q    Type
REMARK                         _______ _______ _______ _____ _____    ______ ____
ROOT
ATOM      1  O   UNL     1      -5.387  -9.335  -3.213  0.00  0.00    +0.000 OA
ATOM      2  C   UNL     1      -4.253  -4.458   1.614  0.00  0.00    +0.000 C 
ATOM      3  C   UNL     1      -3.469  -3.570   2.423  0.00  0.00    +0.000 A 
ATOM      4  C   UNL     1      -2.052  -3.556   2.354  0.00  0.00    +0.000 A 
ATOM      5  C   UNL     1      -4.942  -5.448   0.661  0.00  0.00    +0.000 C 
ATOM      6  C   UNL     1      -0.277  -7.511  -1.234  0.00  0.00    +0.000 C 
ATOM      7  C   UNL     1      -1.323  -4.549   1.535  0.00  0.00    +0.000 A 
ATOM      8  C   UNL     1      -0.329  -6.541  -0.191  0.00  0.00    +0.000 A 
ATOM      9  C   UNL     1      -0.745  -8.506  -2.299  0.00  0.00    +0.000 C 
ATOM     10  C   UNL     1      -5.378  -6.413  -0.295  0.00  0.00    +0.000 A 
ATOM     11  C   UNL     1      -0.570  -4.218   0.399  0.00  0.00    +0.000 A 
ATOM     12  C   UNL     1      -1.681  -9.240  -3.077  0.00  0.00    +0.000 A 
ATOM     13  C   UNL     1      -1.458  -5.910   1.844  0.00  0.00    +0.000 A 
ATOM     14  C   UNL     1      -0.094  -5.199  -0.473  0.00  0.00    +0.000 A 
ATOM     15  C   UNL     1      -0.977  -6.898   0.989  0.00  0.00    +0.000 A 
ATOM     16  C   UNL     1      -1.387  -2.573   3.110  0.00  0.00    +0.000 A 
ATOM     17  C   UNL     1      -4.158  -2.678   3.249  0.00  0.00    +0.000 A 
ATOM     18  C   UNL     1      -2.078  -1.697   3.947  0.00  0.00    +0.000 A 
ATOM     19  C   UNL     1      -3.465  -1.756   4.023  0.00  0.00    +0.000 A 
ATOM     20  C   UNL     1      -3.018  -8.963  -2.811  0.00  0.00    +0.000 A 
ATOM     21  C   UNL     1      -5.480  -7.755   0.077  0.00  0.00    +0.000 A 
ATOM     22  C   UNL     1      -5.489  -6.046  -1.636  0.00  0.00    +0.000 A 
ATOM     23  C   UNL     1      -4.054  -9.606  -3.478  0.00  0.00    +0.000 A 
ATOM     24  C   UNL     1      -1.351 -10.183  -4.037  0.00  0.00    +0.000 A 
ATOM     25  C   UNL     1      -5.599  -8.369  -2.246  0.00  0.00    +0.000 A 
ATOM     26  C   UNL     1      -5.603  -8.740  -0.900  0.00  0.00    +0.000 A 
ATOM     27  C   UNL     1      -5.612  -7.025  -2.620  0.00  0.00    +0.000 A 
ATOM     28  C   UNL     1      -3.722 -10.552  -4.441  0.00  0.00    +0.000 A 
ATOM     29  C   UNL     1      -2.381 -10.841  -4.722  0.00  0.00    +0.000 A 
ENDROOT
BRANCH  11  30
ATOM     30  O   UNL     1      -0.311  -2.901   0.126  0.00  0.00    +0.000 OA
ATOM     31  H   UNL     1      -0.894  -2.621  -0.605  0.00  0.00    +0.000 HD
ENDBRANCH  11  30
BRANCH  16  32
ATOM     32  O   UNL     1      -0.029  -2.403   3.055  0.00  0.00    +0.000 OA
ATOM     33  H   UNL     1       0.267  -2.775   2.203  0.00  0.00    +0.000 HD
ENDBRANCH  16  32
BRANCH  28  34
ATOM     34  O   UNL     1      -4.684 -11.225  -5.138  0.00  0.00    +0.000 OA
ATOM     35  H   UNL     1      -5.414 -10.600  -5.302  0.00  0.00    +0.000 HD
ENDBRANCH  28  34
TORSDOF 3
ENDMDL
MODEL 7
REMARK VINA RESULT:      -6.7     22.035     24.023
REMARK  Name = 14132199_RiccardinD.pdbqt.pdb
REMARK  3 active torsions:
REMARK  status: ('A' for Active; 'I' for Inactive)
REMARK    1  A    between atoms: C_11  and  O_30
REMARK    2  A    between atoms: C_16  and  O_32
REMARK    3  A    between atoms: C_28  and  O_34
REMARK                            x       y       z     vdW  Elec       q    Type
REMARK                         _______ _______ _______ _____ _____    ______ ____
ROOT
ATOM      1  O   UNL     1      -8.487   3.852  20.192  0.00  0.00    +0.000 OA
ATOM      2  C   UNL     1     -10.355  -2.417  22.551  0.00  0.00    +0.000 C 
ATOM      3  C   UNL     1     -10.186  -3.665  23.238  0.00  0.00    +0.000 A 
ATOM      4  C   UNL     1      -8.950  -4.022  23.838  0.00  0.00    +0.000 A 
ATOM      5  C   UNL     1     -10.379  -1.035  21.879  0.00  0.00    +0.000 C 
ATOM      6  C   UNL     1      -5.123  -0.017  22.850  0.00  0.00    +0.000 C 
ATOM      7  C   UNL     1      -7.751  -3.172  23.667  0.00  0.00    +0.000 A 
ATOM      8  C   UNL     1      -5.745  -1.257  23.174  0.00  0.00    +0.000 A 
ATOM      9  C   UNL     1      -4.939   1.404  22.309  0.00  0.00    +0.000 C 
ATOM     10  C   UNL     1     -10.193   0.268  21.329  0.00  0.00    +0.000 A 
ATOM     11  C   UNL     1      -7.131  -2.480  24.718  0.00  0.00    +0.000 A 
ATOM     12  C   UNL     1      -5.319   2.617  21.674  0.00  0.00    +0.000 A 
ATOM     13  C   UNL     1      -7.250  -2.962  22.374  0.00  0.00    +0.000 A 
ATOM     14  C   UNL     1      -6.152  -1.514  24.480  0.00  0.00    +0.000 A 
ATOM     15  C   UNL     1      -6.265  -2.010  22.125  0.00  0.00    +0.000 A 
ATOM     16  C   UNL     1      -8.923  -5.218  24.579  0.00  0.00    +0.000 A 
ATOM     17  C   UNL     1     -11.302  -4.498  23.340  0.00  0.00    +0.000 A 
ATOM     18  C   UNL     1     -10.035  -6.056  24.662  0.00  0.00    +0.000 A 
ATOM     19  C   UNL     1     -11.223  -5.700  24.034  0.00  0.00    +0.000 A 
ATOM     20  C   UNL     1      -6.645   2.678  21.259  0.00  0.00    +0.000 A 
ATOM     21  C   UNL     1      -9.679   0.406  20.039  0.00  0.00    +0.000 A 
ATOM     22  C   UNL     1     -10.321   1.385  22.157  0.00  0.00    +0.000 A 
ATOM     23  C   UNL     1      -7.167   3.791  20.610  0.00  0.00    +0.000 A 
ATOM     24  C   UNL     1      -4.475   3.694  21.446  0.00  0.00    +0.000 A 
ATOM     25  C   UNL     1      -9.239   2.729  20.482  0.00  0.00    +0.000 A 
ATOM     26  C   UNL     1      -9.209   1.643  19.605  0.00  0.00    +0.000 A 
ATOM     27  C   UNL     1      -9.853   2.626  21.730  0.00  0.00    +0.000 A 
ATOM     28  C   UNL     1      -6.320   4.870  20.382  0.00  0.00    +0.000 A 
ATOM     29  C   UNL     1      -4.984   4.825  20.796  0.00  0.00    +0.000 A 
ENDROOT
BRANCH  11  30
ATOM     30  O   UNL     1      -7.507  -2.744  26.009  0.00  0.00    +0.000 OA
ATOM     31  H   UNL     1      -6.787  -3.246  26.438  0.00  0.00    +0.000 HD
ENDBRANCH  11  30
BRANCH  16  32
ATOM     32  O   UNL     1      -7.816  -5.621  25.277  0.00  0.00    +0.000 OA
ATOM     33  H   UNL     1      -7.374  -4.811  25.596  0.00  0.00    +0.000 HD
ENDBRANCH  16  32
BRANCH  28  34
ATOM     34  O   UNL     1      -6.762   5.998  19.751  0.00  0.00    +0.000 OA
ATOM     35  H   UNL     1      -6.731   5.826  18.793  0.00  0.00    +0.000 HD
ENDBRANCH  28  34
TORSDOF 3
ENDMDL
MODEL 8
REMARK VINA RESULT:      -6.5      2.809      6.524
REMARK  Name = 14132199_RiccardinD.pdbqt.pdb
REMARK  3 active torsions:
REMARK  status: ('A' for Active; 'I' for Inactive)
REMARK    1  A    between atoms: C_11  and  O_30
REMARK    2  A    between atoms: C_16  and  O_32
REMARK    3  A    between atoms: C_28  and  O_34
REMARK                            x       y       z     vdW  Elec       q    Type
REMARK                         _______ _______ _______ _____ _____    ______ ____
ROOT
ATOM      1  O   UNL     1     -17.956 -14.471   7.663  0.00  0.00    +0.000 OA
ATOM      2  C   UNL     1     -14.256 -12.361   2.166  0.00  0.00    +0.000 C 
ATOM      3  C   UNL     1     -13.156 -12.364   1.245  0.00  0.00    +0.000 A 
ATOM      4  C   UNL     1     -12.050 -13.237   1.410  0.00  0.00    +0.000 A 
ATOM      5  C   UNL     1     -15.363 -12.504   3.224  0.00  0.00    +0.000 C 
ATOM      6  C   UNL     1     -12.679 -16.243   6.126  0.00  0.00    +0.000 C 
ATOM      7  C   UNL     1     -11.931 -14.091   2.613  0.00  0.00    +0.000 A 
ATOM      8  C   UNL     1     -12.119 -15.598   4.985  0.00  0.00    +0.000 A 
ATOM      9  C   UNL     1     -13.673 -16.600   7.234  0.00  0.00    +0.000 C 
ATOM     10  C   UNL     1     -16.267 -12.800   4.287  0.00  0.00    +0.000 A 
ATOM     11  C   UNL     1     -11.993 -15.492   2.582  0.00  0.00    +0.000 A 
ATOM     12  C   UNL     1     -14.879 -16.518   7.981  0.00  0.00    +0.000 A 
ATOM     13  C   UNL     1     -11.844 -13.478   3.871  0.00  0.00    +0.000 A 
ATOM     14  C   UNL     1     -12.109 -16.244   3.753  0.00  0.00    +0.000 A 
ATOM     15  C   UNL     1     -11.946 -14.217   5.046  0.00  0.00    +0.000 A 
ATOM     16  C   UNL     1     -11.079 -13.235   0.392  0.00  0.00    +0.000 A 
ATOM     17  C   UNL     1     -13.239 -11.508   0.144  0.00  0.00    +0.000 A 
ATOM     18  C   UNL     1     -11.156 -12.364  -0.695  0.00  0.00    +0.000 A 
ATOM     19  C   UNL     1     -12.233 -11.493  -0.814  0.00  0.00    +0.000 A 
ATOM     20  C   UNL     1     -15.808 -15.598   7.506  0.00  0.00    +0.000 A 
ATOM     21  C   UNL     1     -16.116 -12.161   5.518  0.00  0.00    +0.000 A 
ATOM     22  C   UNL     1     -17.149 -13.874   4.156  0.00  0.00    +0.000 A 
ATOM     23  C   UNL     1     -17.031 -15.390   8.133  0.00  0.00    +0.000 A 
ATOM     24  C   UNL     1     -15.166 -17.264   9.114  0.00  0.00    +0.000 A 
ATOM     25  C   UNL     1     -17.571 -13.793   6.522  0.00  0.00    +0.000 A 
ATOM     26  C   UNL     1     -16.779 -12.649   6.642  0.00  0.00    +0.000 A 
ATOM     27  C   UNL     1     -17.815 -14.369   5.275  0.00  0.00    +0.000 A 
ATOM     28  C   UNL     1     -17.317 -16.138   9.269  0.00  0.00    +0.000 A 
ATOM     29  C   UNL     1     -16.395 -17.069   9.759  0.00  0.00    +0.000 A 
ENDROOT
BRANCH  11  30
ATOM     30  O   UNL     1     -11.958 -16.139   1.375  0.00  0.00    +0.000 OA
ATOM     31  H   UNL     1     -11.073 -16.539   1.271  0.00  0.00    +0.000 HD
ENDBRANCH  11  30
BRANCH  16  32
ATOM     32  O   UNL     1     -10.014 -14.097   0.395  0.00  0.00    +0.000 OA
ATOM     33  H   UNL     1      -9.309 -13.674  -0.131  0.00  0.00    +0.000 HD
ENDBRANCH  16  32
BRANCH  28  34
ATOM     34  O   UNL     1     -18.499 -15.989   9.939  0.00  0.00    +0.000 OA
ATOM     35  H   UNL     1     -18.590 -15.045  10.160  0.00  0.00    +0.000 HD
ENDBRANCH  28  34
TORSDOF 3
ENDMDL
MODEL 9
REMARK VINA RESULT:      -6.4     12.655     15.250
REMARK  Name = 14132199_RiccardinD.pdbqt.pdb
REMARK  3 active torsions:
REMARK  status: ('A' for Active; 'I' for Inactive)
REMARK    1  A    between atoms: C_11  and  O_30
REMARK    2  A    between atoms: C_16  and  O_32
REMARK    3  A    between atoms: C_28  and  O_34
REMARK                            x       y       z     vdW  Elec       q    Type
REMARK                         _______ _______ _______ _____ _____    ______ ____
ROOT
ATOM      1  O   UNL     1     -22.233  -5.460  12.564  0.00  0.00    +0.000 OA
ATOM      2  C   UNL     1     -22.265  -5.864   5.621  0.00  0.00    +0.000 C 
ATOM      3  C   UNL     1     -22.562  -5.440   4.283  0.00  0.00    +0.000 A 
ATOM      4  C   UNL     1     -23.320  -4.268   4.025  0.00  0.00    +0.000 A 
ATOM      5  C   UNL     1     -22.013  -6.163   7.108  0.00  0.00    +0.000 C 
ATOM      6  C   UNL     1     -24.990  -1.968   8.882  0.00  0.00    +0.000 C 
ATOM      7  C   UNL     1     -23.942  -3.509   5.132  0.00  0.00    +0.000 A 
ATOM      8  C   UNL     1     -24.882  -2.314   7.503  0.00  0.00    +0.000 A 
ATOM      9  C   UNL     1     -24.807  -2.031  10.400  0.00  0.00    +0.000 C 
ATOM     10  C   UNL     1     -21.886  -6.251   8.526  0.00  0.00    +0.000 A 
ATOM     11  C   UNL     1     -23.566  -2.205   5.489  0.00  0.00    +0.000 A 
ATOM     12  C   UNL     1     -24.342  -2.552  11.638  0.00  0.00    +0.000 A 
ATOM     13  C   UNL     1     -24.897  -4.147   5.937  0.00  0.00    +0.000 A 
ATOM     14  C   UNL     1     -24.010  -1.615   6.674  0.00  0.00    +0.000 A 
ATOM     15  C   UNL     1     -25.357  -3.564   7.115  0.00  0.00    +0.000 A 
ATOM     16  C   UNL     1     -23.461  -3.884   2.679  0.00  0.00    +0.000 A 
ATOM     17  C   UNL     1     -22.030  -6.197   3.237  0.00  0.00    +0.000 A 
ATOM     18  C   UNL     1     -22.944  -4.654   1.637  0.00  0.00    +0.000 A 
ATOM     19  C   UNL     1     -22.236  -5.817   1.916  0.00  0.00    +0.000 A 
ATOM     20  C   UNL     1     -23.546  -3.688  11.539  0.00  0.00    +0.000 A 
ATOM     21  C   UNL     1     -22.879  -6.891   9.269  0.00  0.00    +0.000 A 
ATOM     22  C   UNL     1     -20.891  -5.515   9.171  0.00  0.00    +0.000 A 
ATOM     23  C   UNL     1     -23.023  -4.326  12.659  0.00  0.00    +0.000 A 
ATOM     24  C   UNL     1     -24.633  -2.021  12.885  0.00  0.00    +0.000 A 
ATOM     25  C   UNL     1     -21.997  -5.894  11.272  0.00  0.00    +0.000 A 
ATOM     26  C   UNL     1     -22.932  -6.724  10.650  0.00  0.00    +0.000 A 
ATOM     27  C   UNL     1     -20.936  -5.343  10.553  0.00  0.00    +0.000 A 
ATOM     28  C   UNL     1     -23.316  -3.792  13.909  0.00  0.00    +0.000 A 
ATOM     29  C   UNL     1     -24.114  -2.649  14.025  0.00  0.00    +0.000 A 
ENDROOT
BRANCH  11  30
ATOM     30  O   UNL     1     -22.729  -1.499   4.666  0.00  0.00    +0.000 OA
ATOM     31  H   UNL     1     -23.269  -1.089   3.963  0.00  0.00    +0.000 HD
ENDBRANCH  11  30
BRANCH  16  32
ATOM     32  O   UNL     1     -24.093  -2.726   2.311  0.00  0.00    +0.000 OA
ATOM     33  H   UNL     1     -23.793  -2.517   1.406  0.00  0.00    +0.000 HD
ENDBRANCH  16  32
BRANCH  28  34
ATOM     34  O   UNL     1     -22.839  -4.363  15.055  0.00  0.00    +0.000 OA
ATOM     35  H   UNL     1     -22.569  -5.273  14.835  0.00  0.00    +0.000 HD
ENDBRANCH  28  34
TORSDOF 3
ENDMDL
