MODEL 1
REMARK VINA RESULT:      -4.3      0.000      0.000
REMARK  Name = 146026348_FluorouracilMononitrate.pdbqt.pdb
REMARK  2 active torsions:
REMARK  status: ('A' for Active; 'I' for Inactive)
REMARK    1  A    between atoms: N_4  and  O_10
REMARK    2  A    between atoms: O_10  and  N_13
REMARK                            x       y       z     vdW  Elec       q    Type
REMARK                         _______ _______ _______ _____ _____    ______ ____
ROOT
ATOM      1  F   UNL     1      -7.791  -4.959  23.789  0.00  0.00    +0.000 F 
ATOM      2  O   UNL     1     -10.304  -5.084  22.575  0.00  0.00    +0.000 OA
ATOM      3  O   UNL     1      -9.121  -1.225  20.212  0.00  0.00    +0.000 OA
ATOM      4  N   UNL     1      -9.819  -3.066  21.492  0.00  0.00    +0.000 N 
ATOM      5  N   UNL     1      -8.261  -3.989  22.990  0.00  0.00    +0.000 N 
ATOM      6  C   UNL     1      -9.542  -4.140  22.384  0.00  0.00    +0.000 A 
ATOM      7  C   UNL     1      -8.947  -2.054  21.090  0.00  0.00    +0.000 A 
ATOM      8  C   UNL     1      -7.712  -2.127  21.837  0.00  0.00    +0.000 A 
ATOM      9  C   UNL     1      -7.454  -2.969  22.641  0.00  0.00    +0.000 A 
ENDROOT
BRANCH   4  10
ATOM     10  O   UNL     1     -11.023  -3.170  20.772  0.00  0.00    +0.000 OA
BRANCH  10  13
ATOM     11  O   UNL     1      -9.998  -4.549  19.321  0.00  0.00    +0.000 OA
ATOM     12  O   UNL     1     -11.667  -3.219  18.652  0.00  0.00    +0.000 OA
ATOM     13  N   UNL     1     -10.877  -3.695  19.464  0.00  0.00    +0.000 N 
ENDBRANCH  10  13
ENDBRANCH   4  10
TORSDOF 2
ENDMDL
MODEL 2
REMARK VINA RESULT:      -4.2      2.855      3.637
REMARK  Name = 146026348_FluorouracilMononitrate.pdbqt.pdb
REMARK  2 active torsions:
REMARK  status: ('A' for Active; 'I' for Inactive)
REMARK    1  A    between atoms: N_4  and  O_10
REMARK    2  A    between atoms: O_10  and  N_13
REMARK                            x       y       z     vdW  Elec       q    Type
REMARK                         _______ _______ _______ _____ _____    ______ ____
ROOT
ATOM      1  F   UNL     1     -13.100  -4.408  25.052  0.00  0.00    +0.000 F 
ATOM      2  O   UNL     1     -13.177  -2.809  22.761  0.00  0.00    +0.000 OA
ATOM      3  O   UNL     1      -9.825  -5.550  20.992  0.00  0.00    +0.000 OA
ATOM      4  N   UNL     1     -11.391  -4.053  21.901  0.00  0.00    +0.000 N 
ATOM      5  N   UNL     1     -12.220  -4.535  24.047  0.00  0.00    +0.000 N 
ATOM      6  C   UNL     1     -12.343  -3.700  22.898  0.00  0.00    +0.000 A 
ATOM      7  C   UNL     1     -10.530  -5.152  21.905  0.00  0.00    +0.000 A 
ATOM      8  C   UNL     1     -10.602  -5.845  23.171  0.00  0.00    +0.000 A 
ATOM      9  C   UNL     1     -11.338  -5.552  24.064  0.00  0.00    +0.000 A 
ENDROOT
BRANCH   4  10
ATOM     10  O   UNL     1     -11.491  -3.348  20.688  0.00  0.00    +0.000 OA
BRANCH  10  13
ATOM     11  O   UNL     1     -10.096  -1.736  21.406  0.00  0.00    +0.000 OA
ATOM     12  O   UNL     1      -9.977  -2.503  19.308  0.00  0.00    +0.000 OA
ATOM     13  N   UNL     1     -10.427  -2.443  20.450  0.00  0.00    +0.000 N 
ENDBRANCH  10  13
ENDBRANCH   4  10
TORSDOF 2
ENDMDL
MODEL 3
REMARK VINA RESULT:      -4.0      1.954      3.083
REMARK  Name = 146026348_FluorouracilMononitrate.pdbqt.pdb
REMARK  2 active torsions:
REMARK  status: ('A' for Active; 'I' for Inactive)
REMARK    1  A    between atoms: N_4  and  O_10
REMARK    2  A    between atoms: O_10  and  N_13
REMARK                            x       y       z     vdW  Elec       q    Type
REMARK                         _______ _______ _______ _____ _____    ______ ____
ROOT
ATOM      1  F   UNL     1      -9.064  -5.621  24.917  0.00  0.00    +0.000 F 
ATOM      2  O   UNL     1      -7.521  -4.059  23.188  0.00  0.00    +0.000 OA
ATOM      3  O   UNL     1     -11.287  -3.770  20.430  0.00  0.00    +0.000 OA
ATOM      4  N   UNL     1      -9.328  -4.021  21.701  0.00  0.00    +0.000 N 
ATOM      5  N   UNL     1      -9.495  -5.234  23.707  0.00  0.00    +0.000 N 
ATOM      6  C   UNL     1      -8.660  -4.413  22.894  0.00  0.00    +0.000 A 
ATOM      7  C   UNL     1     -10.668  -4.235  21.372  0.00  0.00    +0.000 A 
ATOM      8  C   UNL     1     -11.300  -5.080  22.359  0.00  0.00    +0.000 A 
ATOM      9  C   UNL     1     -10.767  -5.488  23.345  0.00  0.00    +0.000 A 
ENDROOT
BRANCH   4  10
ATOM     10  O   UNL     1      -8.621  -3.131  20.873  0.00  0.00    +0.000 OA
BRANCH  10  13
ATOM     11  O   UNL     1      -8.864  -1.313  22.174  0.00  0.00    +0.000 OA
ATOM     12  O   UNL     1      -9.362  -1.236  19.995  0.00  0.00    +0.000 OA
ATOM     13  N   UNL     1      -8.984  -1.771  21.034  0.00  0.00    +0.000 N 
ENDBRANCH  10  13
ENDBRANCH   4  10
TORSDOF 2
ENDMDL
MODEL 4
REMARK VINA RESULT:      -4.0      3.101      3.889
REMARK  Name = 146026348_FluorouracilMononitrate.pdbqt.pdb
REMARK  2 active torsions:
REMARK  status: ('A' for Active; 'I' for Inactive)
REMARK    1  A    between atoms: N_4  and  O_10
REMARK    2  A    between atoms: O_10  and  N_13
REMARK                            x       y       z     vdW  Elec       q    Type
REMARK                         _______ _______ _______ _____ _____    ______ ____
ROOT
ATOM      1  F   UNL     1     -12.260  -7.069  25.167  0.00  0.00    +0.000 F 
ATOM      2  O   UNL     1      -9.784  -6.216  24.191  0.00  0.00    +0.000 OA
ATOM      3  O   UNL     1     -12.064  -2.748  22.036  0.00  0.00    +0.000 OA
ATOM      4  N   UNL     1     -10.899  -4.563  22.966  0.00  0.00    +0.000 N 
ATOM      5  N   UNL     1     -12.134  -6.083  24.264  0.00  0.00    +0.000 N 
ATOM      6  C   UNL     1     -10.833  -5.686  23.838  0.00  0.00    +0.000 A 
ATOM      7  C   UNL     1     -12.025  -3.800  22.652  0.00  0.00    +0.000 A 
ATOM      8  C   UNL     1     -13.212  -4.399  23.215  0.00  0.00    +0.000 A 
ATOM      9  C   UNL     1     -13.221  -5.376  23.900  0.00  0.00    +0.000 A 
ENDROOT
BRANCH   4  10
ATOM     10  O   UNL     1      -9.659  -4.035  22.562  0.00  0.00    +0.000 OA
BRANCH  10  13
ATOM     11  O   UNL     1      -9.598  -5.382  20.762  0.00  0.00    +0.000 OA
ATOM     12  O   UNL     1      -8.877  -3.269  20.635  0.00  0.00    +0.000 OA
ATOM     13  N   UNL     1      -9.349  -4.254  21.197  0.00  0.00    +0.000 N 
ENDBRANCH  10  13
ENDBRANCH   4  10
TORSDOF 2
ENDMDL
MODEL 5
REMARK VINA RESULT:      -3.9      2.485      3.211
REMARK  Name = 146026348_FluorouracilMononitrate.pdbqt.pdb
REMARK  2 active torsions:
REMARK  status: ('A' for Active; 'I' for Inactive)
REMARK    1  A    between atoms: N_4  and  O_10
REMARK    2  A    between atoms: O_10  and  N_13
REMARK                            x       y       z     vdW  Elec       q    Type
REMARK                         _______ _______ _______ _____ _____    ______ ____
ROOT
ATOM      1  F   UNL     1      -8.291  -3.899  25.722  0.00  0.00    +0.000 F 
ATOM      2  O   UNL     1     -10.925  -4.763  25.374  0.00  0.00    +0.000 OA
ATOM      3  O   UNL     1      -9.980  -5.130  20.808  0.00  0.00    +0.000 OA
ATOM      4  N   UNL     1     -10.547  -4.808  23.065  0.00  0.00    +0.000 N 
ATOM      5  N   UNL     1      -8.839  -4.093  24.512  0.00  0.00    +0.000 N 
ATOM      6  C   UNL     1     -10.181  -4.563  24.418  0.00  0.00    +0.000 A 
ATOM      7  C   UNL     1      -9.715  -4.771  21.944  0.00  0.00    +0.000 A 
ATOM      8  C   UNL     1      -8.406  -4.279  22.303  0.00  0.00    +0.000 A 
ATOM      9  C   UNL     1      -8.067  -3.999  23.413  0.00  0.00    +0.000 A 
ENDROOT
BRANCH   4  10
ATOM     10  O   UNL     1     -11.824  -5.364  22.872  0.00  0.00    +0.000 OA
BRANCH  10  13
ATOM     11  O   UNL     1     -12.629  -3.308  22.443  0.00  0.00    +0.000 OA
ATOM     12  O   UNL     1     -13.917  -4.864  23.402  0.00  0.00    +0.000 OA
ATOM     13  N   UNL     1     -12.882  -4.422  22.909  0.00  0.00    +0.000 N 
ENDBRANCH  10  13
ENDBRANCH   4  10
TORSDOF 2
ENDMDL
MODEL 6
REMARK VINA RESULT:      -3.8     16.179     16.840
REMARK  Name = 146026348_FluorouracilMononitrate.pdbqt.pdb
REMARK  2 active torsions:
REMARK  status: ('A' for Active; 'I' for Inactive)
REMARK    1  A    between atoms: N_4  and  O_10
REMARK    2  A    between atoms: O_10  and  N_13
REMARK                            x       y       z     vdW  Elec       q    Type
REMARK                         _______ _______ _______ _____ _____    ______ ____
ROOT
ATOM      1  F   UNL     1     -23.730  -4.971  13.916  0.00  0.00    +0.000 F 
ATOM      2  O   UNL     1     -22.005  -6.724  12.589  0.00  0.00    +0.000 OA
ATOM      3  O   UNL     1     -21.674  -3.507   9.210  0.00  0.00    +0.000 OA
ATOM      4  N   UNL     1     -21.936  -5.215  10.802  0.00  0.00    +0.000 N 
ATOM      5  N   UNL     1     -23.282  -4.747  12.671  0.00  0.00    +0.000 N 
ATOM      6  C   UNL     1     -22.380  -5.675  12.073  0.00  0.00    +0.000 A 
ATOM      7  C   UNL     1     -22.176  -3.968  10.222  0.00  0.00    +0.000 A 
ATOM      8  C   UNL     1     -23.105  -3.209  11.027  0.00  0.00    +0.000 A 
ATOM      9  C   UNL     1     -23.557  -3.574  12.070  0.00  0.00    +0.000 A 
ENDROOT
BRANCH   4  10
ATOM     10  O   UNL     1     -20.970  -6.018  10.169  0.00  0.00    +0.000 OA
BRANCH  10  13
ATOM     11  O   UNL     1     -22.139  -7.836   9.549  0.00  0.00    +0.000 OA
ATOM     12  O   UNL     1     -21.211  -6.495   8.018  0.00  0.00    +0.000 OA
ATOM     13  N   UNL     1     -21.487  -6.865   9.158  0.00  0.00    +0.000 N 
ENDBRANCH  10  13
ENDBRANCH   4  10
TORSDOF 2
ENDMDL
MODEL 7
REMARK VINA RESULT:      -3.7     19.340     20.116
REMARK  Name = 146026348_FluorouracilMononitrate.pdbqt.pdb
REMARK  2 active torsions:
REMARK  status: ('A' for Active; 'I' for Inactive)
REMARK    1  A    between atoms: N_4  and  O_10
REMARK    2  A    between atoms: O_10  and  N_13
REMARK                            x       y       z     vdW  Elec       q    Type
REMARK                         _______ _______ _______ _____ _____    ______ ____
ROOT
ATOM      1  F   UNL     1       2.583 -13.738  13.948  0.00  0.00    +0.000 F 
ATOM      2  O   UNL     1       3.583 -12.319  11.758  0.00  0.00    +0.000 OA
ATOM      3  O   UNL     1       7.722 -14.320  12.620  0.00  0.00    +0.000 OA
ATOM      4  N   UNL     1       5.708 -13.170  12.248  0.00  0.00    +0.000 N 
ATOM      5  N   UNL     1       3.886 -13.714  13.631  0.00  0.00    +0.000 N 
ATOM      6  C   UNL     1       4.315 -12.990  12.480  0.00  0.00    +0.000 A 
ATOM      7  C   UNL     1       6.570 -14.044  12.912  0.00  0.00    +0.000 A 
ATOM      8  C   UNL     1       5.895 -14.669  14.027  0.00  0.00    +0.000 A 
ATOM      9  C   UNL     1       4.746 -14.504  14.303  0.00  0.00    +0.000 A 
ENDROOT
BRANCH   4  10
ATOM     10  O   UNL     1       6.212 -12.570  11.080  0.00  0.00    +0.000 OA
BRANCH  10  13
ATOM     11  O   UNL     1       8.055 -11.334  11.441  0.00  0.00    +0.000 OA
ATOM     12  O   UNL     1       6.044 -10.370  11.284  0.00  0.00    +0.000 OA
ATOM     13  N   UNL     1       6.831 -11.314  11.290  0.00  0.00    +0.000 N 
ENDBRANCH  10  13
ENDBRANCH   4  10
TORSDOF 2
ENDMDL
MODEL 8
REMARK VINA RESULT:      -3.7     12.859     13.757
REMARK  Name = 146026348_FluorouracilMononitrate.pdbqt.pdb
REMARK  2 active torsions:
REMARK  status: ('A' for Active; 'I' for Inactive)
REMARK    1  A    between atoms: N_4  and  O_10
REMARK    2  A    between atoms: O_10  and  N_13
REMARK                            x       y       z     vdW  Elec       q    Type
REMARK                         _______ _______ _______ _____ _____    ______ ____
ROOT
ATOM      1  F   UNL     1      -4.031 -18.272  23.281  0.00  0.00    +0.000 F 
ATOM      2  O   UNL     1      -2.732 -15.839  22.833  0.00  0.00    +0.000 OA
ATOM      3  O   UNL     1      -6.116 -14.839  19.763  0.00  0.00    +0.000 OA
ATOM      4  N   UNL     1      -4.312 -15.365  21.172  0.00  0.00    +0.000 N 
ATOM      5  N   UNL     1      -4.403 -17.416  22.317  0.00  0.00    +0.000 N 
ATOM      6  C   UNL     1      -3.708 -16.180  22.170  0.00  0.00    +0.000 A 
ATOM      7  C   UNL     1      -5.512 -15.601  20.500  0.00  0.00    +0.000 A 
ATOM      8  C   UNL     1      -6.026 -16.910  20.830  0.00  0.00    +0.000 A 
ATOM      9  C   UNL     1      -5.525 -17.659  21.613  0.00  0.00    +0.000 A 
ENDROOT
BRANCH   4  10
ATOM     10  O   UNL     1      -3.755 -14.083  21.016  0.00  0.00    +0.000 OA
BRANCH  10  13
ATOM     11  O   UNL     1      -1.560 -13.710  20.701  0.00  0.00    +0.000 OA
ATOM     12  O   UNL     1      -2.867 -14.350  19.003  0.00  0.00    +0.000 OA
ATOM     13  N   UNL     1      -2.622 -14.040  20.166  0.00  0.00    +0.000 N 
ENDBRANCH  10  13
ENDBRANCH   4  10
TORSDOF 2
ENDMDL
MODEL 9
REMARK VINA RESULT:      -3.4     12.456     13.726
REMARK  Name = 146026348_FluorouracilMononitrate.pdbqt.pdb
REMARK  2 active torsions:
REMARK  status: ('A' for Active; 'I' for Inactive)
REMARK    1  A    between atoms: N_4  and  O_10
REMARK    2  A    between atoms: O_10  and  N_13
REMARK                            x       y       z     vdW  Elec       q    Type
REMARK                         _______ _______ _______ _____ _____    ______ ____
ROOT
ATOM      1  F   UNL     1     -18.586   8.142  14.613  0.00  0.00    +0.000 F 
ATOM      2  O   UNL     1     -17.947   5.901  16.154  0.00  0.00    +0.000 OA
ATOM      3  O   UNL     1     -14.015   5.557  13.644  0.00  0.00    +0.000 OA
ATOM      4  N   UNL     1     -16.048   5.594  14.821  0.00  0.00    +0.000 N 
ATOM      5  N   UNL     1     -17.533   7.353  14.347  0.00  0.00    +0.000 N 
ATOM      6  C   UNL     1     -17.257   6.244  15.198  0.00  0.00    +0.000 A 
ATOM      7  C   UNL     1     -15.123   6.017  13.865  0.00  0.00    +0.000 A 
ATOM      8  C   UNL     1     -15.628   7.167  13.149  0.00  0.00    +0.000 A 
ATOM      9  C   UNL     1     -16.663   7.712  13.384  0.00  0.00    +0.000 A 
ENDROOT
BRANCH   4  10
ATOM     10  O   UNL     1     -15.637   4.541  15.657  0.00  0.00    +0.000 OA
BRANCH  10  13
ATOM     11  O   UNL     1     -14.240   5.819  16.871  0.00  0.00    +0.000 OA
ATOM     12  O   UNL     1     -15.648   4.396  17.869  0.00  0.00    +0.000 OA
ATOM     13  N   UNL     1     -15.123   4.958  16.910  0.00  0.00    +0.000 N 
ENDBRANCH  10  13
ENDBRANCH   4  10
TORSDOF 2
ENDMDL
