MODEL 1
REMARK VINA RESULT:      -7.3      0.000      0.000
REMARK  Name = 179268_Nortopsentin.pdbqt.pdb
REMARK  2 active torsions:
REMARK  status: ('A' for Active; 'I' for Inactive)
REMARK    1  A    between atoms: C_3  and  C_9
REMARK    2  A    between atoms: C_4  and  C_20
REMARK                            x       y       z     vdW  Elec       q    Type
REMARK                         _______ _______ _______ _____ _____    ______ ____
ROOT
ATOM      1  N   UNL     1     -10.536  -5.538  23.217  0.00  0.00    +0.000 N 
ATOM      2  N   UNL     1      -8.951  -4.001  23.358  0.00  0.00    +0.000 NA
ATOM      3  C   UNL     1     -10.060  -5.611  24.497  0.00  0.00    +0.000 A 
ATOM      4  C   UNL     1      -9.841  -4.554  22.560  0.00  0.00    +0.000 A 
ATOM      5  C   UNL     1      -9.077  -4.649  24.563  0.00  0.00    +0.000 A 
ATOM      6  H   UNL     1     -11.268  -6.101  22.813  0.00  0.00    +0.000 HD
ENDROOT
BRANCH   3   9
ATOM      7 BR   UNL     1      -8.200  -9.956  30.002  0.00  0.00    +0.000 Br
ATOM      8  N   UNL     1     -11.885  -7.701  26.851  0.00  0.00    +0.000 N 
ATOM      9  C   UNL     1     -10.510  -6.526  25.565  0.00  0.00    +0.000 A 
ATOM     10  C   UNL     1      -9.725  -7.236  26.517  0.00  0.00    +0.000 A 
ATOM     11  C   UNL     1     -10.616  -7.966  27.311  0.00  0.00    +0.000 A 
ATOM     12  C   UNL     1     -11.830  -6.832  25.798  0.00  0.00    +0.000 A 
ATOM     13  C   UNL     1      -8.346  -7.338  26.790  0.00  0.00    +0.000 A 
ATOM     14  C   UNL     1     -10.200  -8.791  28.363  0.00  0.00    +0.000 A 
ATOM     15  C   UNL     1      -7.910  -8.154  27.834  0.00  0.00    +0.000 A 
ATOM     16  C   UNL     1      -8.827  -8.863  28.600  0.00  0.00    +0.000 A 
ATOM     17  H   UNL     1     -12.735  -8.090  27.235  0.00  0.00    +0.000 HD
ENDBRANCH   3   9
BRANCH   4  20
ATOM     18 BR   UNL     1      -8.188  -5.801  15.616  0.00  0.00    +0.000 Br
ATOM     19  N   UNL     1     -10.867  -3.099  19.373  0.00  0.00    +0.000 N 
ATOM     20  C   UNL     1     -10.066  -4.169  21.144  0.00  0.00    +0.000 A 
ATOM     21  C   UNL     1      -9.474  -4.735  19.981  0.00  0.00    +0.000 A 
ATOM     22  C   UNL     1      -9.994  -4.044  18.884  0.00  0.00    +0.000 A 
ATOM     23  C   UNL     1     -10.917  -3.166  20.739  0.00  0.00    +0.000 A 
ATOM     24  C   UNL     1      -8.545  -5.769  19.749  0.00  0.00    +0.000 A 
ATOM     25  C   UNL     1      -9.636  -4.332  17.564  0.00  0.00    +0.000 A 
ATOM     26  C   UNL     1      -8.173  -6.072  18.438  0.00  0.00    +0.000 A 
ATOM     27  C   UNL     1      -8.714  -5.362  17.374  0.00  0.00    +0.000 A 
ATOM     28  H   UNL     1     -11.393  -2.450  18.803  0.00  0.00    +0.000 HD
ENDBRANCH   4  20
TORSDOF 2
ENDMDL
MODEL 2
REMARK VINA RESULT:      -7.0      1.324      8.575
REMARK  Name = 179268_Nortopsentin.pdbqt.pdb
REMARK  2 active torsions:
REMARK  status: ('A' for Active; 'I' for Inactive)
REMARK    1  A    between atoms: C_3  and  C_9
REMARK    2  A    between atoms: C_4  and  C_20
REMARK                            x       y       z     vdW  Elec       q    Type
REMARK                         _______ _______ _______ _____ _____    ______ ____
ROOT
ATOM      1  N   UNL     1      -9.670  -5.379  23.563  0.00  0.00    +0.000 N 
ATOM      2  N   UNL     1     -11.548  -5.917  24.601  0.00  0.00    +0.000 NA
ATOM      3  C   UNL     1     -10.679  -5.061  22.696  0.00  0.00    +0.000 A 
ATOM      4  C   UNL     1     -10.236  -5.894  24.702  0.00  0.00    +0.000 A 
ATOM      5  C   UNL     1     -11.835  -5.403  23.360  0.00  0.00    +0.000 A 
ATOM      6  H   UNL     1      -8.681  -5.262  23.406  0.00  0.00    +0.000 HD
ENDROOT
BRANCH   3   9
ATOM      7 BR   UNL     1      -7.632  -5.514  16.126  0.00  0.00    +0.000 Br
ATOM      8  N   UNL     1     -10.850  -3.090  19.642  0.00  0.00    +0.000 N 
ATOM      9  C   UNL     1     -10.544  -4.479  21.345  0.00  0.00    +0.000 A 
ATOM     10  C   UNL     1      -9.756  -4.940  20.252  0.00  0.00    +0.000 A 
ATOM     11  C   UNL     1      -9.969  -4.048  19.196  0.00  0.00    +0.000 A 
ATOM     12  C   UNL     1     -11.202  -3.343  20.937  0.00  0.00    +0.000 A 
ATOM     13  C   UNL     1      -8.882  -6.025  20.047  0.00  0.00    +0.000 A 
ATOM     14  C   UNL     1      -9.352  -4.184  17.947  0.00  0.00    +0.000 A 
ATOM     15  C   UNL     1      -8.257  -6.181  18.809  0.00  0.00    +0.000 A 
ATOM     16  C   UNL     1      -8.494  -5.272  17.785  0.00  0.00    +0.000 A 
ATOM     17  H   UNL     1     -11.189  -2.312  19.092  0.00  0.00    +0.000 HD
ENDBRANCH   3   9
BRANCH   4  20
ATOM     18 BR   UNL     1      -8.864 -11.357  29.261  0.00  0.00    +0.000 Br
ATOM     19  N   UNL     1      -8.056  -6.339  27.597  0.00  0.00    +0.000 N 
ATOM     20  C   UNL     1      -9.468  -6.357  25.885  0.00  0.00    +0.000 A 
ATOM     21  C   UNL     1      -9.512  -7.636  26.507  0.00  0.00    +0.000 A 
ATOM     22  C   UNL     1      -8.616  -7.596  27.578  0.00  0.00    +0.000 A 
ATOM     23  C   UNL     1      -8.565  -5.582  26.577  0.00  0.00    +0.000 A 
ATOM     24  C   UNL     1     -10.224  -8.828  26.266  0.00  0.00    +0.000 A 
ATOM     25  C   UNL     1      -8.394  -8.686  28.425  0.00  0.00    +0.000 A 
ATOM     26  C   UNL     1     -10.018  -9.928  27.101  0.00  0.00    +0.000 A 
ATOM     27  C   UNL     1      -9.118  -9.849  28.155  0.00  0.00    +0.000 A 
ATOM     28  H   UNL     1      -7.369  -6.024  28.268  0.00  0.00    +0.000 HD
ENDBRANCH   4  20
TORSDOF 2
ENDMDL
MODEL 3
REMARK VINA RESULT:      -7.0      2.198      3.175
REMARK  Name = 179268_Nortopsentin.pdbqt.pdb
REMARK  2 active torsions:
REMARK  status: ('A' for Active; 'I' for Inactive)
REMARK    1  A    between atoms: C_3  and  C_9
REMARK    2  A    between atoms: C_4  and  C_20
REMARK                            x       y       z     vdW  Elec       q    Type
REMARK                         _______ _______ _______ _____ _____    ______ ____
ROOT
ATOM      1  N   UNL     1      -9.382  -7.128  24.929  0.00  0.00    +0.000 N 
ATOM      2  N   UNL     1     -10.817  -5.523  25.437  0.00  0.00    +0.000 NA
ATOM      3  C   UNL     1     -10.166  -7.634  25.928  0.00  0.00    +0.000 A 
ATOM      4  C   UNL     1      -9.806  -5.851  24.660  0.00  0.00    +0.000 A 
ATOM      5  C   UNL     1     -11.049  -6.622  26.229  0.00  0.00    +0.000 A 
ATOM      6  H   UNL     1      -8.622  -7.598  24.461  0.00  0.00    +0.000 HD
ENDROOT
BRANCH   3   9
ATOM      7 BR   UNL     1      -7.390 -11.752  31.218  0.00  0.00    +0.000 Br
ATOM      8  N   UNL     1     -10.424 -11.142  26.857  0.00  0.00    +0.000 N 
ATOM      9  C   UNL     1     -10.074  -8.973  26.542  0.00  0.00    +0.000 A 
ATOM     10  C   UNL     1      -9.339  -9.377  27.693  0.00  0.00    +0.000 A 
ATOM     11  C   UNL     1      -9.578 -10.744  27.866  0.00  0.00    +0.000 A 
ATOM     12  C   UNL     1     -10.729 -10.080  26.054  0.00  0.00    +0.000 A 
ATOM     13  C   UNL     1      -8.492  -8.723  28.609  0.00  0.00    +0.000 A 
ATOM     14  C   UNL     1      -9.014 -11.491  28.907  0.00  0.00    +0.000 A 
ATOM     15  C   UNL     1      -7.920  -9.448  29.655  0.00  0.00    +0.000 A 
ATOM     16  C   UNL     1      -8.182 -10.806  29.793  0.00  0.00    +0.000 A 
ATOM     17  H   UNL     1     -10.772 -12.083  26.727  0.00  0.00    +0.000 HD
ENDBRANCH   3   9
BRANCH   4  20
ATOM     18 BR   UNL     1     -10.579  -2.723  18.170  0.00  0.00    +0.000 Br
ATOM     19  N   UNL     1      -7.754  -3.626  22.619  0.00  0.00    +0.000 N 
ATOM     20  C   UNL     1      -9.204  -4.965  23.632  0.00  0.00    +0.000 A 
ATOM     21  C   UNL     1      -9.759  -4.580  22.380  0.00  0.00    +0.000 A 
ATOM     22  C   UNL     1      -8.827  -3.741  21.765  0.00  0.00    +0.000 A 
ATOM     23  C   UNL     1      -7.972  -4.363  23.751  0.00  0.00    +0.000 A 
ATOM     24  C   UNL     1     -10.963  -4.862  21.704  0.00  0.00    +0.000 A 
ATOM     25  C   UNL     1      -9.034  -3.165  20.508  0.00  0.00    +0.000 A 
ATOM     26  C   UNL     1     -11.189  -4.298  20.447  0.00  0.00    +0.000 A 
ATOM     27  C   UNL     1     -10.238  -3.468  19.870  0.00  0.00    +0.000 A 
ATOM     28  H   UNL     1      -6.925  -3.077  22.434  0.00  0.00    +0.000 HD
ENDBRANCH   4  20
TORSDOF 2
ENDMDL
MODEL 4
REMARK VINA RESULT:      -7.0      2.174      9.060
REMARK  Name = 179268_Nortopsentin.pdbqt.pdb
REMARK  2 active torsions:
REMARK  status: ('A' for Active; 'I' for Inactive)
REMARK    1  A    between atoms: C_3  and  C_9
REMARK    2  A    between atoms: C_4  and  C_20
REMARK                            x       y       z     vdW  Elec       q    Type
REMARK                         _______ _______ _______ _____ _____    ______ ____
ROOT
ATOM      1  N   UNL     1      -9.461  -7.153  24.958  0.00  0.00    +0.000 N 
ATOM      2  N   UNL     1     -11.200  -6.744  26.263  0.00  0.00    +0.000 NA
ATOM      3  C   UNL     1      -9.873  -5.887  24.643  0.00  0.00    +0.000 A 
ATOM      4  C   UNL     1     -10.288  -7.637  25.940  0.00  0.00    +0.000 A 
ATOM      5  C   UNL     1     -10.953  -5.654  25.464  0.00  0.00    +0.000 A 
ATOM      6  H   UNL     1      -8.688  -7.655  24.549  0.00  0.00    +0.000 HD
ENDROOT
BRANCH   3   9
ATOM      7 BR   UNL     1     -10.527  -2.681  18.167  0.00  0.00    +0.000 Br
ATOM      8  N   UNL     1      -7.828  -3.596  22.692  0.00  0.00    +0.000 N 
ATOM      9  C   UNL     1      -9.281  -4.980  23.640  0.00  0.00    +0.000 A 
ATOM     10  C   UNL     1      -9.805  -4.588  22.375  0.00  0.00    +0.000 A 
ATOM     11  C   UNL     1      -8.871  -3.719  21.803  0.00  0.00    +0.000 A 
ATOM     12  C   UNL     1      -8.068  -4.353  23.803  0.00  0.00    +0.000 A 
ATOM     13  C   UNL     1     -10.978  -4.882  21.652  0.00  0.00    +0.000 A 
ATOM     14  C   UNL     1      -9.049  -3.128  20.546  0.00  0.00    +0.000 A 
ATOM     15  C   UNL     1     -11.177  -4.303  20.398  0.00  0.00    +0.000 A 
ATOM     16  C   UNL     1     -10.224  -3.444  19.864  0.00  0.00    +0.000 A 
ATOM     17  H   UNL     1      -7.004  -3.027  22.547  0.00  0.00    +0.000 HD
ENDBRANCH   3   9
BRANCH   4  20
ATOM     18 BR   UNL     1      -7.288 -11.647  31.178  0.00  0.00    +0.000 Br
ATOM     19  N   UNL     1     -10.462 -11.154  26.902  0.00  0.00    +0.000 N 
ATOM     20  C   UNL     1     -10.165  -8.983  26.553  0.00  0.00    +0.000 A 
ATOM     21  C   UNL     1      -9.389  -9.359  27.685  0.00  0.00    +0.000 A 
ATOM     22  C   UNL     1      -9.594 -10.727  27.881  0.00  0.00    +0.000 A 
ATOM     23  C   UNL     1     -10.813 -10.107  26.094  0.00  0.00    +0.000 A 
ATOM     24  C   UNL     1      -8.530  -8.672  28.566  0.00  0.00    +0.000 A 
ATOM     25  C   UNL     1      -8.985 -11.447  28.913  0.00  0.00    +0.000 A 
ATOM     26  C   UNL     1      -7.911  -9.373  29.603  0.00  0.00    +0.000 A 
ATOM     27  C   UNL     1      -8.141 -10.733  29.764  0.00  0.00    +0.000 A 
ATOM     28  H   UNL     1     -10.790 -12.105  26.798  0.00  0.00    +0.000 HD
ENDBRANCH   4  20
TORSDOF 2
ENDMDL
MODEL 5
REMARK VINA RESULT:      -6.8      5.374      6.830
REMARK  Name = 179268_Nortopsentin.pdbqt.pdb
REMARK  2 active torsions:
REMARK  status: ('A' for Active; 'I' for Inactive)
REMARK    1  A    between atoms: C_3  and  C_9
REMARK    2  A    between atoms: C_4  and  C_20
REMARK                            x       y       z     vdW  Elec       q    Type
REMARK                         _______ _______ _______ _____ _____    ______ ____
ROOT
ATOM      1  N   UNL     1     -10.741  -1.991  22.943  0.00  0.00    +0.000 N 
ATOM      2  N   UNL     1      -9.832  -0.648  21.438  0.00  0.00    +0.000 NA
ATOM      3  C   UNL     1     -11.166  -0.731  23.264  0.00  0.00    +0.000 A 
ATOM      4  C   UNL     1      -9.938  -1.899  21.835  0.00  0.00    +0.000 A 
ATOM      5  C   UNL     1     -10.590   0.086  22.318  0.00  0.00    +0.000 A 
ATOM      6  H   UNL     1     -10.970  -2.846  23.427  0.00  0.00    +0.000 HD
ENDROOT
BRANCH   3   9
ATOM      7 BR   UNL     1     -17.945   0.420  25.581  0.00  0.00    +0.000 Br
ATOM      8  N   UNL     1     -12.665   0.287  26.420  0.00  0.00    +0.000 N 
ATOM      9  C   UNL     1     -12.048  -0.345  24.383  0.00  0.00    +0.000 A 
ATOM     10  C   UNL     1     -13.468  -0.239  24.402  0.00  0.00    +0.000 A 
ATOM     11  C   UNL     1     -13.827   0.160  25.693  0.00  0.00    +0.000 A 
ATOM     12  C   UNL     1     -11.587  -0.016  25.637  0.00  0.00    +0.000 A 
ATOM     13  C   UNL     1     -14.491  -0.440  23.454  0.00  0.00    +0.000 A 
ATOM     14  C   UNL     1     -15.154   0.368  26.086  0.00  0.00    +0.000 A 
ATOM     15  C   UNL     1     -15.821  -0.239  23.824  0.00  0.00    +0.000 A 
ATOM     16  C   UNL     1     -16.136   0.157  25.118  0.00  0.00    +0.000 A 
ATOM     17  H   UNL     1     -12.614   0.563  27.391  0.00  0.00    +0.000 HD
ENDBRANCH   3   9
BRANCH   4  20
ATOM     18 BR   UNL     1      -9.319  -5.881  15.812  0.00  0.00    +0.000 Br
ATOM     19  N   UNL     1      -7.969  -4.820  20.877  0.00  0.00    +0.000 N 
ATOM     20  C   UNL     1      -9.281  -3.056  21.177  0.00  0.00    +0.000 A 
ATOM     21  C   UNL     1      -9.475  -3.530  19.849  0.00  0.00    +0.000 A 
ATOM     22  C   UNL     1      -8.639  -4.638  19.689  0.00  0.00    +0.000 A 
ATOM     23  C   UNL     1      -8.350  -3.869  21.783  0.00  0.00    +0.000 A 
ATOM     24  C   UNL     1     -10.278  -3.128  18.764  0.00  0.00    +0.000 A 
ATOM     25  C   UNL     1      -8.563  -5.367  18.498  0.00  0.00    +0.000 A 
ATOM     26  C   UNL     1     -10.219  -3.843  17.566  0.00  0.00    +0.000 A 
ATOM     27  C   UNL     1      -9.374  -4.939  17.447  0.00  0.00    +0.000 A 
ATOM     28  H   UNL     1      -7.293  -5.552  21.051  0.00  0.00    +0.000 HD
ENDBRANCH   4  20
TORSDOF 2
ENDMDL
MODEL 6
REMARK VINA RESULT:      -6.7      1.692      8.665
REMARK  Name = 179268_Nortopsentin.pdbqt.pdb
REMARK  2 active torsions:
REMARK  status: ('A' for Active; 'I' for Inactive)
REMARK    1  A    between atoms: C_3  and  C_9
REMARK    2  A    between atoms: C_4  and  C_20
REMARK                            x       y       z     vdW  Elec       q    Type
REMARK                         _______ _______ _______ _____ _____    ______ ____
ROOT
ATOM      1  N   UNL     1      -9.521  -5.440  23.382  0.00  0.00    +0.000 N 
ATOM      2  N   UNL     1     -10.760  -4.621  25.021  0.00  0.00    +0.000 NA
ATOM      3  C   UNL     1     -10.295  -4.467  22.812  0.00  0.00    +0.000 A 
ATOM      4  C   UNL     1      -9.831  -5.503  24.717  0.00  0.00    +0.000 A 
ATOM      5  C   UNL     1     -11.057  -3.973  23.847  0.00  0.00    +0.000 A 
ATOM      6  H   UNL     1      -8.838  -6.018  22.915  0.00  0.00    +0.000 HD
ENDROOT
BRANCH   3   9
ATOM      7 BR   UNL     1      -8.027  -5.771  16.045  0.00  0.00    +0.000 Br
ATOM      8  N   UNL     1     -10.775  -2.855  19.585  0.00  0.00    +0.000 N 
ATOM      9  C   UNL     1     -10.304  -4.049  21.396  0.00  0.00    +0.000 A 
ATOM     10  C   UNL     1      -9.655  -4.658  20.284  0.00  0.00    +0.000 A 
ATOM     11  C   UNL     1      -9.970  -3.886  19.161  0.00  0.00    +0.000 A 
ATOM     12  C   UNL     1     -10.982  -2.946  20.933  0.00  0.00    +0.000 A 
ATOM     13  C   UNL     1      -8.831  -5.787  20.112  0.00  0.00    +0.000 A 
ATOM     14  C   UNL     1      -9.502  -4.185  17.876  0.00  0.00    +0.000 A 
ATOM     15  C   UNL     1      -8.355  -6.104  18.840  0.00  0.00    +0.000 A 
ATOM     16  C   UNL     1      -8.690  -5.312  17.749  0.00  0.00    +0.000 A 
ATOM     17  H   UNL     1     -11.160  -2.135  18.989  0.00  0.00    +0.000 HD
ENDBRANCH   3   9
BRANCH   4  20
ATOM     18 BR   UNL     1      -5.903  -6.216  30.764  0.00  0.00    +0.000 Br
ATOM     19  N   UNL     1      -8.571  -8.337  26.643  0.00  0.00    +0.000 N 
ATOM     20  C   UNL     1      -9.201  -6.439  25.682  0.00  0.00    +0.000 A 
ATOM     21  C   UNL     1      -8.447  -6.116  26.844  0.00  0.00    +0.000 A 
ATOM     22  C   UNL     1      -8.064  -7.326  27.428  0.00  0.00    +0.000 A 
ATOM     23  C   UNL     1      -9.259  -7.811  25.584  0.00  0.00    +0.000 A 
ATOM     24  C   UNL     1      -8.051  -4.913  27.463  0.00  0.00    +0.000 A 
ATOM     25  C   UNL     1      -7.304  -7.399  28.599  0.00  0.00    +0.000 A 
ATOM     26  C   UNL     1      -7.291  -4.964  28.632  0.00  0.00    +0.000 A 
ATOM     27  C   UNL     1      -6.930  -6.187  29.182  0.00  0.00    +0.000 A 
ATOM     28  H   UNL     1      -8.449  -9.324  26.825  0.00  0.00    +0.000 HD
ENDBRANCH   4  20
TORSDOF 2
ENDMDL
MODEL 7
REMARK VINA RESULT:      -6.7      6.734      9.222
REMARK  Name = 179268_Nortopsentin.pdbqt.pdb
REMARK  2 active torsions:
REMARK  status: ('A' for Active; 'I' for Inactive)
REMARK    1  A    between atoms: C_3  and  C_9
REMARK    2  A    between atoms: C_4  and  C_20
REMARK                            x       y       z     vdW  Elec       q    Type
REMARK                         _______ _______ _______ _____ _____    ______ ____
ROOT
ATOM      1  N   UNL     1     -14.711  -1.727  23.567  0.00  0.00    +0.000 N 
ATOM      2  N   UNL     1     -12.664  -0.939  23.858  0.00  0.00    +0.000 NA
ATOM      3  C   UNL     1     -14.866  -0.436  23.991  0.00  0.00    +0.000 A 
ATOM      4  C   UNL     1     -13.367  -1.994  23.500  0.00  0.00    +0.000 A 
ATOM      5  C   UNL     1     -13.584   0.034  24.165  0.00  0.00    +0.000 A 
ATOM      6  H   UNL     1     -15.446  -2.380  23.341  0.00  0.00    +0.000 HD
ENDROOT
BRANCH   3   9
ATOM      7 BR   UNL     1     -21.282   1.595  21.278  0.00  0.00    +0.000 Br
ATOM      8  N   UNL     1     -17.692   1.487  25.239  0.00  0.00    +0.000 N 
ATOM      9  C   UNL     1     -16.136   0.284  24.210  0.00  0.00    +0.000 A 
ATOM     10  C   UNL     1     -17.232   0.449  23.315  0.00  0.00    +0.000 A 
ATOM     11  C   UNL     1     -18.193   1.209  23.989  0.00  0.00    +0.000 A 
ATOM     12  C   UNL     1     -16.451   0.933  25.381  0.00  0.00    +0.000 A 
ATOM     13  C   UNL     1     -17.509   0.032  21.998  0.00  0.00    +0.000 A 
ATOM     14  C   UNL     1     -19.417   1.573  23.415  0.00  0.00    +0.000 A 
ATOM     15  C   UNL     1     -18.723   0.383  21.406  0.00  0.00    +0.000 A 
ATOM     16  C   UNL     1     -19.652   1.139  22.110  0.00  0.00    +0.000 A 
ATOM     17  H   UNL     1     -18.170   2.023  25.951  0.00  0.00    +0.000 HD
ENDBRANCH   3   9
BRANCH   4  20
ATOM     18 BR   UNL     1      -8.401  -5.378  19.451  0.00  0.00    +0.000 Br
ATOM     19  N   UNL     1     -12.465  -5.485  22.924  0.00  0.00    +0.000 N 
ATOM     20  C   UNL     1     -12.789  -3.295  23.078  0.00  0.00    +0.000 A 
ATOM     21  C   UNL     1     -11.714  -3.519  22.174  0.00  0.00    +0.000 A 
ATOM     22  C   UNL     1     -11.533  -4.902  22.096  0.00  0.00    +0.000 A 
ATOM     23  C   UNL     1     -13.230  -4.520  23.523  0.00  0.00    +0.000 A 
ATOM     24  C   UNL     1     -10.874  -2.685  21.411  0.00  0.00    +0.000 A 
ATOM     25  C   UNL     1     -10.554  -5.498  21.294  0.00  0.00    +0.000 A 
ATOM     26  C   UNL     1      -9.890  -3.258  20.603  0.00  0.00    +0.000 A 
ATOM     27  C   UNL     1      -9.742  -4.638  20.553  0.00  0.00    +0.000 A 
ATOM     28  H   UNL     1     -12.568  -6.480  23.067  0.00  0.00    +0.000 HD
ENDBRANCH   4  20
TORSDOF 2
ENDMDL
MODEL 8
REMARK VINA RESULT:      -6.6      3.898      8.810
REMARK  Name = 179268_Nortopsentin.pdbqt.pdb
REMARK  2 active torsions:
REMARK  status: ('A' for Active; 'I' for Inactive)
REMARK    1  A    between atoms: C_3  and  C_9
REMARK    2  A    between atoms: C_4  and  C_20
REMARK                            x       y       z     vdW  Elec       q    Type
REMARK                         _______ _______ _______ _____ _____    ______ ____
ROOT
ATOM      1  N   UNL     1      -9.704  -3.172  22.908  0.00  0.00    +0.000 N 
ATOM      2  N   UNL     1      -9.479  -4.824  21.454  0.00  0.00    +0.000 NA
ATOM      3  C   UNL     1      -8.757  -2.754  22.015  0.00  0.00    +0.000 A 
ATOM      4  C   UNL     1     -10.116  -4.427  22.536  0.00  0.00    +0.000 A 
ATOM      5  C   UNL     1      -8.633  -3.794  21.121  0.00  0.00    +0.000 A 
ATOM      6  H   UNL     1     -10.049  -2.659  23.705  0.00  0.00    +0.000 HD
ENDROOT
BRANCH   3   9
ATOM      7 BR   UNL     1      -8.523   4.128  19.729  0.00  0.00    +0.000 Br
ATOM      8  N   UNL     1      -6.465   0.033  22.483  0.00  0.00    +0.000 N 
ATOM      9  C   UNL     1      -8.033  -1.467  22.019  0.00  0.00    +0.000 A 
ATOM     10  C   UNL     1      -8.380  -0.249  21.368  0.00  0.00    +0.000 A 
ATOM     11  C   UNL     1      -7.377   0.675  21.678  0.00  0.00    +0.000 A 
ATOM     12  C   UNL     1      -6.853  -1.260  22.694  0.00  0.00    +0.000 A 
ATOM     13  C   UNL     1      -9.445   0.169  20.545  0.00  0.00    +0.000 A 
ATOM     14  C   UNL     1      -7.383   1.993  21.207  0.00  0.00    +0.000 A 
ATOM     15  C   UNL     1      -9.471   1.479  20.065  0.00  0.00    +0.000 A 
ATOM     16  C   UNL     1      -8.454   2.366  20.396  0.00  0.00    +0.000 A 
ATOM     17  H   UNL     1      -5.629   0.455  22.865  0.00  0.00    +0.000 HD
ENDBRANCH   3   9
BRANCH   4  20
ATOM     18 BR   UNL     1     -11.442  -9.242  27.786  0.00  0.00    +0.000 Br
ATOM     19  N   UNL     1     -13.117  -6.046  23.839  0.00  0.00    +0.000 N 
ATOM     20  C   UNL     1     -11.140  -5.223  23.257  0.00  0.00    +0.000 A 
ATOM     21  C   UNL     1     -10.940  -6.133  24.332  0.00  0.00    +0.000 A 
ATOM     22  C   UNL     1     -12.197  -6.636  24.677  0.00  0.00    +0.000 A 
ATOM     23  C   UNL     1     -12.487  -5.190  22.977  0.00  0.00    +0.000 A 
ATOM     24  C   UNL     1      -9.814  -6.583  25.049  0.00  0.00    +0.000 A 
ATOM     25  C   UNL     1     -12.390  -7.565  25.703  0.00  0.00    +0.000 A 
ATOM     26  C   UNL     1      -9.983  -7.512  26.077  0.00  0.00    +0.000 A 
ATOM     27  C   UNL     1     -11.250  -7.987  26.390  0.00  0.00    +0.000 A 
ATOM     28  H   UNL     1     -14.112  -6.223  23.860  0.00  0.00    +0.000 HD
ENDBRANCH   4  20
TORSDOF 2
ENDMDL
MODEL 9
REMARK VINA RESULT:      -6.5      3.855      4.890
REMARK  Name = 179268_Nortopsentin.pdbqt.pdb
REMARK  2 active torsions:
REMARK  status: ('A' for Active; 'I' for Inactive)
REMARK    1  A    between atoms: C_3  and  C_9
REMARK    2  A    between atoms: C_4  and  C_20
REMARK                            x       y       z     vdW  Elec       q    Type
REMARK                         _______ _______ _______ _____ _____    ______ ____
ROOT
ATOM      1  N   UNL     1      -9.497  -3.277  22.915  0.00  0.00    +0.000 N 
ATOM      2  N   UNL     1      -8.574  -3.658  20.941  0.00  0.00    +0.000 NA
ATOM      3  C   UNL     1      -9.951  -4.505  22.523  0.00  0.00    +0.000 A 
ATOM      4  C   UNL     1      -8.667  -2.797  21.933  0.00  0.00    +0.000 A 
ATOM      5  C   UNL     1      -9.367  -4.722  21.296  0.00  0.00    +0.000 A 
ATOM      6  H   UNL     1      -9.722  -2.795  23.772  0.00  0.00    +0.000 HD
ENDROOT
BRANCH   3   9
ATOM      7 BR   UNL     1     -11.151  -8.427  28.509  0.00  0.00    +0.000 Br
ATOM      8  N   UNL     1     -12.677  -6.597  23.723  0.00  0.00    +0.000 N 
ATOM      9  C   UNL     1     -10.869  -5.394  23.264  0.00  0.00    +0.000 A 
ATOM     10  C   UNL     1     -10.685  -5.999  24.540  0.00  0.00    +0.000 A 
ATOM     11  C   UNL     1     -11.837  -6.748  24.801  0.00  0.00    +0.000 A 
ATOM     12  C   UNL     1     -12.101  -5.781  22.790  0.00  0.00    +0.000 A 
ATOM     13  C   UNL     1      -9.658  -5.991  25.504  0.00  0.00    +0.000 A 
ATOM     14  C   UNL     1     -12.015  -7.488  25.976  0.00  0.00    +0.000 A 
ATOM     15  C   UNL     1      -9.815  -6.721  26.683  0.00  0.00    +0.000 A 
ATOM     16  C   UNL     1     -10.975  -7.452  26.905  0.00  0.00    +0.000 A 
ATOM     17  H   UNL     1     -13.589  -7.025  23.631  0.00  0.00    +0.000 HD
ENDBRANCH   3   9
BRANCH   4  20
ATOM     18 BR   UNL     1      -8.614   4.115  19.758  0.00  0.00    +0.000 Br
ATOM     19  N   UNL     1      -6.473   0.063  22.513  0.00  0.00    +0.000 N 
ATOM     20  C   UNL     1      -7.972  -1.486  21.987  0.00  0.00    +0.000 A 
ATOM     21  C   UNL     1      -8.346  -0.274  21.343  0.00  0.00    +0.000 A 
ATOM     22  C   UNL     1      -7.388   0.681  21.691  0.00  0.00    +0.000 A 
ATOM     23  C   UNL     1      -6.817  -1.249  22.697  0.00  0.00    +0.000 A 
ATOM     24  C   UNL     1      -9.406   0.111  20.499  0.00  0.00    +0.000 A 
ATOM     25  C   UNL     1      -7.432   2.003  21.239  0.00  0.00    +0.000 A 
ATOM     26  C   UNL     1      -9.469   1.426  20.035  0.00  0.00    +0.000 A 
ATOM     27  C   UNL     1      -8.496   2.346  20.403  0.00  0.00    +0.000 A 
ATOM     28  H   UNL     1      -5.665   0.514  22.919  0.00  0.00    +0.000 HD
ENDBRANCH   4  20
TORSDOF 2
ENDMDL
