MODEL 1
REMARK VINA RESULT:      -5.0      0.000      0.000
REMARK  Name = 21574552_Mertensene.pdbqt.pdb
REMARK  1 active torsions:
REMARK  status: ('A' for Active; 'I' for Inactive)
REMARK    1  A    between atoms: C_4  and  C_13
REMARK                            x       y       z     vdW  Elec       q    Type
REMARK                         _______ _______ _______ _____ _____    ______ ____
ROOT
ATOM      1 BR   UNL     1      -9.724  -0.778  24.128  0.00  0.00    +0.000 Br
ATOM      2 CL   UNL     1     -10.538  -3.520  18.915  0.00  0.00    +0.000 Cl
ATOM      3 CL   UNL     1     -11.670  -5.221  21.640  0.00  0.00    +0.000 Cl
ATOM      4  C   UNL     1      -8.470  -1.629  21.552  0.00  0.00    +0.000 C 
ATOM      5  C   UNL     1      -8.720  -2.708  20.590  0.00  0.00    +0.000 C 
ATOM      6  C   UNL     1      -9.515  -3.903  20.322  0.00  0.00    +0.000 C 
ATOM      7  C   UNL     1      -9.412  -1.953  22.739  0.00  0.00    +0.000 C 
ATOM      8  C   UNL     1     -10.367  -4.116  21.580  0.00  0.00    +0.000 C 
ATOM      9  C   UNL     1     -10.213  -3.124  22.593  0.00  0.00    +0.000 C 
ATOM     10  C   UNL     1      -7.003  -1.679  22.036  0.00  0.00    +0.000 C 
ATOM     11  C   UNL     1      -8.658  -5.129  19.991  0.00  0.00    +0.000 C 
ENDROOT
BRANCH   4  13
ATOM     12 CL   UNL     1      -9.530   2.281  19.777  0.00  0.00    +0.000 Cl
ATOM     13  C   UNL     1      -8.819  -0.325  20.967  0.00  0.00    +0.000 C 
ATOM     14  C   UNL     1      -9.106   0.738  20.487  0.00  0.00    +0.000 C 
ENDBRANCH   4  13
TORSDOF 1
ENDMDL
MODEL 2
REMARK VINA RESULT:      -4.5      2.541      5.015
REMARK  Name = 21574552_Mertensene.pdbqt.pdb
REMARK  1 active torsions:
REMARK  status: ('A' for Active; 'I' for Inactive)
REMARK    1  A    between atoms: C_4  and  C_13
REMARK                            x       y       z     vdW  Elec       q    Type
REMARK                         _______ _______ _______ _____ _____    ______ ____
ROOT
ATOM      1 BR   UNL     1     -11.178  -2.452  25.252  0.00  0.00    +0.000 Br
ATOM      2 CL   UNL     1      -8.550  -4.436  20.300  0.00  0.00    +0.000 Cl
ATOM      3 CL   UNL     1      -9.055  -1.070  20.425  0.00  0.00    +0.000 Cl
ATOM      4  C   UNL     1     -11.254  -4.459  23.039  0.00  0.00    +0.000 C 
ATOM      5  C   UNL     1     -10.772  -4.485  21.653  0.00  0.00    +0.000 C 
ATOM      6  C   UNL     1     -10.143  -3.698  20.596  0.00  0.00    +0.000 C 
ATOM      7  C   UNL     1     -11.013  -2.999  23.496  0.00  0.00    +0.000 C 
ATOM      8  C   UNL     1      -9.996  -2.284  21.175  0.00  0.00    +0.000 C 
ATOM      9  C   UNL     1     -10.430  -2.133  22.525  0.00  0.00    +0.000 C 
ATOM     10  C   UNL     1     -12.768  -4.764  23.080  0.00  0.00    +0.000 C 
ATOM     11  C   UNL     1     -10.943  -3.706  19.289  0.00  0.00    +0.000 C 
ENDROOT
BRANCH   4  13
ATOM     12 CL   UNL     1      -8.932  -7.266  25.547  0.00  0.00    +0.000 Cl
ATOM     13  C   UNL     1     -10.476  -5.388  23.873  0.00  0.00    +0.000 C 
ATOM     14  C   UNL     1      -9.844  -6.149  24.554  0.00  0.00    +0.000 C 
ENDBRANCH   4  13
TORSDOF 1
ENDMDL
MODEL 3
REMARK VINA RESULT:      -4.3     20.521     22.027
REMARK  Name = 21574552_Mertensene.pdbqt.pdb
REMARK  1 active torsions:
REMARK  status: ('A' for Active; 'I' for Inactive)
REMARK    1  A    between atoms: C_4  and  C_13
REMARK                            x       y       z     vdW  Elec       q    Type
REMARK                         _______ _______ _______ _____ _____    ______ ____
ROOT
ATOM      1 BR   UNL     1      -5.385  -6.120  -0.663  0.00  0.00    +0.000 Br
ATOM      2 CL   UNL     1       0.225  -5.433   1.187  0.00  0.00    +0.000 Cl
ATOM      3 CL   UNL     1      -0.146  -7.237  -1.678  0.00  0.00    +0.000 Cl
ATOM      4  C   UNL     1      -3.496  -6.300   1.647  0.00  0.00    +0.000 C 
ATOM      5  C   UNL     1      -2.055  -6.536   1.784  0.00  0.00    +0.000 C 
ATOM      6  C   UNL     1      -0.828  -6.864   1.064  0.00  0.00    +0.000 C 
ATOM      7  C   UNL     1      -3.778  -6.542   0.143  0.00  0.00    +0.000 C 
ATOM      8  C   UNL     1      -1.262  -7.104  -0.389  0.00  0.00    +0.000 C 
ATOM      9  C   UNL     1      -2.649  -6.902  -0.650  0.00  0.00    +0.000 C 
ATOM     10  C   UNL     1      -4.285  -7.329   2.487  0.00  0.00    +0.000 C 
ATOM     11  C   UNL     1      -0.092  -8.071   1.654  0.00  0.00    +0.000 C 
ENDROOT
BRANCH   4  13
ATOM     12 CL   UNL     1      -4.476  -2.129   2.746  0.00  0.00    +0.000 Cl
ATOM     13  C   UNL     1      -3.829  -4.913   2.009  0.00  0.00    +0.000 C 
ATOM     14  C   UNL     1      -4.097  -3.781   2.307  0.00  0.00    +0.000 C 
ENDBRANCH   4  13
TORSDOF 1
ENDMDL
MODEL 4
REMARK VINA RESULT:      -4.2     20.509     22.121
REMARK  Name = 21574552_Mertensene.pdbqt.pdb
REMARK  1 active torsions:
REMARK  status: ('A' for Active; 'I' for Inactive)
REMARK    1  A    between atoms: C_4  and  C_13
REMARK                            x       y       z     vdW  Elec       q    Type
REMARK                         _______ _______ _______ _____ _____    ______ ____
ROOT
ATOM      1 BR   UNL     1      -3.843  -3.829   2.113  0.00  0.00    +0.000 Br
ATOM      2 CL   UNL     1      -4.443  -8.027  -2.055  0.00  0.00    +0.000 Cl
ATOM      3 CL   UNL     1      -6.409  -5.278  -2.473  0.00  0.00    +0.000 Cl
ATOM      4  C   UNL     1      -4.241  -6.740   1.567  0.00  0.00    +0.000 C 
ATOM      5  C   UNL     1      -4.830  -7.511   0.466  0.00  0.00    +0.000 C 
ATOM      6  C   UNL     1      -5.551  -7.419  -0.800  0.00  0.00    +0.000 C 
ATOM      7  C   UNL     1      -4.575  -5.268   1.218  0.00  0.00    +0.000 C 
ATOM      8  C   UNL     1      -5.838  -5.924  -0.997  0.00  0.00    +0.000 C 
ATOM      9  C   UNL     1      -5.310  -5.067   0.012  0.00  0.00    +0.000 C 
ATOM     10  C   UNL     1      -4.921  -7.116   2.902  0.00  0.00    +0.000 C 
ATOM     11  C   UNL     1      -6.832  -8.261  -0.821  0.00  0.00    +0.000 C 
ENDROOT
BRANCH   4  13
ATOM     12 CL   UNL     1       0.139  -7.336   1.712  0.00  0.00    +0.000 Cl
ATOM     13  C   UNL     1      -2.783  -6.933   1.609  0.00  0.00    +0.000 C 
ATOM     14  C   UNL     1      -1.594  -7.094   1.647  0.00  0.00    +0.000 C 
ENDBRANCH   4  13
TORSDOF 1
ENDMDL
MODEL 5
REMARK VINA RESULT:      -4.1     16.610     17.731
REMARK  Name = 21574552_Mertensene.pdbqt.pdb
REMARK  1 active torsions:
REMARK  status: ('A' for Active; 'I' for Inactive)
REMARK    1  A    between atoms: C_4  and  C_13
REMARK                            x       y       z     vdW  Elec       q    Type
REMARK                         _______ _______ _______ _____ _____    ______ ____
ROOT
ATOM      1 BR   UNL     1     -23.895  -7.568  10.603  0.00  0.00    +0.000 Br
ATOM      2 CL   UNL     1     -21.200  -3.201   7.598  0.00  0.00    +0.000 Cl
ATOM      3 CL   UNL     1     -21.146  -6.251   6.083  0.00  0.00    +0.000 Cl
ATOM      4  C   UNL     1     -21.947  -5.305  10.733  0.00  0.00    +0.000 C 
ATOM      5  C   UNL     1     -21.071  -4.642   9.761  0.00  0.00    +0.000 C 
ATOM      6  C   UNL     1     -20.579  -4.672   8.386  0.00  0.00    +0.000 C 
ATOM      7  C   UNL     1     -22.516  -6.522   9.961  0.00  0.00    +0.000 C 
ATOM      8  C   UNL     1     -21.193  -5.932   7.762  0.00  0.00    +0.000 C 
ATOM      9  C   UNL     1     -22.072  -6.665   8.613  0.00  0.00    +0.000 C 
ATOM     10  C   UNL     1     -21.120  -5.805  11.939  0.00  0.00    +0.000 C 
ATOM     11  C   UNL     1     -19.049  -4.671   8.299  0.00  0.00    +0.000 C 
ENDROOT
BRANCH   4  13
ATOM     12 CL   UNL     1     -25.214  -2.588  11.960  0.00  0.00    +0.000 Cl
ATOM     13  C   UNL     1     -23.039  -4.406  11.140  0.00  0.00    +0.000 C 
ATOM     14  C   UNL     1     -23.927  -3.671  11.473  0.00  0.00    +0.000 C 
ENDBRANCH   4  13
TORSDOF 1
ENDMDL
MODEL 6
REMARK VINA RESULT:      -4.1     20.878     22.302
REMARK  Name = 21574552_Mertensene.pdbqt.pdb
REMARK  1 active torsions:
REMARK  status: ('A' for Active; 'I' for Inactive)
REMARK    1  A    between atoms: C_4  and  C_13
REMARK                            x       y       z     vdW  Elec       q    Type
REMARK                         _______ _______ _______ _____ _____    ______ ____
ROOT
ATOM      1 BR   UNL     1      -6.863  -4.914  -2.183  0.00  0.00    +0.000 Br
ATOM      2 CL   UNL     1      -5.077  -7.131   3.038  0.00  0.00    +0.000 Cl
ATOM      3 CL   UNL     1      -4.102  -3.928   2.413  0.00  0.00    +0.000 Cl
ATOM      4  C   UNL     1      -5.575  -7.216  -0.778  0.00  0.00    +0.000 C 
ATOM      5  C   UNL     1      -4.803  -7.366   0.461  0.00  0.00    +0.000 C 
ATOM      6  C   UNL     1      -4.185  -6.650   1.574  0.00  0.00    +0.000 C 
ATOM      7  C   UNL     1      -5.737  -5.683  -0.939  0.00  0.00    +0.000 C 
ATOM      8  C   UNL     1      -4.395  -5.161   1.265  0.00  0.00    +0.000 C 
ATOM      9  C   UNL     1      -5.139  -4.885   0.081  0.00  0.00    +0.000 C 
ATOM     10  C   UNL     1      -4.773  -7.773  -1.975  0.00  0.00    +0.000 C 
ATOM     11  C   UNL     1      -2.704  -6.998   1.760  0.00  0.00    +0.000 C 
ENDROOT
BRANCH   4  13
ATOM     12 CL   UNL     1      -9.530  -9.156  -0.385  0.00  0.00    +0.000 Cl
ATOM     13  C   UNL     1      -6.893  -7.855  -0.644  0.00  0.00    +0.000 C 
ATOM     14  C   UNL     1      -7.968  -8.379  -0.537  0.00  0.00    +0.000 C 
ENDBRANCH   4  13
TORSDOF 1
ENDMDL
MODEL 7
REMARK VINA RESULT:      -3.8     21.493     23.094
REMARK  Name = 21574552_Mertensene.pdbqt.pdb
REMARK  1 active torsions:
REMARK  status: ('A' for Active; 'I' for Inactive)
REMARK    1  A    between atoms: C_4  and  C_13
REMARK                            x       y       z     vdW  Elec       q    Type
REMARK                         _______ _______ _______ _____ _____    ______ ____
ROOT
ATOM      1 BR   UNL     1      -0.187  -4.021  -1.112  0.00  0.00    +0.000 Br
ATOM      2 CL   UNL     1      -4.501  -7.988  -0.103  0.00  0.00    +0.000 Cl
ATOM      3 CL   UNL     1      -5.541  -4.758  -0.395  0.00  0.00    +0.000 Cl
ATOM      4  C   UNL     1      -1.093  -6.327   0.561  0.00  0.00    +0.000 C 
ATOM      5  C   UNL     1      -2.400  -6.868   0.949  0.00  0.00    +0.000 C 
ATOM      6  C   UNL     1      -3.844  -6.658   0.882  0.00  0.00    +0.000 C 
ATOM      7  C   UNL     1      -1.433  -5.000  -0.164  0.00  0.00    +0.000 C 
ATOM      8  C   UNL     1      -4.025  -5.308   0.175  0.00  0.00    +0.000 C 
ATOM      9  C   UNL     1      -2.820  -4.681  -0.256  0.00  0.00    +0.000 C 
ATOM     10  C   UNL     1      -0.250  -6.021   1.819  0.00  0.00    +0.000 C 
ATOM     11  C   UNL     1      -4.516  -6.683   2.259  0.00  0.00    +0.000 C 
ENDROOT
BRANCH   4  13
ATOM     12 CL   UNL     1       0.952  -9.096  -2.216  0.00  0.00    +0.000 Cl
ATOM     13  C   UNL     1      -0.406  -7.247  -0.360  0.00  0.00    +0.000 C 
ATOM     14  C   UNL     1       0.151  -7.998  -1.112  0.00  0.00    +0.000 C 
ENDBRANCH   4  13
TORSDOF 1
ENDMDL
MODEL 8
REMARK VINA RESULT:      -3.6     18.003     18.606
REMARK  Name = 21574552_Mertensene.pdbqt.pdb
REMARK  1 active torsions:
REMARK  status: ('A' for Active; 'I' for Inactive)
REMARK    1  A    between atoms: C_4  and  C_13
REMARK                            x       y       z     vdW  Elec       q    Type
REMARK                         _______ _______ _______ _____ _____    ______ ____
ROOT
ATOM      1 BR   UNL     1       6.535  -9.450  16.256  0.00  0.00    +0.000 Br
ATOM      2 CL   UNL     1       3.039 -11.291  11.812  0.00  0.00    +0.000 Cl
ATOM      3 CL   UNL     1       2.866 -13.153  14.658  0.00  0.00    +0.000 Cl
ATOM      4  C   UNL     1       6.369 -10.124  13.349  0.00  0.00    +0.000 C 
ATOM      5  C   UNL     1       5.521 -11.009  12.543  0.00  0.00    +0.000 C 
ATOM      6  C   UNL     1       4.466 -12.017  12.591  0.00  0.00    +0.000 C 
ATOM      7  C   UNL     1       5.981 -10.457  14.812  0.00  0.00    +0.000 C 
ATOM      8  C   UNL     1       4.211 -12.266  14.084  0.00  0.00    +0.000 C 
ATOM      9  C   UNL     1       4.978 -11.458  14.974  0.00  0.00    +0.000 C 
ATOM     10  C   UNL     1       7.859 -10.467  13.125  0.00  0.00    +0.000 C 
ATOM     11  C   UNL     1       4.835 -13.305  11.847  0.00  0.00    +0.000 C 
ENDROOT
BRANCH   4  13
ATOM     12 CL   UNL     1       5.494  -5.878  12.471  0.00  0.00    +0.000 Cl
ATOM     13  C   UNL     1       6.072  -8.714  13.053  0.00  0.00    +0.000 C 
ATOM     14  C   UNL     1       5.832  -7.562  12.814  0.00  0.00    +0.000 C 
ENDBRANCH   4  13
TORSDOF 1
ENDMDL
MODEL 9
REMARK VINA RESULT:      -3.6     17.777     18.915
REMARK  Name = 21574552_Mertensene.pdbqt.pdb
REMARK  1 active torsions:
REMARK  status: ('A' for Active; 'I' for Inactive)
REMARK    1  A    between atoms: C_4  and  C_13
REMARK                            x       y       z     vdW  Elec       q    Type
REMARK                         _______ _______ _______ _____ _____    ______ ____
ROOT
ATOM      1 BR   UNL     1     -22.776  -6.757   8.579  0.00  0.00    +0.000 Br
ATOM      2 CL   UNL     1     -21.826  -0.902   8.989  0.00  0.00    +0.000 Cl
ATOM      3 CL   UNL     1     -24.834  -1.969  10.178  0.00  0.00    +0.000 Cl
ATOM      4  C   UNL     1     -21.892  -4.284   7.153  0.00  0.00    +0.000 C 
ATOM      5  C   UNL     1     -22.175  -2.852   7.302  0.00  0.00    +0.000 C 
ATOM      6  C   UNL     1     -22.972  -1.864   8.023  0.00  0.00    +0.000 C 
ATOM      7  C   UNL     1     -22.873  -4.967   8.139  0.00  0.00    +0.000 C 
ATOM      8  C   UNL     1     -23.907  -2.678   8.928  0.00  0.00    +0.000 C 
ATOM      9  C   UNL     1     -23.725  -4.091   8.874  0.00  0.00    +0.000 C 
ATOM     10  C   UNL     1     -22.213  -4.742   5.713  0.00  0.00    +0.000 C 
ATOM     11  C   UNL     1     -23.745  -0.924   7.092  0.00  0.00    +0.000 C 
ENDROOT
BRANCH   4  13
ATOM     12 CL   UNL     1     -17.707  -5.146   8.293  0.00  0.00    +0.000 Cl
ATOM     13  C   UNL     1     -20.502  -4.577   7.535  0.00  0.00    +0.000 C 
ATOM     14  C   UNL     1     -19.366  -4.813   7.845  0.00  0.00    +0.000 C 
ENDBRANCH   4  13
TORSDOF 1
ENDMDL
