MODEL 1
REMARK VINA RESULT:      -7.9      0.000      0.000
REMARK  Name = 222284_BetaSitosterol.pdbqt.pdb
REMARK  5 active torsions:
REMARK  status: ('A' for Active; 'I' for Inactive)
REMARK    1  A    between atoms: C_5  and  C_22
REMARK    2  A    between atoms: C_19  and  O_20
REMARK    3  A    between atoms: C_22  and  C_24
REMARK    4  A    between atoms: C_25  and  C_26
REMARK    5  A    between atoms: C_26  and  C_30
REMARK                            x       y       z     vdW  Elec       q    Type
REMARK                         _______ _______ _______ _____ _____    ______ ____
ROOT
ATOM      1  C   UNL     1      -8.182  -0.059  22.501  0.00  0.00    +0.000 C 
ATOM      2  C   UNL     1      -7.578  -1.553  22.464  0.00  0.00    +0.000 C 
ATOM      3  C   UNL     1      -8.187  -2.625  21.650  0.00  0.00    +0.000 C 
ATOM      4  C   UNL     1      -9.217  -2.435  20.564  0.00  0.00    +0.000 C 
ATOM      5  C   UNL     1      -6.950   0.829  22.427  0.00  0.00    +0.000 C 
ATOM      6  C   UNL     1      -9.047   0.032  21.323  0.00  0.00    +0.000 C 
ATOM      7  C   UNL     1      -9.882  -3.607  19.792  0.00  0.00    +0.000 C 
ATOM      8  C   UNL     1      -6.154  -1.433  22.532  0.00  0.00    +0.000 C 
ATOM      9  C   UNL     1      -9.561  -1.063  20.420  0.00  0.00    +0.000 C 
ATOM     10  C   UNL     1      -5.776   0.022  22.467  0.00  0.00    +0.000 C 
ATOM     11  C   UNL     1      -7.733  -3.963  21.744  0.00  0.00    +0.000 C 
ATOM     12  C   UNL     1      -8.935   0.125  23.844  0.00  0.00    +0.000 C 
ATOM     13  C   UNL     1      -9.073  -5.042  19.923  0.00  0.00    +0.000 C 
ATOM     14  C   UNL     1      -9.880  -3.326  18.326  0.00  0.00    +0.000 C 
ATOM     15  C   UNL     1      -8.197  -5.097  20.879  0.00  0.00    +0.000 C 
ATOM     16  C   UNL     1     -11.316  -3.835  20.352  0.00  0.00    +0.000 C 
ATOM     17  C   UNL     1      -8.741  -5.682  18.671  0.00  0.00    +0.000 C 
ATOM     18  C   UNL     1      -9.414  -4.106  17.084  0.00  0.00    +0.000 C 
ATOM     19  C   UNL     1      -8.823  -5.390  17.272  0.00  0.00    +0.000 C 
ENDROOT
BRANCH  19  20
ATOM     20  O   UNL     1      -8.944  -6.372  16.333  0.00  0.00    +0.000 OA
ATOM     21  H   UNL     1      -8.262  -6.293  15.645  0.00  0.00    +0.000 HD
ENDBRANCH  19  20
BRANCH   5  22
ATOM     22  C   UNL     1      -6.975   2.251  22.278  0.00  0.00    +0.000 C 
ATOM     23  C   UNL     1      -7.099   3.185  23.456  0.00  0.00    +0.000 C 
BRANCH  22  24
ATOM     24  C   UNL     1      -6.866   2.881  21.009  0.00  0.00    +0.000 C 
ATOM     25  C   UNL     1      -6.722   3.573  19.646  0.00  0.00    +0.000 C 
BRANCH  25  26
ATOM     26  C   UNL     1      -6.581   4.233  18.387  0.00  0.00    +0.000 C 
ATOM     27  C   UNL     1      -5.296   4.287  17.724  0.00  0.00    +0.000 C 
ATOM     28  C   UNL     1      -4.052   3.644  18.307  0.00  0.00    +0.000 C 
ATOM     29  C   UNL     1      -5.061   5.007  16.414  0.00  0.00    +0.000 C 
BRANCH  26  30
ATOM     30  C   UNL     1      -7.711   4.834  17.772  0.00  0.00    +0.000 C 
ATOM     31  C   UNL     1      -8.944   5.506  17.156  0.00  0.00    +0.000 C 
ENDBRANCH  26  30
ENDBRANCH  25  26
ENDBRANCH  22  24
ENDBRANCH   5  22
TORSDOF 5
ENDMDL
MODEL 2
REMARK VINA RESULT:      -7.6      1.659      2.230
REMARK  Name = 222284_BetaSitosterol.pdbqt.pdb
REMARK  5 active torsions:
REMARK  status: ('A' for Active; 'I' for Inactive)
REMARK    1  A    between atoms: C_5  and  C_22
REMARK    2  A    between atoms: C_19  and  O_20
REMARK    3  A    between atoms: C_22  and  C_24
REMARK    4  A    between atoms: C_25  and  C_26
REMARK    5  A    between atoms: C_26  and  C_30
REMARK                            x       y       z     vdW  Elec       q    Type
REMARK                         _______ _______ _______ _____ _____    ______ ____
ROOT
ATOM      1  C   UNL     1      -8.061   0.033  22.215  0.00  0.00    +0.000 C 
ATOM      2  C   UNL     1      -7.569  -1.496  22.359  0.00  0.00    +0.000 C 
ATOM      3  C   UNL     1      -8.196  -2.596  21.598  0.00  0.00    +0.000 C 
ATOM      4  C   UNL     1      -9.126  -2.440  20.421  0.00  0.00    +0.000 C 
ATOM      5  C   UNL     1      -6.763   0.824  22.161  0.00  0.00    +0.000 C 
ATOM      6  C   UNL     1      -8.827   0.070  20.968  0.00  0.00    +0.000 C 
ATOM      7  C   UNL     1      -9.819  -3.632  19.706  0.00  0.00    +0.000 C 
ATOM      8  C   UNL     1      -6.149  -1.467  22.530  0.00  0.00    +0.000 C 
ATOM      9  C   UNL     1      -9.354  -1.068  20.129  0.00  0.00    +0.000 C 
ATOM     10  C   UNL     1      -5.659  -0.053  22.367  0.00  0.00    +0.000 C 
ATOM     11  C   UNL     1      -7.851  -3.948  21.847  0.00  0.00    +0.000 C 
ATOM     12  C   UNL     1      -8.893   0.393  23.473  0.00  0.00    +0.000 C 
ATOM     13  C   UNL     1      -9.132  -5.099  20.028  0.00  0.00    +0.000 C 
ATOM     14  C   UNL     1      -9.688  -3.492  18.226  0.00  0.00    +0.000 C 
ATOM     15  C   UNL     1      -8.334  -5.123  21.052  0.00  0.00    +0.000 C 
ATOM     16  C   UNL     1     -11.303  -3.708  20.168  0.00  0.00    +0.000 C 
ATOM     17  C   UNL     1      -8.758  -5.876  18.869  0.00  0.00    +0.000 C 
ATOM     18  C   UNL     1      -9.193  -4.415  17.099  0.00  0.00    +0.000 C 
ATOM     19  C   UNL     1      -8.715  -5.713  17.448  0.00  0.00    +0.000 C 
ENDROOT
BRANCH  19  20
ATOM     20  O   UNL     1      -8.840  -6.769  16.593  0.00  0.00    +0.000 OA
ATOM     21  H   UNL     1      -9.670  -7.253  16.743  0.00  0.00    +0.000 HD
ENDBRANCH  19  20
BRANCH   5  22
ATOM     22  C   UNL     1      -6.671   2.224  21.885  0.00  0.00    +0.000 C 
ATOM     23  C   UNL     1      -5.470   3.047  22.276  0.00  0.00    +0.000 C 
BRANCH  22  24
ATOM     24  C   UNL     1      -7.698   2.930  21.203  0.00  0.00    +0.000 C 
ATOM     25  C   UNL     1      -8.789   3.703  20.448  0.00  0.00    +0.000 C 
BRANCH  25  26
ATOM     26  C   UNL     1      -9.792   4.437  19.743  0.00  0.00    +0.000 C 
ATOM     27  C   UNL     1      -9.988   4.239  18.324  0.00  0.00    +0.000 C 
ATOM     28  C   UNL     1      -9.168   3.247  17.520  0.00  0.00    +0.000 C 
ATOM     29  C   UNL     1     -10.996   5.013  17.503  0.00  0.00    +0.000 C 
BRANCH  26  30
ATOM     30  C   UNL     1     -10.612   5.364  20.440  0.00  0.00    +0.000 C 
ATOM     31  C   UNL     1     -11.481   6.342  21.239  0.00  0.00    +0.000 C 
ENDBRANCH  26  30
ENDBRANCH  25  26
ENDBRANCH  22  24
ENDBRANCH   5  22
TORSDOF 5
ENDMDL
MODEL 3
REMARK VINA RESULT:      -7.5      1.795      2.110
REMARK  Name = 222284_BetaSitosterol.pdbqt.pdb
REMARK  5 active torsions:
REMARK  status: ('A' for Active; 'I' for Inactive)
REMARK    1  A    between atoms: C_5  and  C_22
REMARK    2  A    between atoms: C_19  and  O_20
REMARK    3  A    between atoms: C_22  and  C_24
REMARK    4  A    between atoms: C_25  and  C_26
REMARK    5  A    between atoms: C_26  and  C_30
REMARK                            x       y       z     vdW  Elec       q    Type
REMARK                         _______ _______ _______ _____ _____    ______ ____
ROOT
ATOM      1  C   UNL     1      -8.239   0.044  22.158  0.00  0.00    +0.000 C 
ATOM      2  C   UNL     1      -7.703  -1.468  22.325  0.00  0.00    +0.000 C 
ATOM      3  C   UNL     1      -8.288  -2.595  21.570  0.00  0.00    +0.000 C 
ATOM      4  C   UNL     1      -9.209  -2.480  20.381  0.00  0.00    +0.000 C 
ATOM      5  C   UNL     1      -6.965   0.873  22.109  0.00  0.00    +0.000 C 
ATOM      6  C   UNL     1      -8.992   0.044  20.903  0.00  0.00    +0.000 C 
ATOM      7  C   UNL     1      -9.857  -3.700  19.672  0.00  0.00    +0.000 C 
ATOM      8  C   UNL     1      -6.287  -1.394  22.511  0.00  0.00    +0.000 C 
ATOM      9  C   UNL     1      -9.475  -1.118  20.070  0.00  0.00    +0.000 C 
ATOM     10  C   UNL     1      -5.838   0.032  22.337  0.00  0.00    +0.000 C 
ATOM     11  C   UNL     1      -7.905  -3.932  21.837  0.00  0.00    +0.000 C 
ATOM     12  C   UNL     1      -9.096   0.393  23.402  0.00  0.00    +0.000 C 
ATOM     13  C   UNL     1      -9.130  -5.142  20.018  0.00  0.00    +0.000 C 
ATOM     14  C   UNL     1      -9.715  -3.573  18.192  0.00  0.00    +0.000 C 
ATOM     15  C   UNL     1      -8.344  -5.131  21.051  0.00  0.00    +0.000 C 
ATOM     16  C   UNL     1     -11.343  -3.816  20.118  0.00  0.00    +0.000 C 
ATOM     17  C   UNL     1      -8.720  -5.920  18.872  0.00  0.00    +0.000 C 
ATOM     18  C   UNL     1      -9.179  -4.493  17.081  0.00  0.00    +0.000 C 
ATOM     19  C   UNL     1      -8.666  -5.771  17.449  0.00  0.00    +0.000 C 
ENDROOT
BRANCH  19  20
ATOM     20  O   UNL     1      -8.750  -6.840  16.606  0.00  0.00    +0.000 OA
ATOM     21  H   UNL     1      -9.156  -6.594  15.758  0.00  0.00    +0.000 HD
ENDBRANCH  19  20
BRANCH   5  22
ATOM     22  C   UNL     1      -6.912   2.272  21.818  0.00  0.00    +0.000 C 
ATOM     23  C   UNL     1      -8.040   3.212  22.159  0.00  0.00    +0.000 C 
BRANCH  22  24
ATOM     24  C   UNL     1      -5.781   2.875  21.204  0.00  0.00    +0.000 C 
ATOM     25  C   UNL     1      -4.549   3.534  20.567  0.00  0.00    +0.000 C 
BRANCH  25  26
ATOM     26  C   UNL     1      -3.405   4.162  19.986  0.00  0.00    +0.000 C 
ATOM     27  C   UNL     1      -2.281   3.371  19.534  0.00  0.00    +0.000 C 
ATOM     28  C   UNL     1      -2.260   1.857  19.633  0.00  0.00    +0.000 C 
ATOM     29  C   UNL     1      -1.018   3.967  18.953  0.00  0.00    +0.000 C 
BRANCH  26  30
ATOM     30  C   UNL     1      -3.369   5.574  19.840  0.00  0.00    +0.000 C 
ATOM     31  C   UNL     1      -3.312   7.092  19.632  0.00  0.00    +0.000 C 
ENDBRANCH  26  30
ENDBRANCH  25  26
ENDBRANCH  22  24
ENDBRANCH   5  22
TORSDOF 5
ENDMDL
MODEL 4
REMARK VINA RESULT:      -7.3      3.764      9.380
REMARK  Name = 222284_BetaSitosterol.pdbqt.pdb
REMARK  5 active torsions:
REMARK  status: ('A' for Active; 'I' for Inactive)
REMARK    1  A    between atoms: C_5  and  C_22
REMARK    2  A    between atoms: C_19  and  O_20
REMARK    3  A    between atoms: C_22  and  C_24
REMARK    4  A    between atoms: C_25  and  C_26
REMARK    5  A    between atoms: C_26  and  C_30
REMARK                            x       y       z     vdW  Elec       q    Type
REMARK                         _______ _______ _______ _____ _____    ______ ____
ROOT
ATOM      1  C   UNL     1      -8.475  -1.905  22.326  0.00  0.00    +0.000 C 
ATOM      2  C   UNL     1      -8.433  -0.413  21.717  0.00  0.00    +0.000 C 
ATOM      3  C   UNL     1      -7.260   0.469  21.883  0.00  0.00    +0.000 C 
ATOM      4  C   UNL     1      -5.892   0.043  22.353  0.00  0.00    +0.000 C 
ATOM      5  C   UNL     1      -9.095  -2.732  21.210  0.00  0.00    +0.000 C 
ATOM      6  C   UNL     1      -7.077  -2.242  22.603  0.00  0.00    +0.000 C 
ATOM      7  C   UNL     1      -4.714   1.028  22.584  0.00  0.00    +0.000 C 
ATOM      8  C   UNL     1      -9.124  -0.450  20.465  0.00  0.00    +0.000 C 
ATOM      9  C   UNL     1      -5.862  -1.348  22.645  0.00  0.00    +0.000 C 
ATOM     10  C   UNL     1      -9.488  -1.875  20.142  0.00  0.00    +0.000 C 
ATOM     11  C   UNL     1      -7.299   1.824  21.471  0.00  0.00    +0.000 C 
ATOM     12  C   UNL     1      -9.376  -1.888  23.587  0.00  0.00    +0.000 C 
ATOM     13  C   UNL     1      -4.919   2.501  21.865  0.00  0.00    +0.000 C 
ATOM     14  C   UNL     1      -3.466   0.496  21.963  0.00  0.00    +0.000 C 
ATOM     15  C   UNL     1      -6.132   2.765  21.482  0.00  0.00    +0.000 C 
ATOM     16  C   UNL     1      -4.556   1.281  24.112  0.00  0.00    +0.000 C 
ATOM     17  C   UNL     1      -3.838   2.928  21.008  0.00  0.00    +0.000 C 
ATOM     18  C   UNL     1      -2.425   1.069  20.985  0.00  0.00    +0.000 C 
ATOM     19  C   UNL     1      -2.616   2.393  20.491  0.00  0.00    +0.000 C 
ENDROOT
BRANCH  19  20
ATOM     20  O   UNL     1      -1.556   3.188  20.166  0.00  0.00    +0.000 OA
ATOM     21  H   UNL     1      -1.849   4.057  19.841  0.00  0.00    +0.000 HD
ENDBRANCH  19  20
BRANCH   5  22
ATOM     22  C   UNL     1      -9.206  -4.157  21.214  0.00  0.00    +0.000 C 
ATOM     23  C   UNL     1      -8.856  -4.999  20.013  0.00  0.00    +0.000 C 
BRANCH  22  24
ATOM     24  C   UNL     1      -9.635  -4.880  22.361  0.00  0.00    +0.000 C 
ATOM     25  C   UNL     1     -10.096  -5.636  23.615  0.00  0.00    +0.000 C 
BRANCH  25  26
ATOM     26  C   UNL     1     -10.512  -6.331  24.791  0.00  0.00    +0.000 C 
ATOM     27  C   UNL     1     -11.903  -6.340  25.188  0.00  0.00    +0.000 C 
ATOM     28  C   UNL     1     -12.983  -5.642  24.383  0.00  0.00    +0.000 C 
ATOM     29  C   UNL     1     -12.410  -7.014  26.444  0.00  0.00    +0.000 C 
BRANCH  26  30
ATOM     30  C   UNL     1      -9.557  -7.028  25.578  0.00  0.00    +0.000 C 
ATOM     31  C   UNL     1      -8.487  -7.745  26.410  0.00  0.00    +0.000 C 
ENDBRANCH  26  30
ENDBRANCH  25  26
ENDBRANCH  22  24
ENDBRANCH   5  22
TORSDOF 5
ENDMDL
MODEL 5
REMARK VINA RESULT:      -6.7     16.427     20.244
REMARK  Name = 222284_BetaSitosterol.pdbqt.pdb
REMARK  5 active torsions:
REMARK  status: ('A' for Active; 'I' for Inactive)
REMARK    1  A    between atoms: C_5  and  C_22
REMARK    2  A    between atoms: C_19  and  O_20
REMARK    3  A    between atoms: C_22  and  C_24
REMARK    4  A    between atoms: C_25  and  C_26
REMARK    5  A    between atoms: C_26  and  C_30
REMARK                            x       y       z     vdW  Elec       q    Type
REMARK                         _______ _______ _______ _____ _____    ______ ____
ROOT
ATOM      1  C   UNL     1     -13.363 -18.960  15.019  0.00  0.00    +0.000 C 
ATOM      2  C   UNL     1     -13.164 -19.725  13.613  0.00  0.00    +0.000 C 
ATOM      3  C   UNL     1     -12.862 -19.000  12.363  0.00  0.00    +0.000 C 
ATOM      4  C   UNL     1     -12.420 -17.561  12.258  0.00  0.00    +0.000 C 
ATOM      5  C   UNL     1     -12.606 -19.829  16.011  0.00  0.00    +0.000 C 
ATOM      6  C   UNL     1     -12.768 -17.637  14.820  0.00  0.00    +0.000 C 
ATOM      7  C   UNL     1     -12.191 -16.826  10.910  0.00  0.00    +0.000 C 
ATOM      8  C   UNL     1     -12.504 -20.962  13.898  0.00  0.00    +0.000 C 
ATOM      9  C   UNL     1     -12.344 -16.956  13.542  0.00  0.00    +0.000 C 
ATOM     10  C   UNL     1     -12.129 -21.000  15.355  0.00  0.00    +0.000 C 
ATOM     11  C   UNL     1     -12.837 -19.671  11.115  0.00  0.00    +0.000 C 
ATOM     12  C   UNL     1     -14.880 -18.923  15.339  0.00  0.00    +0.000 C 
ATOM     13  C   UNL     1     -12.030 -17.836   9.613  0.00  0.00    +0.000 C 
ATOM     14  C   UNL     1     -10.900 -16.078  10.943  0.00  0.00    +0.000 C 
ATOM     15  C   UNL     1     -12.424 -19.058   9.812  0.00  0.00    +0.000 C 
ATOM     16  C   UNL     1     -13.408 -15.900  10.623  0.00  0.00    +0.000 C 
ATOM     17  C   UNL     1     -10.843 -17.636   8.815  0.00  0.00    +0.000 C 
ATOM     18  C   UNL     1      -9.667 -16.021  10.025  0.00  0.00    +0.000 C 
ATOM     19  C   UNL     1      -9.651 -16.846   8.862  0.00  0.00    +0.000 C 
ENDROOT
BRANCH  19  20
ATOM     20  O   UNL     1      -8.989 -16.465   7.731  0.00  0.00    +0.000 OA
ATOM     21  H   UNL     1      -8.272 -17.084   7.512  0.00  0.00    +0.000 HD
ENDBRANCH  19  20
BRANCH   5  22
ATOM     22  C   UNL     1     -12.362 -19.487  17.378  0.00  0.00    +0.000 C 
ATOM     23  C   UNL     1     -13.473 -19.364  18.390  0.00  0.00    +0.000 C 
BRANCH  22  24
ATOM     24  C   UNL     1     -11.052 -19.258  17.879  0.00  0.00    +0.000 C 
ATOM     25  C   UNL     1      -9.629 -19.037  18.413  0.00  0.00    +0.000 C 
BRANCH  25  26
ATOM     26  C   UNL     1      -8.306 -18.849  18.917  0.00  0.00    +0.000 C 
ATOM     27  C   UNL     1      -7.358 -19.942  18.921  0.00  0.00    +0.000 C 
ATOM     28  C   UNL     1      -7.701 -21.318  18.383  0.00  0.00    +0.000 C 
ATOM     29  C   UNL     1      -5.957 -19.832  19.481  0.00  0.00    +0.000 C 
BRANCH  26  30
ATOM     30  C   UNL     1      -7.911 -17.579  19.413  0.00  0.00    +0.000 C 
ATOM     31  C   UNL     1      -7.434 -16.215  19.925  0.00  0.00    +0.000 C 
ENDBRANCH  26  30
ENDBRANCH  25  26
ENDBRANCH  22  24
ENDBRANCH   5  22
TORSDOF 5
ENDMDL
MODEL 6
REMARK VINA RESULT:      -6.6      3.234      5.650
REMARK  Name = 222284_BetaSitosterol.pdbqt.pdb
REMARK  5 active torsions:
REMARK  status: ('A' for Active; 'I' for Inactive)
REMARK    1  A    between atoms: C_5  and  C_22
REMARK    2  A    between atoms: C_19  and  O_20
REMARK    3  A    between atoms: C_22  and  C_24
REMARK    4  A    between atoms: C_25  and  C_26
REMARK    5  A    between atoms: C_26  and  C_30
REMARK                            x       y       z     vdW  Elec       q    Type
REMARK                         _______ _______ _______ _____ _____    ______ ____
ROOT
ATOM      1  C   UNL     1      -9.104   0.284  21.260  0.00  0.00    +0.000 C 
ATOM      2  C   UNL     1     -10.416  -0.023  22.145  0.00  0.00    +0.000 C 
ATOM      3  C   UNL     1     -10.910  -1.398  22.364  0.00  0.00    +0.000 C 
ATOM      4  C   UNL     1     -10.150  -2.668  22.071  0.00  0.00    +0.000 C 
ATOM      5  C   UNL     1      -8.366   1.342  22.066  0.00  0.00    +0.000 C 
ATOM      6  C   UNL     1      -8.395  -0.994  21.174  0.00  0.00    +0.000 C 
ATOM      7  C   UNL     1     -10.748  -4.090  22.248  0.00  0.00    +0.000 C 
ATOM      8  C   UNL     1     -10.425   0.917  23.223  0.00  0.00    +0.000 C 
ATOM      9  C   UNL     1      -8.870  -2.383  21.523  0.00  0.00    +0.000 C 
ATOM     10  C   UNL     1      -9.152   1.719  23.193  0.00  0.00    +0.000 C 
ATOM     11  C   UNL     1     -12.143  -1.637  23.019  0.00  0.00    +0.000 C 
ATOM     12  C   UNL     1      -9.566   0.837  19.887  0.00  0.00    +0.000 C 
ATOM     13  C   UNL     1     -12.103  -4.136  23.192  0.00  0.00    +0.000 C 
ATOM     14  C   UNL     1      -9.781  -4.971  22.966  0.00  0.00    +0.000 C 
ATOM     15  C   UNL     1     -12.673  -2.987  23.398  0.00  0.00    +0.000 C 
ATOM     16  C   UNL     1     -11.142  -4.653  20.852  0.00  0.00    +0.000 C 
ATOM     17  C   UNL     1     -12.058  -5.069  24.294  0.00  0.00    +0.000 C 
ATOM     18  C   UNL     1      -9.870  -5.879  24.205  0.00  0.00    +0.000 C 
ATOM     19  C   UNL     1     -11.110  -5.949  24.905  0.00  0.00    +0.000 C 
ENDROOT
BRANCH  19  20
ATOM     20  O   UNL     1     -11.491  -7.083  25.562  0.00  0.00    +0.000 OA
ATOM     21  H   UNL     1     -11.629  -6.917  26.509  0.00  0.00    +0.000 HD
ENDBRANCH  19  20
BRANCH   5  22
ATOM     22  C   UNL     1      -7.058   1.833  21.764  0.00  0.00    +0.000 C 
ATOM     23  C   UNL     1      -6.827   3.013  20.854  0.00  0.00    +0.000 C 
BRANCH  22  24
ATOM     24  C   UNL     1      -5.885   1.254  22.319  0.00  0.00    +0.000 C 
ATOM     25  C   UNL     1      -4.603   0.635  22.895  0.00  0.00    +0.000 C 
BRANCH  25  26
ATOM     26  C   UNL     1      -3.407   0.051  23.414  0.00  0.00    +0.000 C 
ATOM     27  C   UNL     1      -2.176   0.100  22.656  0.00  0.00    +0.000 C 
ATOM     28  C   UNL     1      -2.080   0.777  21.302  0.00  0.00    +0.000 C 
ATOM     29  C   UNL     1      -0.883  -0.536  23.118  0.00  0.00    +0.000 C 
BRANCH  26  30
ATOM     30  C   UNL     1      -3.420  -0.578  24.687  0.00  0.00    +0.000 C 
ATOM     31  C   UNL     1      -3.419  -1.208  26.084  0.00  0.00    +0.000 C 
ENDBRANCH  26  30
ENDBRANCH  25  26
ENDBRANCH  22  24
ENDBRANCH   5  22
TORSDOF 5
ENDMDL
MODEL 7
REMARK VINA RESULT:      -6.5     16.383     19.949
REMARK  Name = 222284_BetaSitosterol.pdbqt.pdb
REMARK  5 active torsions:
REMARK  status: ('A' for Active; 'I' for Inactive)
REMARK    1  A    between atoms: C_5  and  C_22
REMARK    2  A    between atoms: C_19  and  O_20
REMARK    3  A    between atoms: C_22  and  C_24
REMARK    4  A    between atoms: C_25  and  C_26
REMARK    5  A    between atoms: C_26  and  C_30
REMARK                            x       y       z     vdW  Elec       q    Type
REMARK                         _______ _______ _______ _____ _____    ______ ____
ROOT
ATOM      1  C   UNL     1       5.629  -9.436  13.198  0.00  0.00    +0.000 C 
ATOM      2  C   UNL     1       4.953  -7.993  12.946  0.00  0.00    +0.000 C 
ATOM      3  C   UNL     1       5.739  -6.743  12.980  0.00  0.00    +0.000 C 
ATOM      4  C   UNL     1       7.244  -6.643  12.955  0.00  0.00    +0.000 C 
ATOM      5  C   UNL     1       4.992 -10.321  12.137  0.00  0.00    +0.000 C 
ATOM      6  C   UNL     1       7.064  -9.223  13.004  0.00  0.00    +0.000 C 
ATOM      7  C   UNL     1       8.021  -5.304  13.071  0.00  0.00    +0.000 C 
ATOM      8  C   UNL     1       3.940  -8.171  11.952  0.00  0.00    +0.000 C 
ATOM      9  C   UNL     1       7.841  -7.933  12.912  0.00  0.00    +0.000 C 
ATOM     10  C   UNL     1       3.997  -9.583  11.433  0.00  0.00    +0.000 C 
ATOM     11  C   UNL     1       5.106  -5.479  12.904  0.00  0.00    +0.000 C 
ATOM     12  C   UNL     1       5.252  -9.904  14.627  0.00  0.00    +0.000 C 
ATOM     13  C   UNL     1       7.098  -3.965  12.779  0.00  0.00    +0.000 C 
ATOM     14  C   UNL     1       9.091  -5.235  12.032  0.00  0.00    +0.000 C 
ATOM     15  C   UNL     1       5.815  -4.161  12.807  0.00  0.00    +0.000 C 
ATOM     16  C   UNL     1       8.584  -5.167  14.515  0.00  0.00    +0.000 C 
ATOM     17  C   UNL     1       7.616  -3.062  11.777  0.00  0.00    +0.000 C 
ATOM     18  C   UNL     1       9.483  -4.203  10.961  0.00  0.00    +0.000 C 
ATOM     19  C   UNL     1       8.700  -3.018  10.843  0.00  0.00    +0.000 C 
ENDROOT
BRANCH  19  20
ATOM     20  O   UNL     1       9.251  -1.841  10.428  0.00  0.00    +0.000 OA
ATOM     21  H   UNL     1      10.221  -1.892  10.399  0.00  0.00    +0.000 HD
ENDBRANCH  19  20
BRANCH   5  22
ATOM     22  C   UNL     1       5.381 -11.667  11.855  0.00  0.00    +0.000 C 
ATOM     23  C   UNL     1       6.629 -12.002  11.079  0.00  0.00    +0.000 C 
BRANCH  22  24
ATOM     24  C   UNL     1       4.626 -12.784  12.307  0.00  0.00    +0.000 C 
ATOM     25  C   UNL     1       3.812 -13.980  12.822  0.00  0.00    +0.000 C 
BRANCH  25  26
ATOM     26  C   UNL     1       3.067 -15.094  13.316  0.00  0.00    +0.000 C 
ATOM     27  C   UNL     1       2.906 -15.299  14.739  0.00  0.00    +0.000 C 
ATOM     28  C   UNL     1       3.491 -14.351  15.768  0.00  0.00    +0.000 C 
ATOM     29  C   UNL     1       2.172 -16.479  15.336  0.00  0.00    +0.000 C 
BRANCH  26  30
ATOM     30  C   UNL     1       2.471 -16.007  12.406  0.00  0.00    +0.000 C 
ATOM     31  C   UNL     1       1.781 -16.990  11.453  0.00  0.00    +0.000 C 
ENDBRANCH  26  30
ENDBRANCH  25  26
ENDBRANCH  22  24
ENDBRANCH   5  22
TORSDOF 5
ENDMDL
MODEL 8
REMARK VINA RESULT:      -6.5     15.257     19.685
REMARK  Name = 222284_BetaSitosterol.pdbqt.pdb
REMARK  5 active torsions:
REMARK  status: ('A' for Active; 'I' for Inactive)
REMARK    1  A    between atoms: C_5  and  C_22
REMARK    2  A    between atoms: C_19  and  O_20
REMARK    3  A    between atoms: C_22  and  C_24
REMARK    4  A    between atoms: C_25  and  C_26
REMARK    5  A    between atoms: C_26  and  C_30
REMARK                            x       y       z     vdW  Elec       q    Type
REMARK                         _______ _______ _______ _____ _____    ______ ____
ROOT
ATOM      1  C   UNL     1     -23.427  -3.712   8.955  0.00  0.00    +0.000 C 
ATOM      2  C   UNL     1     -23.066  -2.368   8.139  0.00  0.00    +0.000 C 
ATOM      3  C   UNL     1     -22.769  -1.093   8.823  0.00  0.00    +0.000 C 
ATOM      4  C   UNL     1     -22.477  -0.924  10.293  0.00  0.00    +0.000 C 
ATOM      5  C   UNL     1     -22.642  -4.794   8.229  0.00  0.00    +0.000 C 
ATOM      6  C   UNL     1     -22.965  -3.464  10.321  0.00  0.00    +0.000 C 
ATOM      7  C   UNL     1     -22.247   0.453  10.973  0.00  0.00    +0.000 C 
ATOM      8  C   UNL     1     -22.297  -2.762   6.999  0.00  0.00    +0.000 C 
ATOM      9  C   UNL     1     -22.540  -2.171  10.973  0.00  0.00    +0.000 C 
ATOM     10  C   UNL     1     -22.006  -4.237   7.083  0.00  0.00    +0.000 C 
ATOM     11  C   UNL     1     -22.600   0.108   8.090  0.00  0.00    +0.000 C 
ATOM     12  C   UNL     1     -24.955  -3.949   8.844  0.00  0.00    +0.000 C 
ATOM     13  C   UNL     1     -21.905   1.676   9.916  0.00  0.00    +0.000 C 
ATOM     14  C   UNL     1     -21.047   0.398  11.858  0.00  0.00    +0.000 C 
ATOM     15  C   UNL     1     -22.178   1.423   8.671  0.00  0.00    +0.000 C 
ATOM     16  C   UNL     1     -23.536   0.860  11.744  0.00  0.00    +0.000 C 
ATOM     17  C   UNL     1     -20.700   2.421  10.200  0.00  0.00    +0.000 C 
ATOM     18  C   UNL     1     -19.775   1.252  11.997  0.00  0.00    +0.000 C 
ATOM     19  C   UNL     1     -19.603   2.360  11.116  0.00  0.00    +0.000 C 
ENDROOT
BRANCH  19  20
ATOM     20  O   UNL     1     -18.920   3.476  11.504  0.00  0.00    +0.000 OA
ATOM     21  H   UNL     1     -18.431   3.325  12.330  0.00  0.00    +0.000 HD
ENDBRANCH  19  20
BRANCH   5  22
ATOM     22  C   UNL     1     -22.516  -6.148   8.672  0.00  0.00    +0.000 C 
ATOM     23  C   UNL     1     -21.937  -7.233   7.800  0.00  0.00    +0.000 C 
BRANCH  22  24
ATOM     24  C   UNL     1     -22.912  -6.559   9.973  0.00  0.00    +0.000 C 
ATOM     25  C   UNL     1     -23.340  -6.975  11.388  0.00  0.00    +0.000 C 
BRANCH  25  26
ATOM     26  C   UNL     1     -23.724  -7.351  12.712  0.00  0.00    +0.000 C 
ATOM     27  C   UNL     1     -23.004  -6.843  13.859  0.00  0.00    +0.000 C 
ATOM     28  C   UNL     1     -21.834  -5.887  13.727  0.00  0.00    +0.000 C 
ATOM     29  C   UNL     1     -23.323  -7.232  15.286  0.00  0.00    +0.000 C 
BRANCH  26  30
ATOM     30  C   UNL     1     -24.827  -8.223  12.909  0.00  0.00    +0.000 C 
ATOM     31  C   UNL     1     -26.041  -9.145  13.076  0.00  0.00    +0.000 C 
ENDBRANCH  26  30
ENDBRANCH  25  26
ENDBRANCH  22  24
ENDBRANCH   5  22
TORSDOF 5
ENDMDL
MODEL 9
REMARK VINA RESULT:      -6.5      3.684      5.203
REMARK  Name = 222284_BetaSitosterol.pdbqt.pdb
REMARK  5 active torsions:
REMARK  status: ('A' for Active; 'I' for Inactive)
REMARK    1  A    between atoms: C_5  and  C_22
REMARK    2  A    between atoms: C_19  and  O_20
REMARK    3  A    between atoms: C_22  and  C_24
REMARK    4  A    between atoms: C_25  and  C_26
REMARK    5  A    between atoms: C_26  and  C_30
REMARK                            x       y       z     vdW  Elec       q    Type
REMARK                         _______ _______ _______ _____ _____    ______ ____
ROOT
ATOM      1  C   UNL     1      -7.453  -1.333  22.534  0.00  0.00    +0.000 C 
ATOM      2  C   UNL     1      -8.340  -2.500  21.863  0.00  0.00    +0.000 C 
ATOM      3  C   UNL     1      -8.996  -3.549  22.670  0.00  0.00    +0.000 C 
ATOM      4  C   UNL     1      -9.181  -3.527  24.167  0.00  0.00    +0.000 C 
ATOM      5  C   UNL     1      -7.877  -0.081  21.782  0.00  0.00    +0.000 C 
ATOM      6  C   UNL     1      -7.834  -1.330  23.947  0.00  0.00    +0.000 C 
ATOM      7  C   UNL     1      -9.810  -4.695  24.974  0.00  0.00    +0.000 C 
ATOM      8  C   UNL     1      -9.032  -1.917  20.754  0.00  0.00    +0.000 C 
ATOM      9  C   UNL     1      -8.618  -2.352  24.735  0.00  0.00    +0.000 C 
ATOM     10  C   UNL     1      -8.778  -0.434  20.737  0.00  0.00    +0.000 C 
ATOM     11  C   UNL     1      -9.646  -4.646  22.055  0.00  0.00    +0.000 C 
ATOM     12  C   UNL     1      -5.957  -1.662  22.290  0.00  0.00    +0.000 C 
ATOM     13  C   UNL     1     -10.662  -5.768  24.051  0.00  0.00    +0.000 C 
ATOM     14  C   UNL     1     -10.820  -4.171  25.939  0.00  0.00    +0.000 C 
ATOM     15  C   UNL     1     -10.443  -5.694  22.773  0.00  0.00    +0.000 C 
ATOM     16  C   UNL     1      -8.675  -5.495  25.678  0.00  0.00    +0.000 C 
ATOM     17  C   UNL     1     -12.017  -6.019  24.485  0.00  0.00    +0.000 C 
ATOM     18  C   UNL     1     -12.290  -4.507  26.244  0.00  0.00    +0.000 C 
ATOM     19  C   UNL     1     -12.926  -5.525  25.473  0.00  0.00    +0.000 C 
ENDROOT
BRANCH  19  20
ATOM     20  O   UNL     1     -13.914  -6.302  26.002  0.00  0.00    +0.000 OA
ATOM     21  H   UNL     1     -14.795  -5.999  25.722  0.00  0.00    +0.000 HD
ENDBRANCH  19  20
BRANCH   5  22
ATOM     22  C   UNL     1      -7.476   1.249  22.118  0.00  0.00    +0.000 C 
ATOM     23  C   UNL     1      -8.412   2.236  22.770  0.00  0.00    +0.000 C 
BRANCH  22  24
ATOM     24  C   UNL     1      -6.158   1.726  21.879  0.00  0.00    +0.000 C 
ATOM     25  C   UNL     1      -4.733   2.223  21.598  0.00  0.00    +0.000 C 
BRANCH  25  26
ATOM     26  C   UNL     1      -3.401   2.668  21.334  0.00  0.00    +0.000 C 
ATOM     27  C   UNL     1      -2.299   1.731  21.335  0.00  0.00    +0.000 C 
ATOM     28  C   UNL     1      -2.492   0.248  21.592  0.00  0.00    +0.000 C 
ATOM     29  C   UNL     1      -0.858   2.134  21.110  0.00  0.00    +0.000 C 
BRANCH  26  30
ATOM     30  C   UNL     1      -3.153   4.039  21.061  0.00  0.00    +0.000 C 
ATOM     31  C   UNL     1      -2.887   5.529  20.819  0.00  0.00    +0.000 C 
ENDBRANCH  26  30
ENDBRANCH  25  26
ENDBRANCH  22  24
ENDBRANCH   5  22
TORSDOF 5
ENDMDL
