MODEL 1
REMARK VINA RESULT:      -6.2      0.000      0.000
REMARK  Name = 25023738_BI-D-1870.pdbqt.pdb
REMARK  4 active torsions:
REMARK  status: ('A' for Active; 'I' for Inactive)
REMARK    1  A    between atoms: N_2  and  C_26
REMARK    2  A    between atoms: N_14  and  C_16
REMARK    3  A    between atoms: C_20  and  O_24
REMARK    4  A    between atoms: C_27  and  C_28
REMARK                            x       y       z     vdW  Elec       q    Type
REMARK                         _______ _______ _______ _____ _____    ______ ____
ROOT
ATOM      1  O   UNL     1       1.608 -18.218  17.941  0.00  0.00    +0.000 OA
ATOM      2  N   UNL     1       2.941 -15.236  16.385  0.00  0.00    +0.000 N 
ATOM      3  N   UNL     1       1.815 -17.720  15.674  0.00  0.00    +0.000 N 
ATOM      4  N   UNL     1       3.174 -14.681  14.076  0.00  0.00    +0.000 NA
ATOM      5  N   UNL     1       2.500 -16.146  12.375  0.00  0.00    +0.000 NA
ATOM      6  C   UNL     1       2.561 -16.098  17.391  0.00  0.00    +0.000 C 
ATOM      7  C   UNL     1       2.783 -15.565  15.022  0.00  0.00    +0.000 A 
ATOM      8  C   UNL     1       1.954 -17.437  17.050  0.00  0.00    +0.000 C 
ATOM      9  C   UNL     1       2.231 -16.783  14.690  0.00  0.00    +0.000 A 
ATOM     10  C   UNL     1       2.753 -15.698  18.850  0.00  0.00    +0.000 C 
ATOM     11  C   UNL     1       1.251 -18.961  15.152  0.00  0.00    +0.000 C 
ATOM     12  C   UNL     1       2.118 -17.008  13.335  0.00  0.00    +0.000 A 
ATOM     13  C   UNL     1       3.024 -14.991  12.780  0.00  0.00    +0.000 A 
ATOM     14  N   UNL     1       3.413 -14.110  11.779  0.00  0.00    +0.000 N 
ATOM     15  H   UNL     1       3.230 -14.500  10.863  0.00  0.00    +0.000 HD
ENDROOT
BRANCH  14  16
ATOM     16  C   UNL     1       3.986 -12.835  11.838  0.00  0.00    +0.000 A 
ATOM     17  C   UNL     1       5.378 -12.707  11.748  0.00  0.00    +0.000 A 
ATOM     18  C   UNL     1       5.985 -11.453  11.802  0.00  0.00    +0.000 A 
ATOM     19  F   UNL     1       7.320 -11.372  11.712  0.00  0.00    +0.000 F 
ATOM     20  C   UNL     1       5.217 -10.305  11.947  0.00  0.00    +0.000 A 
ATOM     21  C   UNL     1       3.837 -10.424  12.037  0.00  0.00    +0.000 A 
ATOM     22  F   UNL     1       3.085  -9.322  12.176  0.00  0.00    +0.000 F 
ATOM     23  C   UNL     1       3.225 -11.672  11.983  0.00  0.00    +0.000 A 
BRANCH  20  24
ATOM     24  O   UNL     1       5.818  -9.079  11.999  0.00  0.00    +0.000 OA
ATOM     25  H   UNL     1       5.184  -8.418  11.662  0.00  0.00    +0.000 HD
ENDBRANCH  20  24
ENDBRANCH  14  16
BRANCH   2  26
ATOM     26  C   UNL     1       3.531 -13.940  16.710  0.00  0.00    +0.000 C 
ATOM     27  C   UNL     1       4.154 -12.582  17.051  0.00  0.00    +0.000 C 
BRANCH  27  28
ATOM     28  C   UNL     1       4.724 -11.328  17.366  0.00  0.00    +0.000 C 
ATOM     29  C   UNL     1       5.245 -10.449  16.270  0.00  0.00    +0.000 C 
ATOM     30  C   UNL     1       4.853 -10.904  18.796  0.00  0.00    +0.000 C 
ENDBRANCH  27  28
ENDBRANCH   2  26
TORSDOF 4
ENDMDL
MODEL 2
REMARK VINA RESULT:      -5.9     20.299     22.642
REMARK  Name = 25023738_BI-D-1870.pdbqt.pdb
REMARK  4 active torsions:
REMARK  status: ('A' for Active; 'I' for Inactive)
REMARK    1  A    between atoms: N_2  and  C_26
REMARK    2  A    between atoms: N_14  and  C_16
REMARK    3  A    between atoms: C_20  and  O_24
REMARK    4  A    between atoms: C_27  and  C_28
REMARK                            x       y       z     vdW  Elec       q    Type
REMARK                         _______ _______ _______ _____ _____    ______ ____
ROOT
ATOM      1  O   UNL     1      -9.678   4.055  21.672  0.00  0.00    +0.000 OA
ATOM      2  N   UNL     1     -10.382   0.524  22.028  0.00  0.00    +0.000 N 
ATOM      3  N   UNL     1     -11.153   2.999  23.133  0.00  0.00    +0.000 N 
ATOM      4  N   UNL     1     -11.878  -0.603  23.505  0.00  0.00    +0.000 NA
ATOM      5  N   UNL     1     -13.200   0.558  25.053  0.00  0.00    +0.000 NA
ATOM      6  C   UNL     1      -9.801   1.673  21.536  0.00  0.00    +0.000 C 
ATOM      7  C   UNL     1     -11.341   0.557  23.061  0.00  0.00    +0.000 A 
ATOM      8  C   UNL     1     -10.189   3.017  22.103  0.00  0.00    +0.000 C 
ATOM      9  C   UNL     1     -11.709   1.773  23.591  0.00  0.00    +0.000 A 
ATOM     10  C   UNL     1      -8.767   1.588  20.419  0.00  0.00    +0.000 C 
ATOM     11  C   UNL     1     -11.652   4.196  23.802  0.00  0.00    +0.000 C 
ATOM     12  C   UNL     1     -12.651   1.698  24.594  0.00  0.00    +0.000 A 
ATOM     13  C   UNL     1     -12.791  -0.576  24.487  0.00  0.00    +0.000 A 
ATOM     14  N   UNL     1     -13.365  -1.744  24.970  0.00  0.00    +0.000 N 
ATOM     15  H   UNL     1     -14.030  -1.544  25.706  0.00  0.00    +0.000 HD
ENDROOT
BRANCH  14  16
ATOM     16  C   UNL     1     -13.178  -3.084  24.614  0.00  0.00    +0.000 A 
ATOM     17  C   UNL     1     -13.471  -4.086  25.550  0.00  0.00    +0.000 A 
ATOM     18  C   UNL     1     -13.298  -5.432  25.231  0.00  0.00    +0.000 A 
ATOM     19  F   UNL     1     -13.589  -6.361  26.154  0.00  0.00    +0.000 F 
ATOM     20  C   UNL     1     -12.829  -5.805  23.979  0.00  0.00    +0.000 A 
ATOM     21  C   UNL     1     -12.536  -4.819  23.048  0.00  0.00    +0.000 A 
ATOM     22  F   UNL     1     -12.085  -5.167  21.834  0.00  0.00    +0.000 F 
ATOM     23  C   UNL     1     -12.708  -3.473  23.357  0.00  0.00    +0.000 A 
BRANCH  20  24
ATOM     24  O   UNL     1     -12.661  -7.127  23.674  0.00  0.00    +0.000 OA
ATOM     25  H   UNL     1     -12.232  -7.560  24.437  0.00  0.00    +0.000 HD
ENDBRANCH  20  24
ENDBRANCH  14  16
BRANCH   2  26
ATOM     26  C   UNL     1     -10.008  -0.779  21.483  0.00  0.00    +0.000 C 
ATOM     27  C   UNL     1      -9.614  -2.148  20.916  0.00  0.00    +0.000 C 
BRANCH  27  28
ATOM     28  C   UNL     1      -9.253  -3.408  20.390  0.00  0.00    +0.000 C 
ATOM     29  C   UNL     1      -9.835  -3.867  19.087  0.00  0.00    +0.000 C 
ATOM     30  C   UNL     1      -8.332  -4.303  21.160  0.00  0.00    +0.000 C 
ENDBRANCH  27  28
ENDBRANCH   2  26
TORSDOF 4
ENDMDL
MODEL 3
REMARK VINA RESULT:      -5.6     19.450     20.976
REMARK  Name = 25023738_BI-D-1870.pdbqt.pdb
REMARK  4 active torsions:
REMARK  status: ('A' for Active; 'I' for Inactive)
REMARK    1  A    between atoms: N_2  and  C_26
REMARK    2  A    between atoms: N_14  and  C_16
REMARK    3  A    between atoms: C_20  and  O_24
REMARK    4  A    between atoms: C_27  and  C_28
REMARK                            x       y       z     vdW  Elec       q    Type
REMARK                         _______ _______ _______ _____ _____    ______ ____
ROOT
ATOM      1  O   UNL     1     -13.707   0.550  26.973  0.00  0.00    +0.000 OA
ATOM      2  N   UNL     1     -11.985  -0.622  24.014  0.00  0.00    +0.000 N 
ATOM      3  N   UNL     1     -13.687  -1.586  26.044  0.00  0.00    +0.000 N 
ATOM      4  N   UNL     1     -11.933  -2.793  23.026  0.00  0.00    +0.000 NA
ATOM      5  N   UNL     1     -13.107  -4.602  23.945  0.00  0.00    +0.000 NA
ATOM      6  C   UNL     1     -12.408   0.255  24.990  0.00  0.00    +0.000 C 
ATOM      7  C   UNL     1     -12.379  -1.977  24.008  0.00  0.00    +0.000 A 
ATOM      8  C   UNL     1     -13.320  -0.225  26.093  0.00  0.00    +0.000 C 
ATOM      9  C   UNL     1     -13.210  -2.434  25.006  0.00  0.00    +0.000 A 
ATOM     10  C   UNL     1     -11.955   1.710  24.955  0.00  0.00    +0.000 C 
ATOM     11  C   UNL     1     -14.559  -2.230  27.021  0.00  0.00    +0.000 C 
ATOM     12  C   UNL     1     -13.537  -3.769  24.911  0.00  0.00    +0.000 A 
ATOM     13  C   UNL     1     -12.306  -4.081  23.017  0.00  0.00    +0.000 A 
ATOM     14  N   UNL     1     -11.870  -4.951  22.026  0.00  0.00    +0.000 N 
ATOM     15  H   UNL     1     -12.244  -5.881  22.170  0.00  0.00    +0.000 HD
ENDROOT
BRANCH  14  16
ATOM     16  C   UNL     1     -11.040  -4.751  20.917  0.00  0.00    +0.000 A 
ATOM     17  C   UNL     1      -9.861  -5.501  20.803  0.00  0.00    +0.000 A 
ATOM     18  C   UNL     1      -9.010  -5.330  19.712  0.00  0.00    +0.000 A 
ATOM     19  F   UNL     1      -7.892  -6.066  19.639  0.00  0.00    +0.000 F 
ATOM     20  C   UNL     1      -9.316  -4.411  18.717  0.00  0.00    +0.000 A 
ATOM     21  C   UNL     1     -10.481  -3.664  18.824  0.00  0.00    +0.000 A 
ATOM     22  F   UNL     1     -10.787  -2.774  17.869  0.00  0.00    +0.000 F 
ATOM     23  C   UNL     1     -11.336  -3.830  19.909  0.00  0.00    +0.000 A 
BRANCH  20  24
ATOM     24  O   UNL     1      -8.477  -4.248  17.651  0.00  0.00    +0.000 OA
ATOM     25  H   UNL     1      -7.715  -3.712  17.946  0.00  0.00    +0.000 HD
ENDBRANCH  20  24
ENDBRANCH  14  16
BRANCH   2  26
ATOM     26  C   UNL     1     -11.101  -0.163  22.946  0.00  0.00    +0.000 C 
ATOM     27  C   UNL     1     -10.172   0.323  21.827  0.00  0.00    +0.000 C 
BRANCH  27  28
ATOM     28  C   UNL     1      -9.317   0.766  20.794  0.00  0.00    +0.000 C 
ATOM     29  C   UNL     1      -8.002   1.398  21.134  0.00  0.00    +0.000 C 
ATOM     30  C   UNL     1      -9.751   0.651  19.365  0.00  0.00    +0.000 C 
ENDBRANCH  27  28
ENDBRANCH   2  26
TORSDOF 4
ENDMDL
MODEL 4
REMARK VINA RESULT:      -5.6     17.380     19.931
REMARK  Name = 25023738_BI-D-1870.pdbqt.pdb
REMARK  4 active torsions:
REMARK  status: ('A' for Active; 'I' for Inactive)
REMARK    1  A    between atoms: N_2  and  C_26
REMARK    2  A    between atoms: N_14  and  C_16
REMARK    3  A    between atoms: C_20  and  O_24
REMARK    4  A    between atoms: C_27  and  C_28
REMARK                            x       y       z     vdW  Elec       q    Type
REMARK                         _______ _______ _______ _____ _____    ______ ____
ROOT
ATOM      1  O   UNL     1       1.110  -9.027  -2.839  0.00  0.00    +0.000 OA
ATOM      2  N   UNL     1      -2.249  -8.356  -1.676  0.00  0.00    +0.000 N 
ATOM      3  N   UNL     1      -0.919  -9.511  -3.876  0.00  0.00    +0.000 N 
ATOM      4  N   UNL     1      -4.353  -8.830  -2.698  0.00  0.00    +0.000 NA
ATOM      5  N   UNL     1      -4.506  -9.891  -4.782  0.00  0.00    +0.000 NA
ATOM      6  C   UNL     1      -0.871  -8.384  -1.670  0.00  0.00    +0.000 C 
ATOM      7  C   UNL     1      -3.001  -8.884  -2.745  0.00  0.00    +0.000 A 
ATOM      8  C   UNL     1      -0.124  -8.994  -2.831  0.00  0.00    +0.000 C 
ATOM      9  C   UNL     1      -2.338  -9.446  -3.814  0.00  0.00    +0.000 A 
ATOM     10  C   UNL     1      -0.102  -7.798  -0.492  0.00  0.00    +0.000 C 
ATOM     11  C   UNL     1      -0.377 -10.137  -5.077  0.00  0.00    +0.000 C 
ATOM     12  C   UNL     1      -3.162  -9.934  -4.805  0.00  0.00    +0.000 A 
ATOM     13  C   UNL     1      -5.071  -9.332  -3.713  0.00  0.00    +0.000 A 
ATOM     14  N   UNL     1      -6.458  -9.295  -3.701  0.00  0.00    +0.000 N 
ATOM     15  H   UNL     1      -6.839  -9.715  -4.540  0.00  0.00    +0.000 HD
ENDROOT
BRANCH  14  16
ATOM     16  C   UNL     1      -7.365  -8.796  -2.759  0.00  0.00    +0.000 A 
ATOM     17  C   UNL     1      -7.758  -7.453  -2.834  0.00  0.00    +0.000 A 
ATOM     18  C   UNL     1      -8.659  -6.920  -1.914  0.00  0.00    +0.000 A 
ATOM     19  F   UNL     1      -9.010  -5.630  -2.020  0.00  0.00    +0.000 F 
ATOM     20  C   UNL     1      -9.184  -7.713  -0.903  0.00  0.00    +0.000 A 
ATOM     21  C   UNL     1      -8.799  -9.044  -0.821  0.00  0.00    +0.000 A 
ATOM     22  F   UNL     1      -9.300  -9.821   0.151  0.00  0.00    +0.000 F 
ATOM     23  C   UNL     1      -7.901  -9.583  -1.737  0.00  0.00    +0.000 A 
BRANCH  20  24
ATOM     24  O   UNL     1     -10.066  -7.185  -0.003  0.00  0.00    +0.000 OA
ATOM     25  H   UNL     1     -10.904  -7.682  -0.074  0.00  0.00    +0.000 HD
ENDBRANCH  20  24
ENDBRANCH  14  16
BRANCH   2  26
ATOM     26  C   UNL     1      -2.977  -7.764  -0.556  0.00  0.00    +0.000 C 
ATOM     27  C   UNL     1      -3.736  -7.141   0.622  0.00  0.00    +0.000 C 
BRANCH  27  28
ATOM     28  C   UNL     1      -4.441  -6.569   1.704  0.00  0.00    +0.000 C 
ATOM     29  C   UNL     1      -5.307  -7.431   2.570  0.00  0.00    +0.000 C 
ATOM     30  C   UNL     1      -4.360  -5.094   1.951  0.00  0.00    +0.000 C 
ENDBRANCH  27  28
ENDBRANCH   2  26
TORSDOF 4
ENDMDL
MODEL 5
REMARK VINA RESULT:      -5.5     15.332     18.575
REMARK  Name = 25023738_BI-D-1870.pdbqt.pdb
REMARK  4 active torsions:
REMARK  status: ('A' for Active; 'I' for Inactive)
REMARK    1  A    between atoms: N_2  and  C_26
REMARK    2  A    between atoms: N_14  and  C_16
REMARK    3  A    between atoms: C_20  and  O_24
REMARK    4  A    between atoms: C_27  and  C_28
REMARK                            x       y       z     vdW  Elec       q    Type
REMARK                         _______ _______ _______ _____ _____    ______ ____
ROOT
ATOM      1  O   UNL     1      -5.744  -8.681  -3.291  0.00  0.00    +0.000 OA
ATOM      2  N   UNL     1      -3.979  -6.860  -0.711  0.00  0.00    +0.000 N 
ATOM      3  N   UNL     1      -6.138  -6.529  -2.491  0.00  0.00    +0.000 N 
ATOM      4  N   UNL     1      -4.343  -4.661   0.141  0.00  0.00    +0.000 NA
ATOM      5  N   UNL     1      -6.056  -3.285  -0.673  0.00  0.00    +0.000 NA
ATOM      6  C   UNL     1      -4.297  -7.899  -1.559  0.00  0.00    +0.000 C 
ATOM      7  C   UNL     1      -4.699  -5.648  -0.714  0.00  0.00    +0.000 A 
ATOM      8  C   UNL     1      -5.447  -7.758  -2.526  0.00  0.00    +0.000 C 
ATOM      9  C   UNL     1      -5.753  -5.500  -1.589  0.00  0.00    +0.000 A 
ATOM     10  C   UNL     1      -3.487  -9.190  -1.520  0.00  0.00    +0.000 C 
ATOM     11  C   UNL     1      -7.275  -6.209  -3.349  0.00  0.00    +0.000 C 
ATOM     12  C   UNL     1      -6.392  -4.281  -1.513  0.00  0.00    +0.000 A 
ATOM     13  C   UNL     1      -5.026  -3.507   0.141  0.00  0.00    +0.000 A 
ATOM     14  N   UNL     1      -4.691  -2.471   1.002  0.00  0.00    +0.000 N 
ATOM     15  H   UNL     1      -5.306  -1.678   0.871  0.00  0.00    +0.000 HD
ENDROOT
BRANCH  14  16
ATOM     16  C   UNL     1      -3.690  -2.360   1.973  0.00  0.00    +0.000 A 
ATOM     17  C   UNL     1      -2.364  -2.649   1.624  0.00  0.00    +0.000 A 
ATOM     18  C   UNL     1      -1.340  -2.549   2.564  0.00  0.00    +0.000 A 
ATOM     19  F   UNL     1      -0.084  -2.834   2.190  0.00  0.00    +0.000 F 
ATOM     20  C   UNL     1      -1.617  -2.161   3.868  0.00  0.00    +0.000 A 
ATOM     21  C   UNL     1      -2.927  -1.875   4.223  0.00  0.00    +0.000 A 
ATOM     22  F   UNL     1      -3.207  -1.499   5.479  0.00  0.00    +0.000 F 
ATOM     23  C   UNL     1      -3.955  -1.971   3.289  0.00  0.00    +0.000 A 
BRANCH  20  24
ATOM     24  O   UNL     1      -0.608  -2.066   4.785  0.00  0.00    +0.000 OA
ATOM     25  H   UNL     1      -0.104  -1.252   4.595  0.00  0.00    +0.000 HD
ENDBRANCH  20  24
ENDBRANCH  14  16
BRANCH   2  26
ATOM     26  C   UNL     1      -2.865  -6.990   0.225  0.00  0.00    +0.000 C 
ATOM     27  C   UNL     1      -1.699  -7.126   1.212  0.00  0.00    +0.000 C 
BRANCH  27  28
ATOM     28  C   UNL     1      -0.622  -7.253   2.117  0.00  0.00    +0.000 C 
ATOM     29  C   UNL     1       0.530  -6.298   2.044  0.00  0.00    +0.000 C 
ATOM     30  C   UNL     1      -0.611  -8.372   3.112  0.00  0.00    +0.000 C 
ENDBRANCH  27  28
ENDBRANCH   2  26
TORSDOF 4
ENDMDL
MODEL 6
REMARK VINA RESULT:      -5.4     19.361     21.243
REMARK  Name = 25023738_BI-D-1870.pdbqt.pdb
REMARK  4 active torsions:
REMARK  status: ('A' for Active; 'I' for Inactive)
REMARK    1  A    between atoms: N_2  and  C_26
REMARK    2  A    between atoms: N_14  and  C_16
REMARK    3  A    between atoms: C_20  and  O_24
REMARK    4  A    between atoms: C_27  and  C_28
REMARK                            x       y       z     vdW  Elec       q    Type
REMARK                         _______ _______ _______ _____ _____    ______ ____
ROOT
ATOM      1  O   UNL     1     -11.645   2.443  27.289  0.00  0.00    +0.000 OA
ATOM      2  N   UNL     1     -10.825  -0.292  25.067  0.00  0.00    +0.000 N 
ATOM      3  N   UNL     1     -11.112   2.511  25.022  0.00  0.00    +0.000 N 
ATOM      4  N   UNL     1     -10.274  -0.274  22.746  0.00  0.00    +0.000 NA
ATOM      5  N   UNL     1     -10.191   1.715  21.507  0.00  0.00    +0.000 NA
ATOM      6  C   UNL     1     -11.172   0.352  26.235  0.00  0.00    +0.000 C 
ATOM      7  C   UNL     1     -10.613   0.411  23.862  0.00  0.00    +0.000 A 
ATOM      8  C   UNL     1     -11.335   1.852  26.250  0.00  0.00    +0.000 C 
ATOM      9  C   UNL     1     -10.757   1.780  23.855  0.00  0.00    +0.000 A 
ATOM     10  C   UNL     1     -11.391  -0.451  27.512  0.00  0.00    +0.000 C 
ATOM     11  C   UNL     1     -11.222   3.955  24.841  0.00  0.00    +0.000 C 
ATOM     12  C   UNL     1     -10.529   2.372  22.632  0.00  0.00    +0.000 A 
ATOM     13  C   UNL     1     -10.072   0.392  21.599  0.00  0.00    +0.000 A 
ATOM     14  N   UNL     1      -9.722  -0.274  20.432  0.00  0.00    +0.000 N 
ATOM     15  H   UNL     1      -9.609   0.376  19.664  0.00  0.00    +0.000 HD
ENDROOT
BRANCH  14  16
ATOM     16  C   UNL     1      -9.512  -1.632  20.166  0.00  0.00    +0.000 A 
ATOM     17  C   UNL     1      -8.678  -2.373  21.015  0.00  0.00    +0.000 A 
ATOM     18  C   UNL     1      -8.446  -3.727  20.782  0.00  0.00    +0.000 A 
ATOM     19  F   UNL     1      -7.642  -4.401  21.618  0.00  0.00    +0.000 F 
ATOM     20  C   UNL     1      -9.036  -4.368  19.702  0.00  0.00    +0.000 A 
ATOM     21  C   UNL     1      -9.862  -3.641  18.856  0.00  0.00    +0.000 A 
ATOM     22  F   UNL     1     -10.439  -4.249  17.809  0.00  0.00    +0.000 F 
ATOM     23  C   UNL     1     -10.100  -2.288  19.082  0.00  0.00    +0.000 A 
BRANCH  20  24
ATOM     24  O   UNL     1      -8.803  -5.696  19.479  0.00  0.00    +0.000 OA
ATOM     25  H   UNL     1      -8.246  -6.030  20.208  0.00  0.00    +0.000 HD
ENDBRANCH  20  24
ENDBRANCH  14  16
BRANCH   2  26
ATOM     26  C   UNL     1     -10.668  -1.744  25.047  0.00  0.00    +0.000 C 
ATOM     27  C   UNL     1     -10.504  -3.269  25.021  0.00  0.00    +0.000 C 
BRANCH  27  28
ATOM     28  C   UNL     1     -10.352  -4.673  25.002  0.00  0.00    +0.000 C 
ATOM     29  C   UNL     1      -9.042  -5.276  24.596  0.00  0.00    +0.000 C 
ATOM     30  C   UNL     1     -11.515  -5.554  25.338  0.00  0.00    +0.000 C 
ENDBRANCH  27  28
ENDBRANCH   2  26
TORSDOF 4
ENDMDL
MODEL 7
REMARK VINA RESULT:      -5.4     27.956     29.504
REMARK  Name = 25023738_BI-D-1870.pdbqt.pdb
REMARK  4 active torsions:
REMARK  status: ('A' for Active; 'I' for Inactive)
REMARK    1  A    between atoms: N_2  and  C_26
REMARK    2  A    between atoms: N_14  and  C_16
REMARK    3  A    between atoms: C_20  and  O_24
REMARK    4  A    between atoms: C_27  and  C_28
REMARK                            x       y       z     vdW  Elec       q    Type
REMARK                         _______ _______ _______ _____ _____    ______ ____
ROOT
ATOM      1  O   UNL     1     -22.875   1.634   7.611  0.00  0.00    +0.000 OA
ATOM      2  N   UNL     1     -23.020  -0.996  10.091  0.00  0.00    +0.000 N 
ATOM      3  N   UNL     1     -22.588  -0.660   7.327  0.00  0.00    +0.000 N 
ATOM      4  N   UNL     1     -22.735  -3.352   9.850  0.00  0.00    +0.000 NA
ATOM      5  N   UNL     1     -22.282  -4.340   7.773  0.00  0.00    +0.000 NA
ATOM      6  C   UNL     1     -23.065   0.279   9.569  0.00  0.00    +0.000 C 
ATOM      7  C   UNL     1     -22.767  -2.124   9.284  0.00  0.00    +0.000 A 
ATOM      8  C   UNL     1     -22.838   0.498   8.093  0.00  0.00    +0.000 C 
ATOM      9  C   UNL     1     -22.558  -1.945   7.934  0.00  0.00    +0.000 A 
ATOM     10  C   UNL     1     -23.343   1.468  10.482  0.00  0.00    +0.000 C 
ATOM     11  C   UNL     1     -22.346  -0.647   5.888  0.00  0.00    +0.000 C 
ATOM     12  C   UNL     1     -22.319  -3.107   7.234  0.00  0.00    +0.000 A 
ATOM     13  C   UNL     1     -22.494  -4.427   9.085  0.00  0.00    +0.000 A 
ATOM     14  N   UNL     1     -22.453  -5.704   9.629  0.00  0.00    +0.000 N 
ATOM     15  H   UNL     1     -22.261  -6.396   8.915  0.00  0.00    +0.000 HD
ENDROOT
BRANCH  14  16
ATOM     16  C   UNL     1     -22.625  -6.159  10.941  0.00  0.00    +0.000 A 
ATOM     17  C   UNL     1     -21.805  -5.645  11.955  0.00  0.00    +0.000 A 
ATOM     18  C   UNL     1     -21.947  -6.074  13.274  0.00  0.00    +0.000 A 
ATOM     19  F   UNL     1     -21.143  -5.558  14.215  0.00  0.00    +0.000 F 
ATOM     20  C   UNL     1     -22.905  -7.022  13.606  0.00  0.00    +0.000 A 
ATOM     21  C   UNL     1     -23.720  -7.536  12.608  0.00  0.00    +0.000 A 
ATOM     22  F   UNL     1     -24.650  -8.451  12.917  0.00  0.00    +0.000 F 
ATOM     23  C   UNL     1     -23.585  -7.112  11.289  0.00  0.00    +0.000 A 
BRANCH  20  24
ATOM     24  O   UNL     1     -23.038  -7.438  14.901  0.00  0.00    +0.000 OA
ATOM     25  H   UNL     1     -23.889  -7.912  14.980  0.00  0.00    +0.000 HD
ENDBRANCH  20  24
ENDBRANCH  14  16
BRANCH   2  26
ATOM     26  C   UNL     1     -23.241  -1.213  11.519  0.00  0.00    +0.000 C 
ATOM     27  C   UNL     1     -23.468  -1.440  13.018  0.00  0.00    +0.000 C 
BRANCH  27  28
ATOM     28  C   UNL     1     -23.682  -1.650  14.399  0.00  0.00    +0.000 C 
ATOM     29  C   UNL     1     -24.160  -0.521  15.260  0.00  0.00    +0.000 C 
ATOM     30  C   UNL     1     -23.381  -2.985  15.006  0.00  0.00    +0.000 C 
ENDBRANCH  27  28
ENDBRANCH   2  26
TORSDOF 4
ENDMDL
MODEL 8
REMARK VINA RESULT:      -5.0     17.090     20.508
REMARK  Name = 25023738_BI-D-1870.pdbqt.pdb
REMARK  4 active torsions:
REMARK  status: ('A' for Active; 'I' for Inactive)
REMARK    1  A    between atoms: N_2  and  C_26
REMARK    2  A    between atoms: N_14  and  C_16
REMARK    3  A    between atoms: C_20  and  O_24
REMARK    4  A    between atoms: C_27  and  C_28
REMARK                            x       y       z     vdW  Elec       q    Type
REMARK                         _______ _______ _______ _____ _____    ______ ____
ROOT
ATOM      1  O   UNL     1      -8.070   1.580  -0.855  0.00  0.00    +0.000 OA
ATOM      2  N   UNL     1      -5.977  -1.116   0.345  0.00  0.00    +0.000 N 
ATOM      3  N   UNL     1      -7.893  -0.601  -1.655  0.00  0.00    +0.000 N 
ATOM      4  N   UNL     1      -5.761  -3.359  -0.437  0.00  0.00    +0.000 NA
ATOM      5  N   UNL     1      -7.003  -4.162  -2.256  0.00  0.00    +0.000 NA
ATOM      6  C   UNL     1      -6.533   0.143   0.276  0.00  0.00    +0.000 C 
ATOM      7  C   UNL     1      -6.340  -2.142  -0.551  0.00  0.00    +0.000 A 
ATOM      8  C   UNL     1      -7.563   0.456  -0.781  0.00  0.00    +0.000 C 
ATOM      9  C   UNL     1      -7.278  -1.876  -1.524  0.00  0.00    +0.000 A 
ATOM     10  C   UNL     1      -6.109   1.220   1.269  0.00  0.00    +0.000 C 
ATOM     11  C   UNL     1      -8.865  -0.488  -2.738  0.00  0.00    +0.000 C 
ATOM     12  C   UNL     1      -7.564  -2.942  -2.349  0.00  0.00    +0.000 A 
ATOM     13  C   UNL     1      -6.105  -4.337  -1.289  0.00  0.00    +0.000 A 
ATOM     14  N   UNL     1      -5.533  -5.599  -1.204  0.00  0.00    +0.000 N 
ATOM     15  H   UNL     1      -5.903  -6.213  -1.919  0.00  0.00    +0.000 HD
ENDROOT
BRANCH  14  16
ATOM     16  C   UNL     1      -4.574  -6.126  -0.332  0.00  0.00    +0.000 A 
ATOM     17  C   UNL     1      -3.231  -6.159  -0.732  0.00  0.00    +0.000 A 
ATOM     18  C   UNL     1      -2.248  -6.676   0.110  0.00  0.00    +0.000 A 
ATOM     19  F   UNL     1      -0.974  -6.690  -0.310  0.00  0.00    +0.000 F 
ATOM     20  C   UNL     1      -2.583  -7.171   1.363  0.00  0.00    +0.000 A 
ATOM     21  C   UNL     1      -3.911  -7.144   1.766  0.00  0.00    +0.000 A 
ATOM     22  F   UNL     1      -4.247  -7.618   2.974  0.00  0.00    +0.000 F 
ATOM     23  C   UNL     1      -4.898  -6.627   0.931  0.00  0.00    +0.000 A 
BRANCH  20  24
ATOM     24  O   UNL     1      -1.614  -7.678   2.183  0.00  0.00    +0.000 OA
ATOM     25  H   UNL     1      -1.159  -6.927   2.611  0.00  0.00    +0.000 HD
ENDBRANCH  20  24
ENDBRANCH  14  16
BRANCH   2  26
ATOM     26  C   UNL     1      -4.981  -1.424   1.369  0.00  0.00    +0.000 C 
ATOM     27  C   UNL     1      -3.932  -1.748   2.439  0.00  0.00    +0.000 C 
BRANCH  27  28
ATOM     28  C   UNL     1      -2.970  -2.046   3.430  0.00  0.00    +0.000 C 
ATOM     29  C   UNL     1      -3.163  -1.551   4.830  0.00  0.00    +0.000 C 
ATOM     30  C   UNL     1      -1.735  -2.810   3.064  0.00  0.00    +0.000 C 
ENDBRANCH  27  28
ENDBRANCH   2  26
TORSDOF 4
ENDMDL
MODEL 9
REMARK VINA RESULT:      -5.0     20.686     22.496
REMARK  Name = 25023738_BI-D-1870.pdbqt.pdb
REMARK  4 active torsions:
REMARK  status: ('A' for Active; 'I' for Inactive)
REMARK    1  A    between atoms: N_2  and  C_26
REMARK    2  A    between atoms: N_14  and  C_16
REMARK    3  A    between atoms: C_20  and  O_24
REMARK    4  A    between atoms: C_27  and  C_28
REMARK                            x       y       z     vdW  Elec       q    Type
REMARK                         _______ _______ _______ _____ _____    ______ ____
ROOT
ATOM      1  O   UNL     1     -14.582   2.807  26.771  0.00  0.00    +0.000 OA
ATOM      2  N   UNL     1     -12.589   0.776  24.537  0.00  0.00    +0.000 N 
ATOM      3  N   UNL     1     -14.457   0.485  26.627  0.00  0.00    +0.000 N 
ATOM      4  N   UNL     1     -12.426  -1.597  24.351  0.00  0.00    +0.000 NA
ATOM      5  N   UNL     1     -13.660  -3.035  25.731  0.00  0.00    +0.000 NA
ATOM      6  C   UNL     1     -13.106   1.913  25.119  0.00  0.00    +0.000 C 
ATOM      7  C   UNL     1     -12.967  -0.516  24.959  0.00  0.00    +0.000 A 
ATOM      8  C   UNL     1     -14.109   1.797  26.241  0.00  0.00    +0.000 C 
ATOM      9  C   UNL     1     -13.881  -0.643  25.981  0.00  0.00    +0.000 A 
ATOM     10  C   UNL     1     -12.666   3.288  24.629  0.00  0.00    +0.000 C 
ATOM     11  C   UNL     1     -15.407   0.175  27.690  0.00  0.00    +0.000 C 
ATOM     12  C   UNL     1     -14.184  -1.944  26.318  0.00  0.00    +0.000 A 
ATOM     13  C   UNL     1     -12.784  -2.827  24.750  0.00  0.00    +0.000 A 
ATOM     14  N   UNL     1     -12.252  -3.961  24.152  0.00  0.00    +0.000 N 
ATOM     15  H   UNL     1     -12.628  -4.802  24.572  0.00  0.00    +0.000 HD
ENDROOT
BRANCH  14  16
ATOM     16  C   UNL     1     -11.327  -4.115  23.113  0.00  0.00    +0.000 A 
ATOM     17  C   UNL     1      -9.963  -4.213  23.421  0.00  0.00    +0.000 A 
ATOM     18  C   UNL     1      -9.013  -4.367  22.413  0.00  0.00    +0.000 A 
ATOM     19  F   UNL     1      -7.718  -4.457  22.749  0.00  0.00    +0.000 F 
ATOM     20  C   UNL     1      -9.402  -4.425  21.082  0.00  0.00    +0.000 A 
ATOM     21  C   UNL     1     -10.751  -4.327  20.768  0.00  0.00    +0.000 A 
ATOM     22  F   UNL     1     -11.139  -4.382  19.486  0.00  0.00    +0.000 F 
ATOM     23  C   UNL     1     -11.705  -4.174  21.770  0.00  0.00    +0.000 A 
BRANCH  20  24
ATOM     24  O   UNL     1      -8.465  -4.575  20.098  0.00  0.00    +0.000 OA
ATOM     25  H   UNL     1      -8.845  -5.147  19.404  0.00  0.00    +0.000 HD
ENDBRANCH  20  24
ENDBRANCH  14  16
BRANCH   2  26
ATOM     26  C   UNL     1     -11.616   0.883  23.452  0.00  0.00    +0.000 C 
ATOM     27  C   UNL     1     -10.591   0.995  22.317  0.00  0.00    +0.000 C 
BRANCH  27  28
ATOM     28  C   UNL     1      -9.651   1.098  21.268  0.00  0.00    +0.000 C 
ATOM     29  C   UNL     1      -9.563   2.360  20.466  0.00  0.00    +0.000 C 
ATOM     30  C   UNL     1      -8.782  -0.073  20.927  0.00  0.00    +0.000 C 
ENDBRANCH  27  28
ENDBRANCH   2  26
TORSDOF 4
ENDMDL
