MODEL 1
REMARK VINA RESULT:      -5.6      0.000      0.000
REMARK  Name = 26879_Levamisole.pdbqt.pdb
REMARK  1 active torsions:
REMARK  status: ('A' for Active; 'I' for Inactive)
REMARK    1  A    between atoms: C_5  and  C_9
REMARK                            x       y       z     vdW  Elec       q    Type
REMARK                         _______ _______ _______ _____ _____    ______ ____
ROOT
ATOM      1  S   UNL     1      -9.972  -5.617  24.760  0.00  0.00    +0.000 S 
ATOM      2  N   UNL     1     -11.433  -3.946  23.029  0.00  0.00    +0.000 NA
ATOM      3  N   UNL     1      -9.317  -4.876  22.254  0.00  0.00    +0.000 NA
ATOM      4  C   UNL     1     -11.337  -4.160  21.618  0.00  0.00    +0.000 C 
ATOM      5  C   UNL     1     -10.076  -4.584  21.167  0.00  0.00    +0.000 C 
ATOM      6  C   UNL     1     -12.282  -4.853  23.759  0.00  0.00    +0.000 C 
ATOM      7  C   UNL     1     -10.097  -4.563  23.332  0.00  0.00    +0.000 C 
ATOM      8  C   UNL     1     -11.652  -5.758  24.772  0.00  0.00    +0.000 C 
ENDROOT
BRANCH   5   9
ATOM      9  C   UNL     1      -9.628  -4.766  19.795  0.00  0.00    +0.000 A 
ATOM     10  C   UNL     1      -8.613  -5.672  19.472  0.00  0.00    +0.000 A 
ATOM     11  C   UNL     1     -10.210  -4.023  18.764  0.00  0.00    +0.000 A 
ATOM     12  C   UNL     1      -8.191  -5.834  18.153  0.00  0.00    +0.000 A 
ATOM     13  C   UNL     1      -9.792  -4.181  17.444  0.00  0.00    +0.000 A 
ATOM     14  C   UNL     1      -8.782  -5.087  17.139  0.00  0.00    +0.000 A 
ENDBRANCH   5   9
TORSDOF 1
ENDMDL
MODEL 2
REMARK VINA RESULT:      -5.0      1.171      1.989
REMARK  Name = 26879_Levamisole.pdbqt.pdb
REMARK  1 active torsions:
REMARK  status: ('A' for Active; 'I' for Inactive)
REMARK    1  A    between atoms: C_5  and  C_9
REMARK                            x       y       z     vdW  Elec       q    Type
REMARK                         _______ _______ _______ _____ _____    ______ ____
ROOT
ATOM      1  S   UNL     1     -10.018  -4.928  25.829  0.00  0.00    +0.000 S 
ATOM      2  N   UNL     1     -12.150  -5.405  24.055  0.00  0.00    +0.000 NA
ATOM      3  N   UNL     1     -10.206  -4.174  23.249  0.00  0.00    +0.000 NA
ATOM      4  C   UNL     1     -11.869  -5.546  22.660  0.00  0.00    +0.000 C 
ATOM      5  C   UNL     1     -10.821  -4.743  22.181  0.00  0.00    +0.000 C 
ATOM      6  C   UNL     1     -11.864  -6.547  24.885  0.00  0.00    +0.000 C 
ATOM      7  C   UNL     1     -10.925  -4.582  24.338  0.00  0.00    +0.000 C 
ATOM      8  C   UNL     1     -10.798  -6.418  25.930  0.00  0.00    +0.000 C 
ENDROOT
BRANCH   5   9
ATOM      9  C   UNL     1     -10.380  -4.567  20.806  0.00  0.00    +0.000 A 
ATOM     10  C   UNL     1     -11.044  -3.702  19.931  0.00  0.00    +0.000 A 
ATOM     11  C   UNL     1      -9.272  -5.274  20.329  0.00  0.00    +0.000 A 
ATOM     12  C   UNL     1     -10.614  -3.545  18.615  0.00  0.00    +0.000 A 
ATOM     13  C   UNL     1      -8.837  -5.121  19.014  0.00  0.00    +0.000 A 
ATOM     14  C   UNL     1      -9.509  -4.256  18.157  0.00  0.00    +0.000 A 
ENDBRANCH   5   9
TORSDOF 1
ENDMDL
MODEL 3
REMARK VINA RESULT:      -4.8     17.205     18.453
REMARK  Name = 26879_Levamisole.pdbqt.pdb
REMARK  1 active torsions:
REMARK  status: ('A' for Active; 'I' for Inactive)
REMARK    1  A    between atoms: C_5  and  C_9
REMARK                            x       y       z     vdW  Elec       q    Type
REMARK                         _______ _______ _______ _____ _____    ______ ____
ROOT
ATOM      1  S   UNL     1       9.003  -7.387  13.877  0.00  0.00    +0.000 S 
ATOM      2  N   UNL     1       6.764  -5.951  12.953  0.00  0.00    +0.000 NA
ATOM      3  N   UNL     1       6.908  -8.338  12.474  0.00  0.00    +0.000 NA
ATOM      4  C   UNL     1       5.511  -6.630  12.832  0.00  0.00    +0.000 C 
ATOM      5  C   UNL     1       5.600  -7.976  12.441  0.00  0.00    +0.000 C 
ATOM      6  C   UNL     1       7.155  -5.559  14.283  0.00  0.00    +0.000 C 
ATOM      7  C   UNL     1       7.587  -7.201  12.815  0.00  0.00    +0.000 C 
ATOM      8  C   UNL     1       8.375  -6.187  14.881  0.00  0.00    +0.000 C 
ENDROOT
BRANCH   5   9
ATOM      9  C   UNL     1       4.516  -8.890  12.114  0.00  0.00    +0.000 A 
ATOM     10  C   UNL     1       4.675 -10.276  12.210  0.00  0.00    +0.000 A 
ATOM     11  C   UNL     1       3.282  -8.389  11.689  0.00  0.00    +0.000 A 
ATOM     12  C   UNL     1       3.629 -11.140  11.891  0.00  0.00    +0.000 A 
ATOM     13  C   UNL     1       2.233  -9.249  11.369  0.00  0.00    +0.000 A 
ATOM     14  C   UNL     1       2.407 -10.625  11.471  0.00  0.00    +0.000 A 
ENDBRANCH   5   9
TORSDOF 1
ENDMDL
MODEL 4
REMARK VINA RESULT:      -4.7      3.846      4.346
REMARK  Name = 26879_Levamisole.pdbqt.pdb
REMARK  1 active torsions:
REMARK  status: ('A' for Active; 'I' for Inactive)
REMARK    1  A    between atoms: C_5  and  C_9
REMARK                            x       y       z     vdW  Elec       q    Type
REMARK                         _______ _______ _______ _____ _____    ______ ____
ROOT
ATOM      1  S   UNL     1      -7.702   1.171  23.005  0.00  0.00    +0.000 S 
ATOM      2  N   UNL     1     -10.297   0.138  22.656  0.00  0.00    +0.000 NA
ATOM      3  N   UNL     1      -8.577  -0.434  21.025  0.00  0.00    +0.000 NA
ATOM      4  C   UNL     1     -10.454  -1.132  22.017  0.00  0.00    +0.000 C 
ATOM      5  C   UNL     1      -9.527  -1.402  20.997  0.00  0.00    +0.000 C 
ATOM      6  C   UNL     1      -9.880   0.115  24.035  0.00  0.00    +0.000 C 
ATOM      7  C   UNL     1      -8.975   0.433  22.005  0.00  0.00    +0.000 C 
ATOM      8  C   UNL     1      -8.547   0.698  24.385  0.00  0.00    +0.000 C 
ENDROOT
BRANCH   5   9
ATOM      9  C   UNL     1      -9.499  -2.537  20.086  0.00  0.00    +0.000 A 
ATOM     10  C   UNL     1     -10.203  -2.521  18.878  0.00  0.00    +0.000 A 
ATOM     11  C   UNL     1      -8.762  -3.678  20.413  0.00  0.00    +0.000 A 
ATOM     12  C   UNL     1     -10.170  -3.616  18.016  0.00  0.00    +0.000 A 
ATOM     13  C   UNL     1      -8.725  -4.776  19.555  0.00  0.00    +0.000 A 
ATOM     14  C   UNL     1      -9.429  -4.744  18.356  0.00  0.00    +0.000 A 
ENDBRANCH   5   9
TORSDOF 1
ENDMDL
MODEL 5
REMARK VINA RESULT:      -4.6     17.018     18.324
REMARK  Name = 26879_Levamisole.pdbqt.pdb
REMARK  1 active torsions:
REMARK  status: ('A' for Active; 'I' for Inactive)
REMARK    1  A    between atoms: C_5  and  C_9
REMARK                            x       y       z     vdW  Elec       q    Type
REMARK                         _______ _______ _______ _____ _____    ______ ____
ROOT
ATOM      1  S   UNL     1       5.170 -14.221  15.947  0.00  0.00    +0.000 S 
ATOM      2  N   UNL     1       5.117 -14.314  13.134  0.00  0.00    +0.000 NA
ATOM      3  N   UNL     1       3.894 -12.539  14.273  0.00  0.00    +0.000 NA
ATOM      4  C   UNL     1       4.990 -13.090  12.405  0.00  0.00    +0.000 C 
ATOM      5  C   UNL     1       4.187 -12.115  13.018  0.00  0.00    +0.000 C 
ATOM      6  C   UNL     1       6.422 -14.612  13.667  0.00  0.00    +0.000 C 
ATOM      7  C   UNL     1       4.462 -13.779  14.376  0.00  0.00    +0.000 C 
ATOM      8  C   UNL     1       6.588 -14.670  15.154  0.00  0.00    +0.000 C 
ENDROOT
BRANCH   5   9
ATOM      9  C   UNL     1       3.767 -10.830  12.479  0.00  0.00    +0.000 A 
ATOM     10  C   UNL     1       2.730 -10.732  11.546  0.00  0.00    +0.000 A 
ATOM     11  C   UNL     1       4.406  -9.656  12.889  0.00  0.00    +0.000 A 
ATOM     12  C   UNL     1       2.340  -9.495  11.036  0.00  0.00    +0.000 A 
ATOM     13  C   UNL     1       4.020  -8.417  12.383  0.00  0.00    +0.000 A 
ATOM     14  C   UNL     1       2.986  -8.337  11.456  0.00  0.00    +0.000 A 
ENDBRANCH   5   9
TORSDOF 1
ENDMDL
MODEL 6
REMARK VINA RESULT:      -4.6     15.280     16.231
REMARK  Name = 26879_Levamisole.pdbqt.pdb
REMARK  1 active torsions:
REMARK  status: ('A' for Active; 'I' for Inactive)
REMARK    1  A    between atoms: C_5  and  C_9
REMARK                            x       y       z     vdW  Elec       q    Type
REMARK                         _______ _______ _______ _____ _____    ______ ____
ROOT
ATOM      1  S   UNL     1     -25.047  -7.268  12.310  0.00  0.00    +0.000 S 
ATOM      2  N   UNL     1     -22.387  -6.518  12.842  0.00  0.00    +0.000 NA
ATOM      3  N   UNL     1     -23.018  -7.056  10.550  0.00  0.00    +0.000 NA
ATOM      4  C   UNL     1     -21.644  -5.840  11.825  0.00  0.00    +0.000 C 
ATOM      5  C   UNL     1     -21.933  -6.242  10.511  0.00  0.00    +0.000 C 
ATOM      6  C   UNL     1     -23.336  -5.725  13.579  0.00  0.00    +0.000 C 
ATOM      7  C   UNL     1     -23.324  -7.187  11.876  0.00  0.00    +0.000 C 
ATOM      8  C   UNL     1     -24.791  -6.055  13.452  0.00  0.00    +0.000 C 
ENDROOT
BRANCH   5   9
ATOM      9  C   UNL     1     -21.268  -5.837   9.281  0.00  0.00    +0.000 A 
ATOM     10  C   UNL     1     -21.630  -6.378   8.043  0.00  0.00    +0.000 A 
ATOM     11  C   UNL     1     -20.240  -4.892   9.320  0.00  0.00    +0.000 A 
ATOM     12  C   UNL     1     -20.983  -5.984   6.873  0.00  0.00    +0.000 A 
ATOM     13  C   UNL     1     -19.589  -4.494   8.153  0.00  0.00    +0.000 A 
ATOM     14  C   UNL     1     -19.962  -5.040   6.930  0.00  0.00    +0.000 A 
ENDBRANCH   5   9
TORSDOF 1
ENDMDL
MODEL 7
REMARK VINA RESULT:      -4.5     17.433     18.781
REMARK  Name = 26879_Levamisole.pdbqt.pdb
REMARK  1 active torsions:
REMARK  status: ('A' for Active; 'I' for Inactive)
REMARK    1  A    between atoms: C_5  and  C_9
REMARK                            x       y       z     vdW  Elec       q    Type
REMARK                         _______ _______ _______ _____ _____    ______ ____
ROOT
ATOM      1  S   UNL     1       8.511 -13.089  13.707  0.00  0.00    +0.000 S 
ATOM      2  N   UNL     1       6.077 -12.876  15.106  0.00  0.00    +0.000 NA
ATOM      3  N   UNL     1       6.552 -11.278  13.327  0.00  0.00    +0.000 NA
ATOM      4  C   UNL     1       4.932 -12.358  14.424  0.00  0.00    +0.000 C 
ATOM      5  C   UNL     1       5.206 -11.353  13.482  0.00  0.00    +0.000 C 
ATOM      6  C   UNL     1       6.428 -14.244  14.824  0.00  0.00    +0.000 C 
ATOM      7  C   UNL     1       7.068 -12.180  14.215  0.00  0.00    +0.000 C 
ATOM      8  C   UNL     1       7.734 -14.519  14.145  0.00  0.00    +0.000 C 
ENDROOT
BRANCH   5   9
ATOM      9  C   UNL     1       4.258 -10.550  12.724  0.00  0.00    +0.000 A 
ATOM     10  C   UNL     1       3.246 -11.141  11.961  0.00  0.00    +0.000 A 
ATOM     11  C   UNL     1       4.349  -9.156  12.744  0.00  0.00    +0.000 A 
ATOM     12  C   UNL     1       2.347 -10.360  11.237  0.00  0.00    +0.000 A 
ATOM     13  C   UNL     1       3.452  -8.370  12.022  0.00  0.00    +0.000 A 
ATOM     14  C   UNL     1       2.451  -8.974  11.269  0.00  0.00    +0.000 A 
ENDBRANCH   5   9
TORSDOF 1
ENDMDL
MODEL 8
REMARK VINA RESULT:      -4.4      2.739      3.887
REMARK  Name = 26879_Levamisole.pdbqt.pdb
REMARK  1 active torsions:
REMARK  status: ('A' for Active; 'I' for Inactive)
REMARK    1  A    between atoms: C_5  and  C_9
REMARK                            x       y       z     vdW  Elec       q    Type
REMARK                         _______ _______ _______ _____ _____    ______ ____
ROOT
ATOM      1  S   UNL     1      -7.638  -7.071  27.168  0.00  0.00    +0.000 S 
ATOM      2  N   UNL     1     -10.173  -6.471  26.101  0.00  0.00    +0.000 NA
ATOM      3  N   UNL     1      -8.226  -5.282  25.241  0.00  0.00    +0.000 NA
ATOM      4  C   UNL     1     -10.265  -6.045  24.738  0.00  0.00    +0.000 C 
ATOM      5  C   UNL     1      -9.191  -5.261  24.287  0.00  0.00    +0.000 C 
ATOM      6  C   UNL     1      -9.992  -7.883  26.321  0.00  0.00    +0.000 C 
ATOM      7  C   UNL     1      -8.751  -6.013  26.270  0.00  0.00    +0.000 C 
ATOM      8  C   UNL     1      -8.717  -8.348  26.952  0.00  0.00    +0.000 C 
ENDROOT
BRANCH   5   9
ATOM      9  C   UNL     1      -9.051  -4.580  23.009  0.00  0.00    +0.000 A 
ATOM     10  C   UNL     1     -10.040  -4.664  22.024  0.00  0.00    +0.000 A 
ATOM     11  C   UNL     1      -7.905  -3.826  22.739  0.00  0.00    +0.000 A 
ATOM     12  C   UNL     1      -9.892  -4.009  20.803  0.00  0.00    +0.000 A 
ATOM     13  C   UNL     1      -7.752  -3.169  21.519  0.00  0.00    +0.000 A 
ATOM     14  C   UNL     1      -8.746  -3.261  20.551  0.00  0.00    +0.000 A 
ENDBRANCH   5   9
TORSDOF 1
ENDMDL
MODEL 9
REMARK VINA RESULT:      -4.2      5.976      6.616
REMARK  Name = 26879_Levamisole.pdbqt.pdb
REMARK  1 active torsions:
REMARK  status: ('A' for Active; 'I' for Inactive)
REMARK    1  A    between atoms: C_5  and  C_9
REMARK                            x       y       z     vdW  Elec       q    Type
REMARK                         _______ _______ _______ _____ _____    ______ ____
ROOT
ATOM      1  S   UNL     1      -9.562   3.715  23.232  0.00  0.00    +0.000 S 
ATOM      2  N   UNL     1      -8.849   3.020  20.598  0.00  0.00    +0.000 NA
ATOM      3  N   UNL     1      -8.622   1.347  22.357  0.00  0.00    +0.000 NA
ATOM      4  C   UNL     1      -9.003   1.662  20.177  0.00  0.00    +0.000 C 
ATOM      5  C   UNL     1      -8.755   0.701  21.170  0.00  0.00    +0.000 C 
ATOM      6  C   UNL     1     -10.048   3.817  20.648  0.00  0.00    +0.000 C 
ATOM      7  C   UNL     1      -8.722   2.676  22.056  0.00  0.00    +0.000 C 
ATOM      8  C   UNL     1     -10.513   4.322  21.979  0.00  0.00    +0.000 C 
ENDROOT
BRANCH   5   9
ATOM      9  C   UNL     1      -8.707  -0.747  21.027  0.00  0.00    +0.000 A 
ATOM     10  C   UNL     1      -7.799  -1.523  21.753  0.00  0.00    +0.000 A 
ATOM     11  C   UNL     1      -9.578  -1.392  20.145  0.00  0.00    +0.000 A 
ATOM     12  C   UNL     1      -7.761  -2.908  21.604  0.00  0.00    +0.000 A 
ATOM     13  C   UNL     1      -9.545  -2.777  19.992  0.00  0.00    +0.000 A 
ATOM     14  C   UNL     1      -8.636  -3.535  20.723  0.00  0.00    +0.000 A 
ENDBRANCH   5   9
TORSDOF 1
ENDMDL
