REMARK  Name = 26879_Levamisole.pdbqt.pdb
REMARK  1 active torsions:
REMARK  status: ('A' for Active; 'I' for Inactive)
REMARK    1  A    between atoms: C_5  and  C_9
REMARK                            x       y       z     vdW  Elec       q    Type
REMARK                         _______ _______ _______ _____ _____    ______ ____
ROOT
ATOM      1  S   UNL     1      -3.481   1.360  -0.045  0.00  0.00    +0.000 S 
ATOM      2  N   UNL     1      -2.193  -1.091  -0.554  0.00  0.00    +0.000 NA
ATOM      3  N   UNL     1      -0.863   0.952  -0.535  0.00  0.00    +0.000 NA
ATOM      4  C   UNL     1      -0.829  -1.250  -0.155  0.00  0.00    +0.000 C 
ATOM      5  C   UNL     1      -0.041  -0.092  -0.259  0.00  0.00    +0.000 C 
ATOM      6  C   UNL     1      -3.183  -1.199   0.487  0.00  0.00    +0.000 C 
ATOM      7  C   UNL     1      -2.110   0.406  -0.659  0.00  0.00    +0.000 C 
ATOM      8  C   UNL     1      -4.001   0.010   0.820  0.00  0.00    +0.000 C 
ENDROOT
BRANCH   5   9
ATOM      9  C   UNL     1       1.393   0.040  -0.051  0.00  0.00    +0.000 A 
ATOM     10  C   UNL     1       2.037   1.276  -0.165  0.00  0.00    +0.000 A 
ATOM     11  C   UNL     1       2.161  -1.084   0.266  0.00  0.00    +0.000 A 
ATOM     12  C   UNL     1       3.412   1.388   0.034  0.00  0.00    +0.000 A 
ATOM     13  C   UNL     1       3.536  -0.978   0.466  0.00  0.00    +0.000 A 
ATOM     14  C   UNL     1       4.161   0.259   0.350  0.00  0.00    +0.000 A 
ENDBRANCH   5   9
TORSDOF 1
