MODEL 1
REMARK VINA RESULT:      -5.0      0.000      0.000
REMARK  Name = 27924_Phorbol.pdbqt.pdb
REMARK  26 active torsions:
REMARK  status: ('A' for Active; 'I' for Inactive)
REMARK    1  A    between atoms: O_1  and  C_10
REMARK    2  A    between atoms: O_1  and  C_26
REMARK    3  A    between atoms: O_2  and  C_13
REMARK    4  A    between atoms: O_2  and  C_28
REMARK    5  A    between atoms: O_3  and  C_14
REMARK    6  A    between atoms: O_4  and  C_20
REMARK    7  A    between atoms: O_7  and  C_29
REMARK    8  A    between atoms: C_11  and  C_16
REMARK    9  A    between atoms: C_11  and  C_17
REMARK   10  A    between atoms: C_15  and  C_21
REMARK   11  A    between atoms: C_22  and  C_29
REMARK   12  A    between atoms: C_26  and  C_30
REMARK   13  A    between atoms: C_27  and  C_31
REMARK   14  A    between atoms: C_28  and  C_32
REMARK   15  A    between atoms: C_32  and  C_33
REMARK   16  A    between atoms: C_33  and  C_34
REMARK   17  A    between atoms: C_34  and  C_35
REMARK   18  A    between atoms: C_35  and  C_36
REMARK   19  A    between atoms: C_36  and  C_37
REMARK   20  A    between atoms: C_37  and  C_38
REMARK   21  A    between atoms: C_38  and  C_39
REMARK   22  A    between atoms: C_39  and  C_40
REMARK   23  A    between atoms: C_40  and  C_41
REMARK   24  A    between atoms: C_41  and  C_42
REMARK   25  A    between atoms: C_42  and  C_43
REMARK   26  A    between atoms: C_43  and  C_44
REMARK                            x       y       z     vdW  Elec       q    Type
REMARK                         _______ _______ _______ _____ _____    ______ ____
ROOT
ATOM      1  O   UNL     1     -17.993  -8.306  30.901  0.00  0.00    +0.000 OA
ATOM      2  C   UNL     1     -11.629  -8.553  27.771  0.00  0.00    +0.000 C 
ATOM      3  C   UNL     1     -11.344  -7.670  26.570  0.00  0.00    +0.000 C 
ATOM      4  C   UNL     1     -11.538  -9.205  26.405  0.00  0.00    +0.000 C 
ATOM      5  C   UNL     1     -12.810  -8.288  28.656  0.00  0.00    +0.000 C 
ATOM      6  C   UNL     1     -12.409  -6.621  26.201  0.00  0.00    +0.000 C 
ATOM      7  C   UNL     1     -13.968  -7.335  28.104  0.00  0.00    +0.000 C 
ATOM      8  C   UNL     1     -13.185  -6.119  27.469  0.00  0.00    +0.000 C 
ATOM      9  C   UNL     1     -10.327 -10.103  26.223  0.00  0.00    +0.000 C 
ATOM     10  C   UNL     1     -12.759  -9.791  25.740  0.00  0.00    +0.000 C 
ATOM     11  C   UNL     1     -15.012  -7.047  29.298  0.00  0.00    +0.000 C 
ATOM     12  C   UNL     1     -13.337  -9.531  29.348  0.00  0.00    +0.000 C 
ATOM     13  C   UNL     1     -15.820  -8.321  29.808  0.00  0.00    +0.000 C 
ATOM     14  C   UNL     1     -14.027  -4.890  27.123  0.00  0.00    +0.000 C 
ATOM     15  C   UNL     1     -13.685  -9.389  30.646  0.00  0.00    +0.000 C 
ATOM     16  C   UNL     1     -15.158  -9.155  30.927  0.00  0.00    +0.000 C 
ATOM     17  C   UNL     1     -16.165  -6.076  29.074  0.00  0.00    +0.000 C 
ATOM     18  C   UNL     1     -17.138  -7.723  30.251  0.00  0.00    +0.000 C 
ATOM     19  C   UNL     1     -17.329  -6.396  29.655  0.00  0.00    +0.000 C 
ATOM     20  C   UNL     1     -18.608  -5.659  29.721  0.00  0.00    +0.000 C 
ENDROOT
BRANCH   7  21
ATOM     21  O   UNL     1     -14.701  -7.941  27.031  0.00  0.00    +0.000 OA
ATOM     22  H   UNL     1     -14.053  -8.239  26.354  0.00  0.00    +0.000 HD
ENDBRANCH   7  21
BRANCH  13  23
ATOM     23  O   UNL     1     -16.197  -9.185  28.708  0.00  0.00    +0.000 OA
ATOM     24  H   UNL     1     -16.598  -8.602  28.030  0.00  0.00    +0.000 HD
ENDBRANCH  13  23
BRANCH   3  25
ATOM     25  O   UNL     1      -9.994  -7.144  26.662  0.00  0.00    +0.000 OA
BRANCH  25  27
ATOM     26  O   UNL     1      -9.792  -5.753  28.413  0.00  0.00    +0.000 OA
ATOM     27  C   UNL     1      -9.391  -6.748  27.811  0.00  0.00    +0.000 C 
ATOM     28  C   UNL     1      -8.285  -7.589  28.374  0.00  0.00    +0.000 C 
ENDBRANCH  25  27
ENDBRANCH   3  25
BRANCH  15  29
ATOM     29  C   UNL     1     -12.743  -8.884  31.707  0.00  0.00    +0.000 C 
BRANCH  29  30
ATOM     30  O   UNL     1     -11.508  -9.566  31.566  0.00  0.00    +0.000 OA
ATOM     31  H   UNL     1     -10.812  -8.941  31.834  0.00  0.00    +0.000 HD
ENDBRANCH  29  30
ENDBRANCH  15  29
BRANCH   6  32
ATOM     32  O   UNL     1     -11.733  -5.505  25.559  0.00  0.00    +0.000 OA
BRANCH  32  34
ATOM     33  O   UNL     1     -12.525  -5.791  23.487  0.00  0.00    +0.000 OA
ATOM     34  C   UNL     1     -11.693  -5.272  24.228  0.00  0.00    +0.000 C 
BRANCH  34  35
ATOM     35  C   UNL     1     -10.621  -4.371  23.666  0.00  0.00    +0.000 C 
BRANCH  35  36
ATOM     36  C   UNL     1      -9.225  -4.867  24.022  0.00  0.00    +0.000 C 
BRANCH  36  37
ATOM     37  C   UNL     1      -8.089  -4.016  23.443  0.00  0.00    +0.000 C 
BRANCH  37  38
ATOM     38  C   UNL     1      -8.034  -3.990  21.910  0.00  0.00    +0.000 C 
BRANCH  38  39
ATOM     39  C   UNL     1      -8.008  -2.565  21.347  0.00  0.00    +0.000 C 
BRANCH  39  40
ATOM     40  C   UNL     1      -9.152  -2.271  20.374  0.00  0.00    +0.000 C 
BRANCH  40  41
ATOM     41  C   UNL     1     -10.287  -3.295  20.455  0.00  0.00    +0.000 C 
BRANCH  41  42
ATOM     42  C   UNL     1     -11.021  -3.493  19.126  0.00  0.00    +0.000 C 
BRANCH  42  43
ATOM     43  C   UNL     1     -10.162  -3.365  17.865  0.00  0.00    +0.000 C 
BRANCH  43  44
ATOM     44  C   UNL     1      -9.804  -4.683  17.172  0.00  0.00    +0.000 C 
BRANCH  44  45
ATOM     45  C   UNL     1      -8.309  -4.932  16.953  0.00  0.00    +0.000 C 
BRANCH  45  46
ATOM     46  C   UNL     1      -7.681  -6.024  17.821  0.00  0.00    +0.000 C 
ATOM     47  C   UNL     1      -8.414  -6.249  19.135  0.00  0.00    +0.000 C 
ENDBRANCH  45  46
ENDBRANCH  44  45
ENDBRANCH  43  44
ENDBRANCH  42  43
ENDBRANCH  41  42
ENDBRANCH  40  41
ENDBRANCH  39  40
ENDBRANCH  38  39
ENDBRANCH  37  38
ENDBRANCH  36  37
ENDBRANCH  35  36
ENDBRANCH  34  35
ENDBRANCH  32  34
ENDBRANCH   6  32
TORSDOF 20
ENDMDL
MODEL 2
REMARK VINA RESULT:      -4.9     17.064     20.515
REMARK  Name = 27924_Phorbol.pdbqt.pdb
REMARK  26 active torsions:
REMARK  status: ('A' for Active; 'I' for Inactive)
REMARK    1  A    between atoms: O_1  and  C_10
REMARK    2  A    between atoms: O_1  and  C_26
REMARK    3  A    between atoms: O_2  and  C_13
REMARK    4  A    between atoms: O_2  and  C_28
REMARK    5  A    between atoms: O_3  and  C_14
REMARK    6  A    between atoms: O_4  and  C_20
REMARK    7  A    between atoms: O_7  and  C_29
REMARK    8  A    between atoms: C_11  and  C_16
REMARK    9  A    between atoms: C_11  and  C_17
REMARK   10  A    between atoms: C_15  and  C_21
REMARK   11  A    between atoms: C_22  and  C_29
REMARK   12  A    between atoms: C_26  and  C_30
REMARK   13  A    between atoms: C_27  and  C_31
REMARK   14  A    between atoms: C_28  and  C_32
REMARK   15  A    between atoms: C_32  and  C_33
REMARK   16  A    between atoms: C_33  and  C_34
REMARK   17  A    between atoms: C_34  and  C_35
REMARK   18  A    between atoms: C_35  and  C_36
REMARK   19  A    between atoms: C_36  and  C_37
REMARK   20  A    between atoms: C_37  and  C_38
REMARK   21  A    between atoms: C_38  and  C_39
REMARK   22  A    between atoms: C_39  and  C_40
REMARK   23  A    between atoms: C_40  and  C_41
REMARK   24  A    between atoms: C_41  and  C_42
REMARK   25  A    between atoms: C_42  and  C_43
REMARK   26  A    between atoms: C_43  and  C_44
REMARK                            x       y       z     vdW  Elec       q    Type
REMARK                         _______ _______ _______ _____ _____    ______ ____
ROOT
ATOM      1  O   UNL     1     -22.738  -8.097   9.883  0.00  0.00    +0.000 OA
ATOM      2  C   UNL     1     -22.150  -1.135   8.640  0.00  0.00    +0.000 C 
ATOM      3  C   UNL     1     -22.941  -0.148   9.479  0.00  0.00    +0.000 C 
ATOM      4  C   UNL     1     -23.329  -0.429   7.999  0.00  0.00    +0.000 C 
ATOM      5  C   UNL     1     -21.979  -2.557   9.083  0.00  0.00    +0.000 C 
ATOM      6  C   UNL     1     -23.704  -0.713  10.692  0.00  0.00    +0.000 C 
ATOM      7  C   UNL     1     -22.954  -3.116  10.218  0.00  0.00    +0.000 C 
ATOM      8  C   UNL     1     -22.976  -1.963  11.299  0.00  0.00    +0.000 C 
ATOM      9  C   UNL     1     -22.946   0.567   6.917  0.00  0.00    +0.000 C 
ATOM     10  C   UNL     1     -24.580  -1.186   7.628  0.00  0.00    +0.000 C 
ATOM     11  C   UNL     1     -22.448  -4.582  10.659  0.00  0.00    +0.000 C 
ATOM     12  C   UNL     1     -21.779  -3.527   7.934  0.00  0.00    +0.000 C 
ATOM     13  C   UNL     1     -22.551  -5.698   9.527  0.00  0.00    +0.000 C 
ATOM     14  C   UNL     1     -23.587  -2.327  12.652  0.00  0.00    +0.000 C 
ATOM     15  C   UNL     1     -20.840  -4.481   8.115  0.00  0.00    +0.000 C 
ATOM     16  C   UNL     1     -21.336  -5.837   8.583  0.00  0.00    +0.000 C 
ATOM     17  C   UNL     1     -23.139  -5.306  11.807  0.00  0.00    +0.000 C 
ATOM     18  C   UNL     1     -22.795  -6.959  10.327  0.00  0.00    +0.000 C 
ATOM     19  C   UNL     1     -23.275  -6.632  11.674  0.00  0.00    +0.000 C 
ATOM     20  C   UNL     1     -23.807  -7.646  12.609  0.00  0.00    +0.000 C 
ENDROOT
BRANCH   7  21
ATOM     21  O   UNL     1     -24.304  -3.251   9.753  0.00  0.00    +0.000 OA
ATOM     22  H   UNL     1     -24.777  -2.412   9.952  0.00  0.00    +0.000 HD
ENDBRANCH   7  21
BRANCH  13  23
ATOM     23  O   UNL     1     -23.765  -5.553   8.749  0.00  0.00    +0.000 OA
ATOM     24  H   UNL     1     -24.476  -5.973   9.277  0.00  0.00    +0.000 HD
ENDBRANCH  13  23
BRANCH   3  25
ATOM     25  O   UNL     1     -22.118   1.009   9.777  0.00  0.00    +0.000 OA
BRANCH  25  27
ATOM     26  O   UNL     1     -19.900   1.200   9.486  0.00  0.00    +0.000 OA
ATOM     27  C   UNL     1     -20.843   0.958  10.237  0.00  0.00    +0.000 C 
ATOM     28  C   UNL     1     -20.611   0.682  11.692  0.00  0.00    +0.000 C 
ENDBRANCH  25  27
ENDBRANCH   3  25
BRANCH  15  29
ATOM     29  C   UNL     1     -19.402  -4.177   8.447  0.00  0.00    +0.000 C 
BRANCH  29  30
ATOM     30  O   UNL     1     -18.577  -4.922   7.567  0.00  0.00    +0.000 OA
ATOM     31  H   UNL     1     -18.576  -5.839   7.893  0.00  0.00    +0.000 HD
ENDBRANCH  29  30
ENDBRANCH  15  29
BRANCH   6  32
ATOM     32  O   UNL     1     -23.797   0.340  11.691  0.00  0.00    +0.000 OA
BRANCH  32  34
ATOM     33  O   UNL     1     -25.304   1.799  10.915  0.00  0.00    +0.000 OA
ATOM     34  C   UNL     1     -24.853   1.165  11.867  0.00  0.00    +0.000 C 
BRANCH  34  35
ATOM     35  C   UNL     1     -25.469   1.298  13.238  0.00  0.00    +0.000 C 
BRANCH  35  36
ATOM     36  C   UNL     1     -24.512   1.959  14.223  0.00  0.00    +0.000 C 
BRANCH  36  37
ATOM     37  C   UNL     1     -24.521   1.333  15.622  0.00  0.00    +0.000 C 
BRANCH  37  38
ATOM     38  C   UNL     1     -23.822  -0.030  15.712  0.00  0.00    +0.000 C 
BRANCH  38  39
ATOM     39  C   UNL     1     -24.699  -1.097  16.375  0.00  0.00    +0.000 C 
BRANCH  39  40
ATOM     40  C   UNL     1     -24.005  -2.454  16.523  0.00  0.00    +0.000 C 
BRANCH  40  41
ATOM     41  C   UNL     1     -24.829  -3.464  17.325  0.00  0.00    +0.000 C 
BRANCH  41  42
ATOM     42  C   UNL     1     -24.843  -4.864  16.703  0.00  0.00    +0.000 C 
BRANCH  42  43
ATOM     43  C   UNL     1     -24.673  -4.919  15.182  0.00  0.00    +0.000 C 
BRANCH  43  44
ATOM     44  C   UNL     1     -25.907  -5.371  14.395  0.00  0.00    +0.000 C 
BRANCH  44  45
ATOM     45  C   UNL     1     -26.594  -4.285  13.562  0.00  0.00    +0.000 C 
BRANCH  45  46
ATOM     46  C   UNL     1     -27.323  -3.199  14.356  0.00  0.00    +0.000 C 
ATOM     47  C   UNL     1     -27.221  -1.818  13.727  0.00  0.00    +0.000 C 
ENDBRANCH  45  46
ENDBRANCH  44  45
ENDBRANCH  43  44
ENDBRANCH  42  43
ENDBRANCH  41  42
ENDBRANCH  40  41
ENDBRANCH  39  40
ENDBRANCH  38  39
ENDBRANCH  37  38
ENDBRANCH  36  37
ENDBRANCH  35  36
ENDBRANCH  34  35
ENDBRANCH  32  34
ENDBRANCH   6  32
TORSDOF 20
ENDMDL
MODEL 3
REMARK VINA RESULT:      -4.9     15.312     19.816
REMARK  Name = 27924_Phorbol.pdbqt.pdb
REMARK  26 active torsions:
REMARK  status: ('A' for Active; 'I' for Inactive)
REMARK    1  A    between atoms: O_1  and  C_10
REMARK    2  A    between atoms: O_1  and  C_26
REMARK    3  A    between atoms: O_2  and  C_13
REMARK    4  A    between atoms: O_2  and  C_28
REMARK    5  A    between atoms: O_3  and  C_14
REMARK    6  A    between atoms: O_4  and  C_20
REMARK    7  A    between atoms: O_7  and  C_29
REMARK    8  A    between atoms: C_11  and  C_16
REMARK    9  A    between atoms: C_11  and  C_17
REMARK   10  A    between atoms: C_15  and  C_21
REMARK   11  A    between atoms: C_22  and  C_29
REMARK   12  A    between atoms: C_26  and  C_30
REMARK   13  A    between atoms: C_27  and  C_31
REMARK   14  A    between atoms: C_28  and  C_32
REMARK   15  A    between atoms: C_32  and  C_33
REMARK   16  A    between atoms: C_33  and  C_34
REMARK   17  A    between atoms: C_34  and  C_35
REMARK   18  A    between atoms: C_35  and  C_36
REMARK   19  A    between atoms: C_36  and  C_37
REMARK   20  A    between atoms: C_37  and  C_38
REMARK   21  A    between atoms: C_38  and  C_39
REMARK   22  A    between atoms: C_39  and  C_40
REMARK   23  A    between atoms: C_40  and  C_41
REMARK   24  A    between atoms: C_41  and  C_42
REMARK   25  A    between atoms: C_42  and  C_43
REMARK   26  A    between atoms: C_43  and  C_44
REMARK                            x       y       z     vdW  Elec       q    Type
REMARK                         _______ _______ _______ _____ _____    ______ ____
ROOT
ATOM      1  O   UNL     1     -22.803  -7.778  10.251  0.00  0.00    +0.000 OA
ATOM      2  C   UNL     1     -22.163  -0.839   8.912  0.00  0.00    +0.000 C 
ATOM      3  C   UNL     1     -22.827   0.171   9.829  0.00  0.00    +0.000 C 
ATOM      4  C   UNL     1     -23.386  -0.102   8.403  0.00  0.00    +0.000 C 
ATOM      5  C   UNL     1     -21.984  -2.264   9.341  0.00  0.00    +0.000 C 
ATOM      6  C   UNL     1     -23.465  -0.368  11.123  0.00  0.00    +0.000 C 
ATOM      7  C   UNL     1     -22.841  -2.793  10.582  0.00  0.00    +0.000 C 
ATOM      8  C   UNL     1     -22.709  -1.638  11.651  0.00  0.00    +0.000 C 
ATOM      9  C   UNL     1     -23.099   0.881   7.280  0.00  0.00    +0.000 C 
ATOM     10  C   UNL     1     -24.692  -0.823   8.179  0.00  0.00    +0.000 C 
ATOM     11  C   UNL     1     -22.329  -4.271  10.971  0.00  0.00    +0.000 C 
ATOM     12  C   UNL     1     -21.941  -3.243   8.182  0.00  0.00    +0.000 C 
ATOM     13  C   UNL     1     -22.590  -5.386   9.863  0.00  0.00    +0.000 C 
ATOM     14  C   UNL     1     -23.174  -1.981  13.067  0.00  0.00    +0.000 C 
ATOM     15  C   UNL     1     -21.014  -4.222   8.262  0.00  0.00    +0.000 C 
ATOM     16  C   UNL     1     -21.493  -5.563   8.790  0.00  0.00    +0.000 C 
ATOM     17  C   UNL     1     -22.907  -4.973  12.193  0.00  0.00    +0.000 C 
ATOM     18  C   UNL     1     -22.778  -6.639  10.692  0.00  0.00    +0.000 C 
ATOM     19  C   UNL     1     -23.094  -6.295  12.083  0.00  0.00    +0.000 C 
ATOM     20  C   UNL     1     -23.546  -7.291  13.077  0.00  0.00    +0.000 C 
ENDROOT
BRANCH   7  21
ATOM     21  O   UNL     1     -24.237  -2.890  10.271  0.00  0.00    +0.000 OA
ATOM     22  H   UNL     1     -24.734  -2.385  10.953  0.00  0.00    +0.000 HD
ENDBRANCH   7  21
BRANCH  13  23
ATOM     23  O   UNL     1     -23.879  -5.210   9.226  0.00  0.00    +0.000 OA
ATOM     24  H   UNL     1     -23.724  -4.616   8.462  0.00  0.00    +0.000 HD
ENDBRANCH  13  23
BRANCH   3  25
ATOM     25  O   UNL     1     -21.944   1.306  10.027  0.00  0.00    +0.000 OA
BRANCH  25  27
ATOM     26  O   UNL     1     -19.783   1.475   9.439  0.00  0.00    +0.000 OA
ATOM     27  C   UNL     1     -20.618   1.219  10.304  0.00  0.00    +0.000 C 
ATOM     28  C   UNL     1     -20.194   0.886  11.703  0.00  0.00    +0.000 C 
ENDBRANCH  25  27
ENDBRANCH   3  25
BRANCH  15  29
ATOM     29  C   UNL     1     -19.541  -3.959   8.429  0.00  0.00    +0.000 C 
BRANCH  29  30
ATOM     30  O   UNL     1     -18.840  -4.739   7.474  0.00  0.00    +0.000 OA
ATOM     31  H   UNL     1     -19.236  -4.540   6.607  0.00  0.00    +0.000 HD
ENDBRANCH  29  30
ENDBRANCH  15  29
BRANCH   6  32
ATOM     32  O   UNL     1     -23.415   0.689  12.120  0.00  0.00    +0.000 OA
BRANCH  32  34
ATOM     33  O   UNL     1     -25.556   0.645  12.764  0.00  0.00    +0.000 OA
ATOM     34  C   UNL     1     -24.400   0.989  12.997  0.00  0.00    +0.000 C 
BRANCH  34  35
ATOM     35  C   UNL     1     -24.064   1.747  14.257  0.00  0.00    +0.000 C 
BRANCH  35  36
ATOM     36  C   UNL     1     -23.799   0.806  15.427  0.00  0.00    +0.000 C 
BRANCH  36  37
ATOM     37  C   UNL     1     -24.754   0.992  16.611  0.00  0.00    +0.000 C 
BRANCH  37  38
ATOM     38  C   UNL     1     -24.072   1.435  17.912  0.00  0.00    +0.000 C 
BRANCH  38  39
ATOM     39  C   UNL     1     -22.549   1.275  17.859  0.00  0.00    +0.000 C 
BRANCH  39  40
ATOM     40  C   UNL     1     -21.885   1.284  19.239  0.00  0.00    +0.000 C 
BRANCH  40  41
ATOM     41  C   UNL     1     -21.841  -0.100  19.892  0.00  0.00    +0.000 C 
BRANCH  41  42
ATOM     42  C   UNL     1     -21.503  -1.224  18.908  0.00  0.00    +0.000 C 
BRANCH  42  43
ATOM     43  C   UNL     1     -22.598  -2.274  18.695  0.00  0.00    +0.000 C 
BRANCH  43  44
ATOM     44  C   UNL     1     -23.265  -2.263  17.316  0.00  0.00    +0.000 C 
BRANCH  44  45
ATOM     45  C   UNL     1     -24.398  -3.275  17.121  0.00  0.00    +0.000 C 
BRANCH  45  46
ATOM     46  C   UNL     1     -24.265  -4.198  15.908  0.00  0.00    +0.000 C 
ATOM     47  C   UNL     1     -24.882  -5.571  16.122  0.00  0.00    +0.000 C 
ENDBRANCH  45  46
ENDBRANCH  44  45
ENDBRANCH  43  44
ENDBRANCH  42  43
ENDBRANCH  41  42
ENDBRANCH  40  41
ENDBRANCH  39  40
ENDBRANCH  38  39
ENDBRANCH  37  38
ENDBRANCH  36  37
ENDBRANCH  35  36
ENDBRANCH  34  35
ENDBRANCH  32  34
ENDBRANCH   6  32
TORSDOF 20
ENDMDL
MODEL 4
REMARK VINA RESULT:      -4.8     16.710     20.871
REMARK  Name = 27924_Phorbol.pdbqt.pdb
REMARK  26 active torsions:
REMARK  status: ('A' for Active; 'I' for Inactive)
REMARK    1  A    between atoms: O_1  and  C_10
REMARK    2  A    between atoms: O_1  and  C_26
REMARK    3  A    between atoms: O_2  and  C_13
REMARK    4  A    between atoms: O_2  and  C_28
REMARK    5  A    between atoms: O_3  and  C_14
REMARK    6  A    between atoms: O_4  and  C_20
REMARK    7  A    between atoms: O_7  and  C_29
REMARK    8  A    between atoms: C_11  and  C_16
REMARK    9  A    between atoms: C_11  and  C_17
REMARK   10  A    between atoms: C_15  and  C_21
REMARK   11  A    between atoms: C_22  and  C_29
REMARK   12  A    between atoms: C_26  and  C_30
REMARK   13  A    between atoms: C_27  and  C_31
REMARK   14  A    between atoms: C_28  and  C_32
REMARK   15  A    between atoms: C_32  and  C_33
REMARK   16  A    between atoms: C_33  and  C_34
REMARK   17  A    between atoms: C_34  and  C_35
REMARK   18  A    between atoms: C_35  and  C_36
REMARK   19  A    between atoms: C_36  and  C_37
REMARK   20  A    between atoms: C_37  and  C_38
REMARK   21  A    between atoms: C_38  and  C_39
REMARK   22  A    between atoms: C_39  and  C_40
REMARK   23  A    between atoms: C_40  and  C_41
REMARK   24  A    between atoms: C_41  and  C_42
REMARK   25  A    between atoms: C_42  and  C_43
REMARK   26  A    between atoms: C_43  and  C_44
REMARK                            x       y       z     vdW  Elec       q    Type
REMARK                         _______ _______ _______ _____ _____    ______ ____
ROOT
ATOM      1  O   UNL     1     -22.717  -8.010   9.900  0.00  0.00    +0.000 OA
ATOM      2  C   UNL     1     -22.166  -1.042   8.673  0.00  0.00    +0.000 C 
ATOM      3  C   UNL     1     -22.941  -0.060   9.532  0.00  0.00    +0.000 C 
ATOM      4  C   UNL     1     -23.360  -0.336   8.060  0.00  0.00    +0.000 C 
ATOM      5  C   UNL     1     -21.984  -2.465   9.107  0.00  0.00    +0.000 C 
ATOM      6  C   UNL     1     -23.677  -0.630  10.759  0.00  0.00    +0.000 C 
ATOM      7  C   UNL     1     -22.934  -3.031  10.260  0.00  0.00    +0.000 C 
ATOM      8  C   UNL     1     -22.934  -1.882  11.345  0.00  0.00    +0.000 C 
ATOM      9  C   UNL     1     -23.002   0.665   6.974  0.00  0.00    +0.000 C 
ATOM     10  C   UNL     1     -24.617  -1.094   7.713  0.00  0.00    +0.000 C 
ATOM     11  C   UNL     1     -22.415  -4.497  10.684  0.00  0.00    +0.000 C 
ATOM     12  C   UNL     1     -21.807  -3.431   7.950  0.00  0.00    +0.000 C 
ATOM     13  C   UNL     1     -22.541  -5.609   9.550  0.00  0.00    +0.000 C 
ATOM     14  C   UNL     1     -23.515  -2.253  12.710  0.00  0.00    +0.000 C 
ATOM     15  C   UNL     1     -20.862  -4.384   8.107  0.00  0.00    +0.000 C 
ATOM     16  C   UNL     1     -21.347  -5.743   8.580  0.00  0.00    +0.000 C 
ATOM     17  C   UNL     1     -23.081  -5.227  11.844  0.00  0.00    +0.000 C 
ATOM     18  C   UNL     1     -22.766  -6.874  10.350  0.00  0.00    +0.000 C 
ATOM     19  C   UNL     1     -23.217  -6.553  11.708  0.00  0.00    +0.000 C 
ATOM     20  C   UNL     1     -23.727  -7.571  12.651  0.00  0.00    +0.000 C 
ENDROOT
BRANCH   7  21
ATOM     21  O   UNL     1     -24.292  -3.166   9.823  0.00  0.00    +0.000 OA
ATOM     22  H   UNL     1     -24.715  -2.280   9.872  0.00  0.00    +0.000 HD
ENDBRANCH   7  21
BRANCH  13  23
ATOM     23  O   UNL     1     -23.771  -5.464   8.799  0.00  0.00    +0.000 OA
ATOM     24  H   UNL     1     -24.035  -4.524   8.890  0.00  0.00    +0.000 HD
ENDBRANCH  13  23
BRANCH   3  25
ATOM     25  O   UNL     1     -22.113   1.098   9.817  0.00  0.00    +0.000 OA
BRANCH  25  27
ATOM     26  O   UNL     1     -19.917   1.320   9.407  0.00  0.00    +0.000 OA
ATOM     27  C   UNL     1     -20.813   1.047  10.203  0.00  0.00    +0.000 C 
ATOM     28  C   UNL     1     -20.497   0.734  11.634  0.00  0.00    +0.000 C 
ENDBRANCH  25  27
ENDBRANCH   3  25
BRANCH  15  29
ATOM     29  C   UNL     1     -19.418  -4.079   8.409  0.00  0.00    +0.000 C 
BRANCH  29  30
ATOM     30  O   UNL     1     -18.610  -4.920   7.604  0.00  0.00    +0.000 OA
ATOM     31  H   UNL     1     -18.164  -5.541   8.208  0.00  0.00    +0.000 HD
ENDBRANCH  29  30
ENDBRANCH  15  29
BRANCH   6  32
ATOM     32  O   UNL     1     -23.749   0.418  11.764  0.00  0.00    +0.000 OA
BRANCH  32  34
ATOM     33  O   UNL     1     -24.520   2.456  12.269  0.00  0.00    +0.000 OA
ATOM     34  C   UNL     1     -24.758   1.309  11.898  0.00  0.00    +0.000 C 
BRANCH  34  35
ATOM     35  C   UNL     1     -26.171   0.880  11.590  0.00  0.00    +0.000 C 
BRANCH  35  36
ATOM     36  C   UNL     1     -27.145   1.325  12.674  0.00  0.00    +0.000 C 
BRANCH  36  37
ATOM     37  C   UNL     1     -27.829   0.171  13.415  0.00  0.00    +0.000 C 
BRANCH  37  38
ATOM     38  C   UNL     1     -27.089  -1.170  13.323  0.00  0.00    +0.000 C 
BRANCH  38  39
ATOM     39  C   UNL     1     -27.901  -2.239  12.584  0.00  0.00    +0.000 C 
BRANCH  39  40
ATOM     40  C   UNL     1     -27.036  -3.312  11.917  0.00  0.00    +0.000 C 
BRANCH  40  41
ATOM     41  C   UNL     1     -27.559  -4.732  12.145  0.00  0.00    +0.000 C 
BRANCH  41  42
ATOM     42  C   UNL     1     -26.687  -5.553  13.100  0.00  0.00    +0.000 C 
BRANCH  42  43
ATOM     43  C   UNL     1     -26.660  -5.076  14.555  0.00  0.00    +0.000 C 
BRANCH  43  44
ATOM     44  C   UNL     1     -25.367  -4.388  15.002  0.00  0.00    +0.000 C 
BRANCH  44  45
ATOM     45  C   UNL     1     -24.292  -5.313  15.581  0.00  0.00    +0.000 C 
BRANCH  45  46
ATOM     46  C   UNL     1     -24.789  -6.654  16.124  0.00  0.00    +0.000 C 
ATOM     47  C   UNL     1     -23.668  -7.626  16.457  0.00  0.00    +0.000 C 
ENDBRANCH  45  46
ENDBRANCH  44  45
ENDBRANCH  43  44
ENDBRANCH  42  43
ENDBRANCH  41  42
ENDBRANCH  40  41
ENDBRANCH  39  40
ENDBRANCH  38  39
ENDBRANCH  37  38
ENDBRANCH  36  37
ENDBRANCH  35  36
ENDBRANCH  34  35
ENDBRANCH  32  34
ENDBRANCH   6  32
TORSDOF 20
ENDMDL
MODEL 5
REMARK VINA RESULT:      -4.8     16.902     21.624
REMARK  Name = 27924_Phorbol.pdbqt.pdb
REMARK  26 active torsions:
REMARK  status: ('A' for Active; 'I' for Inactive)
REMARK    1  A    between atoms: O_1  and  C_10
REMARK    2  A    between atoms: O_1  and  C_26
REMARK    3  A    between atoms: O_2  and  C_13
REMARK    4  A    between atoms: O_2  and  C_28
REMARK    5  A    between atoms: O_3  and  C_14
REMARK    6  A    between atoms: O_4  and  C_20
REMARK    7  A    between atoms: O_7  and  C_29
REMARK    8  A    between atoms: C_11  and  C_16
REMARK    9  A    between atoms: C_11  and  C_17
REMARK   10  A    between atoms: C_15  and  C_21
REMARK   11  A    between atoms: C_22  and  C_29
REMARK   12  A    between atoms: C_26  and  C_30
REMARK   13  A    between atoms: C_27  and  C_31
REMARK   14  A    between atoms: C_28  and  C_32
REMARK   15  A    between atoms: C_32  and  C_33
REMARK   16  A    between atoms: C_33  and  C_34
REMARK   17  A    between atoms: C_34  and  C_35
REMARK   18  A    between atoms: C_35  and  C_36
REMARK   19  A    between atoms: C_36  and  C_37
REMARK   20  A    between atoms: C_37  and  C_38
REMARK   21  A    between atoms: C_38  and  C_39
REMARK   22  A    between atoms: C_39  and  C_40
REMARK   23  A    between atoms: C_40  and  C_41
REMARK   24  A    between atoms: C_41  and  C_42
REMARK   25  A    between atoms: C_42  and  C_43
REMARK   26  A    between atoms: C_43  and  C_44
REMARK                            x       y       z     vdW  Elec       q    Type
REMARK                         _______ _______ _______ _____ _____    ______ ____
ROOT
ATOM      1  O   UNL     1     -21.785  -6.622  13.021  0.00  0.00    +0.000 OA
ATOM      2  C   UNL     1     -23.505  -3.594   6.837  0.00  0.00    +0.000 C 
ATOM      3  C   UNL     1     -24.665  -2.618   6.771  0.00  0.00    +0.000 C 
ATOM      4  C   UNL     1     -24.785  -4.044   6.162  0.00  0.00    +0.000 C 
ATOM      5  C   UNL     1     -22.900  -3.981   8.154  0.00  0.00    +0.000 C 
ATOM      6  C   UNL     1     -25.303  -2.195   8.108  0.00  0.00    +0.000 C 
ATOM      7  C   UNL     1     -23.730  -3.677   9.484  0.00  0.00    +0.000 C 
ATOM      8  C   UNL     1     -24.253  -2.200   9.274  0.00  0.00    +0.000 C 
ATOM      9  C   UNL     1     -24.663  -4.235   4.659  0.00  0.00    +0.000 C 
ATOM     10  C   UNL     1     -25.657  -5.109   6.780  0.00  0.00    +0.000 C 
ATOM     11  C   UNL     1     -22.797  -3.994  10.760  0.00  0.00    +0.000 C 
ATOM     12  C   UNL     1     -22.267  -5.360   8.145  0.00  0.00    +0.000 C 
ATOM     13  C   UNL     1     -22.399  -5.526  10.938  0.00  0.00    +0.000 C 
ATOM     14  C   UNL     1     -24.831  -1.514  10.511  0.00  0.00    +0.000 C 
ATOM     15  C   UNL     1     -21.080  -5.475   8.779  0.00  0.00    +0.000 C 
ATOM     16  C   UNL     1     -21.124  -5.997  10.204  0.00  0.00    +0.000 C 
ATOM     17  C   UNL     1     -23.306  -3.690  12.163  0.00  0.00    +0.000 C 
ATOM     18  C   UNL     1     -22.272  -5.664  12.440  0.00  0.00    +0.000 C 
ATOM     19  C   UNL     1     -22.965  -4.563  13.119  0.00  0.00    +0.000 C 
ATOM     20  C   UNL     1     -23.205  -4.540  14.577  0.00  0.00    +0.000 C 
ENDROOT
BRANCH   7  21
ATOM     21  O   UNL     1     -24.899  -4.501   9.592  0.00  0.00    +0.000 OA
ATOM     22  H   UNL     1     -25.073  -4.652  10.548  0.00  0.00    +0.000 HD
ENDBRANCH   7  21
BRANCH  13  23
ATOM     23  O   UNL     1     -23.505  -6.403  10.613  0.00  0.00    +0.000 OA
ATOM     24  H   UNL     1     -24.299  -6.002  11.025  0.00  0.00    +0.000 HD
ENDBRANCH  13  23
BRANCH   3  25
ATOM     25  O   UNL     1     -24.323  -1.512   5.896  0.00  0.00    +0.000 OA
BRANCH  25  27
ATOM     26  O   UNL     1     -22.439  -1.236   4.706  0.00  0.00    +0.000 OA
ATOM     27  C   UNL     1     -23.074  -1.008   5.734  0.00  0.00    +0.000 C 
ATOM     28  C   UNL     1     -22.518  -0.102   6.792  0.00  0.00    +0.000 C 
ENDBRANCH  25  27
ENDBRANCH   3  25
BRANCH  15  29
ATOM     29  C   UNL     1     -19.874  -4.638   8.442  0.00  0.00    +0.000 C 
BRANCH  29  30
ATOM     30  O   UNL     1     -18.817  -5.510   8.078  0.00  0.00    +0.000 OA
ATOM     31  H   UNL     1     -18.312  -5.692   8.891  0.00  0.00    +0.000 HD
ENDBRANCH  29  30
ENDBRANCH  15  29
BRANCH   6  32
ATOM     32  O   UNL     1     -25.849  -0.858   7.939  0.00  0.00    +0.000 OA
BRANCH  32  34
ATOM     33  O   UNL     1     -28.035  -1.283   7.742  0.00  0.00    +0.000 OA
ATOM     34  C   UNL     1     -27.147  -0.514   8.099  0.00  0.00    +0.000 C 
BRANCH  34  35
ATOM     35  C   UNL     1     -27.488   0.819   8.717  0.00  0.00    +0.000 C 
BRANCH  35  36
ATOM     36  C   UNL     1     -26.557   1.922   8.228  0.00  0.00    +0.000 C 
BRANCH  36  37
ATOM     37  C   UNL     1     -25.439   2.283   9.213  0.00  0.00    +0.000 C 
BRANCH  37  38
ATOM     38  C   UNL     1     -24.084   2.575   8.555  0.00  0.00    +0.000 C 
BRANCH  38  39
ATOM     39  C   UNL     1     -23.350   3.745   9.219  0.00  0.00    +0.000 C 
BRANCH  39  40
ATOM     40  C   UNL     1     -23.933   4.141  10.578  0.00  0.00    +0.000 C 
BRANCH  40  41
ATOM     41  C   UNL     1     -22.991   3.840  11.746  0.00  0.00    +0.000 C 
BRANCH  41  42
ATOM     42  C   UNL     1     -23.553   2.807  12.727  0.00  0.00    +0.000 C 
BRANCH  42  43
ATOM     43  C   UNL     1     -23.599   1.363  12.220  0.00  0.00    +0.000 C 
BRANCH  43  44
ATOM     44  C   UNL     1     -22.520   0.431  12.780  0.00  0.00    +0.000 C 
BRANCH  44  45
ATOM     45  C   UNL     1     -21.477  -0.056  11.770  0.00  0.00    +0.000 C 
BRANCH  45  46
ATOM     46  C   UNL     1     -21.626   0.485  10.347  0.00  0.00    +0.000 C 
ATOM     47  C   UNL     1     -20.519   1.447   9.945  0.00  0.00    +0.000 C 
ENDBRANCH  45  46
ENDBRANCH  44  45
ENDBRANCH  43  44
ENDBRANCH  42  43
ENDBRANCH  41  42
ENDBRANCH  40  41
ENDBRANCH  39  40
ENDBRANCH  38  39
ENDBRANCH  37  38
ENDBRANCH  36  37
ENDBRANCH  35  36
ENDBRANCH  34  35
ENDBRANCH  32  34
ENDBRANCH   6  32
TORSDOF 20
ENDMDL
MODEL 6
REMARK VINA RESULT:      -4.5     18.917     23.168
REMARK  Name = 27924_Phorbol.pdbqt.pdb
REMARK  26 active torsions:
REMARK  status: ('A' for Active; 'I' for Inactive)
REMARK    1  A    between atoms: O_1  and  C_10
REMARK    2  A    between atoms: O_1  and  C_26
REMARK    3  A    between atoms: O_2  and  C_13
REMARK    4  A    between atoms: O_2  and  C_28
REMARK    5  A    between atoms: O_3  and  C_14
REMARK    6  A    between atoms: O_4  and  C_20
REMARK    7  A    between atoms: O_7  and  C_29
REMARK    8  A    between atoms: C_11  and  C_16
REMARK    9  A    between atoms: C_11  and  C_17
REMARK   10  A    between atoms: C_15  and  C_21
REMARK   11  A    between atoms: C_22  and  C_29
REMARK   12  A    between atoms: C_26  and  C_30
REMARK   13  A    between atoms: C_27  and  C_31
REMARK   14  A    between atoms: C_28  and  C_32
REMARK   15  A    between atoms: C_32  and  C_33
REMARK   16  A    between atoms: C_33  and  C_34
REMARK   17  A    between atoms: C_34  and  C_35
REMARK   18  A    between atoms: C_35  and  C_36
REMARK   19  A    between atoms: C_36  and  C_37
REMARK   20  A    between atoms: C_37  and  C_38
REMARK   21  A    between atoms: C_38  and  C_39
REMARK   22  A    between atoms: C_39  and  C_40
REMARK   23  A    between atoms: C_40  and  C_41
REMARK   24  A    between atoms: C_41  and  C_42
REMARK   25  A    between atoms: C_42  and  C_43
REMARK   26  A    between atoms: C_43  and  C_44
REMARK                            x       y       z     vdW  Elec       q    Type
REMARK                         _______ _______ _______ _____ _____    ______ ____
ROOT
ATOM      1  O   UNL     1      11.953 -12.577  15.322  0.00  0.00    +0.000 OA
ATOM      2  C   UNL     1       4.928 -13.451  14.827  0.00  0.00    +0.000 C 
ATOM      3  C   UNL     1       4.088 -12.418  14.099  0.00  0.00    +0.000 C 
ATOM      4  C   UNL     1       4.043 -12.536  15.650  0.00  0.00    +0.000 C 
ATOM      5  C   UNL     1       6.418 -13.486  14.660  0.00  0.00    +0.000 C 
ATOM      6  C   UNL     1       4.841 -11.309  13.341  0.00  0.00    +0.000 C 
ATOM      7  C   UNL     1       7.138 -12.202  14.040  0.00  0.00    +0.000 C 
ATOM      8  C   UNL     1       6.227 -11.816  12.808  0.00  0.00    +0.000 C 
ATOM      9  C   UNL     1       2.872 -13.237  16.319  0.00  0.00    +0.000 C 
ATOM     10  C   UNL     1       4.637 -11.482  16.552  0.00  0.00    +0.000 C 
ATOM     11  C   UNL     1       8.689 -12.556  13.777  0.00  0.00    +0.000 C 
ATOM     12  C   UNL     1       7.147 -14.061  15.861  0.00  0.00    +0.000 C 
ATOM     13  C   UNL     1       9.546 -12.840  15.089  0.00  0.00    +0.000 C 
ATOM     14  C   UNL     1       6.822 -10.803  11.830  0.00  0.00    +0.000 C 
ATOM     15  C   UNL     1       8.168 -14.902  15.592  0.00  0.00    +0.000 C 
ATOM     16  C   UNL     1       9.561 -14.297  15.602  0.00  0.00    +0.000 C 
ATOM     17  C   UNL     1       9.590 -11.538  13.089  0.00  0.00    +0.000 C 
ATOM     18  C   UNL     1      10.927 -12.365  14.693  0.00  0.00    +0.000 C 
ATOM     19  C   UNL     1      10.852 -11.469  13.533  0.00  0.00    +0.000 C 
ATOM     20  C   UNL     1      12.001 -10.675  13.051  0.00  0.00    +0.000 C 
ENDROOT
BRANCH   7  21
ATOM     21  O   UNL     1       7.100 -11.079  14.931  0.00  0.00    +0.000 OA
ATOM     22  H   UNL     1       7.398 -10.287  14.430  0.00  0.00    +0.000 HD
ENDBRANCH   7  21
BRANCH  13  23
ATOM     23  O   UNL     1       9.180 -11.943  16.166  0.00  0.00    +0.000 OA
ATOM     24  H   UNL     1       8.233 -11.729  16.031  0.00  0.00    +0.000 HD
ENDBRANCH  13  23
BRANCH   3  25
ATOM     25  O   UNL     1       3.063 -13.085  13.319  0.00  0.00    +0.000 OA
BRANCH  25  27
ATOM     26  O   UNL     1       3.926 -14.174  11.555  0.00  0.00    +0.000 OA
ATOM     27  C   UNL     1       3.255 -14.210  12.584  0.00  0.00    +0.000 C 
ATOM     28  C   UNL     1       2.704 -15.508  13.094  0.00  0.00    +0.000 C 
ENDBRANCH  25  27
ENDBRANCH   3  25
BRANCH  15  29
ATOM     29  C   UNL     1       8.020 -16.150  14.761  0.00  0.00    +0.000 C 
BRANCH  29  30
ATOM     30  O   UNL     1       8.417 -17.258  15.551  0.00  0.00    +0.000 OA
ATOM     31  H   UNL     1       9.384 -17.327  15.469  0.00  0.00    +0.000 HD
ENDBRANCH  29  30
ENDBRANCH  15  29
BRANCH   6  32
ATOM     32  O   UNL     1       4.008 -10.884  12.228  0.00  0.00    +0.000 OA
BRANCH  32  34
ATOM     33  O   UNL     1       2.964  -9.357  10.971  0.00  0.00    +0.000 OA
ATOM     34  C   UNL     1       3.613  -9.614  11.982  0.00  0.00    +0.000 C 
BRANCH  34  35
ATOM     35  C   UNL     1       3.977  -8.524  12.959  0.00  0.00    +0.000 C 
BRANCH  35  36
ATOM     36  C   UNL     1       4.980  -7.545  12.362  0.00  0.00    +0.000 C 
BRANCH  36  37
ATOM     37  C   UNL     1       5.187  -6.273  13.193  0.00  0.00    +0.000 C 
BRANCH  37  38
ATOM     38  C   UNL     1       6.140  -6.442  14.384  0.00  0.00    +0.000 C 
BRANCH  38  39
ATOM     39  C   UNL     1       5.579  -5.835  15.674  0.00  0.00    +0.000 C 
BRANCH  39  40
ATOM     40  C   UNL     1       6.285  -4.546  16.101  0.00  0.00    +0.000 C 
BRANCH  40  41
ATOM     41  C   UNL     1       5.563  -3.281  15.628  0.00  0.00    +0.000 C 
BRANCH  41  42
ATOM     42  C   UNL     1       4.081  -3.252  16.010  0.00  0.00    +0.000 C 
BRANCH  42  43
ATOM     43  C   UNL     1       3.725  -2.404  17.235  0.00  0.00    +0.000 C 
BRANCH  43  44
ATOM     44  C   UNL     1       3.385  -3.188  18.506  0.00  0.00    +0.000 C 
BRANCH  44  45
ATOM     45  C   UNL     1       4.313  -2.947  19.700  0.00  0.00    +0.000 C 
BRANCH  45  46
ATOM     46  C   UNL     1       5.779  -2.671  19.359  0.00  0.00    +0.000 C 
ATOM     47  C   UNL     1       6.212  -1.245  19.660  0.00  0.00    +0.000 C 
ENDBRANCH  45  46
ENDBRANCH  44  45
ENDBRANCH  43  44
ENDBRANCH  42  43
ENDBRANCH  41  42
ENDBRANCH  40  41
ENDBRANCH  39  40
ENDBRANCH  38  39
ENDBRANCH  37  38
ENDBRANCH  36  37
ENDBRANCH  35  36
ENDBRANCH  34  35
ENDBRANCH  32  34
ENDBRANCH   6  32
TORSDOF 20
ENDMDL
MODEL 7
REMARK VINA RESULT:      -4.5     24.973     29.810
REMARK  Name = 27924_Phorbol.pdbqt.pdb
REMARK  26 active torsions:
REMARK  status: ('A' for Active; 'I' for Inactive)
REMARK    1  A    between atoms: O_1  and  C_10
REMARK    2  A    between atoms: O_1  and  C_26
REMARK    3  A    between atoms: O_2  and  C_13
REMARK    4  A    between atoms: O_2  and  C_28
REMARK    5  A    between atoms: O_3  and  C_14
REMARK    6  A    between atoms: O_4  and  C_20
REMARK    7  A    between atoms: O_7  and  C_29
REMARK    8  A    between atoms: C_11  and  C_16
REMARK    9  A    between atoms: C_11  and  C_17
REMARK   10  A    between atoms: C_15  and  C_21
REMARK   11  A    between atoms: C_22  and  C_29
REMARK   12  A    between atoms: C_26  and  C_30
REMARK   13  A    between atoms: C_27  and  C_31
REMARK   14  A    between atoms: C_28  and  C_32
REMARK   15  A    between atoms: C_32  and  C_33
REMARK   16  A    between atoms: C_33  and  C_34
REMARK   17  A    between atoms: C_34  and  C_35
REMARK   18  A    between atoms: C_35  and  C_36
REMARK   19  A    between atoms: C_36  and  C_37
REMARK   20  A    between atoms: C_37  and  C_38
REMARK   21  A    between atoms: C_38  and  C_39
REMARK   22  A    between atoms: C_39  and  C_40
REMARK   23  A    between atoms: C_40  and  C_41
REMARK   24  A    between atoms: C_41  and  C_42
REMARK   25  A    between atoms: C_42  and  C_43
REMARK   26  A    between atoms: C_43  and  C_44
REMARK                            x       y       z     vdW  Elec       q    Type
REMARK                         _______ _______ _______ _____ _____    ______ ____
ROOT
ATOM      1  O   UNL     1      -0.907  -6.333  -1.149  0.00  0.00    +0.000 OA
ATOM      2  C   UNL     1      -7.690  -8.244  -0.318  0.00  0.00    +0.000 C 
ATOM      3  C   UNL     1      -8.322  -9.227  -1.286  0.00  0.00    +0.000 C 
ATOM      4  C   UNL     1      -8.700  -7.718  -1.318  0.00  0.00    +0.000 C 
ATOM      5  C   UNL     1      -6.201  -8.083  -0.248  0.00  0.00    +0.000 C 
ATOM      6  C   UNL     1      -7.389  -9.904  -2.306  0.00  0.00    +0.000 C 
ATOM      7  C   UNL     1      -5.324  -8.648  -1.458  0.00  0.00    +0.000 C 
ATOM      8  C   UNL     1      -5.939 -10.078  -1.734  0.00  0.00    +0.000 C 
ATOM      9  C   UNL     1     -10.008  -7.255  -0.699  0.00  0.00    +0.000 C 
ATOM     10  C   UNL     1      -8.277  -6.810  -2.447  0.00  0.00    +0.000 C 
ATOM     11  C   UNL     1      -3.765  -8.539  -1.061  0.00  0.00    +0.000 C 
ATOM     12  C   UNL     1      -5.764  -6.706   0.217  0.00  0.00    +0.000 C 
ATOM     13  C   UNL     1      -3.216  -7.053  -0.895  0.00  0.00    +0.000 C 
ATOM     14  C   UNL     1      -5.117 -10.994  -2.640  0.00  0.00    +0.000 C 
ATOM     15  C   UNL     1      -4.736  -6.671   1.092  0.00  0.00    +0.000 C 
ATOM     16  C   UNL     1      -3.359  -6.417   0.506  0.00  0.00    +0.000 C 
ATOM     17  C   UNL     1      -2.706  -9.107  -1.996  0.00  0.00    +0.000 C 
ATOM     18  C   UNL     1      -1.768  -7.185  -1.312  0.00  0.00    +0.000 C 
ATOM     19  C   UNL     1      -1.566  -8.411  -2.092  0.00  0.00    +0.000 C 
ATOM     20  C   UNL     1      -0.315  -8.706  -2.822  0.00  0.00    +0.000 C 
ENDROOT
BRANCH   7  21
ATOM     21  O   UNL     1      -5.514  -7.894  -2.662  0.00  0.00    +0.000 OA
ATOM     22  H   UNL     1      -4.684  -7.399  -2.842  0.00  0.00    +0.000 HD
ENDBRANCH   7  21
BRANCH  13  23
ATOM     23  O   UNL     1      -3.774  -6.166  -1.895  0.00  0.00    +0.000 OA
ATOM     24  H   UNL     1      -4.304  -6.733  -2.494  0.00  0.00    +0.000 HD
ENDBRANCH  13  23
BRANCH   3  25
ATOM     25  O   UNL     1      -9.179 -10.145  -0.558  0.00  0.00    +0.000 OA
BRANCH  25  27
ATOM     26  O   UNL     1     -10.444 -11.988  -0.768  0.00  0.00    +0.000 OA
ATOM     27  C   UNL     1     -10.224 -10.824  -1.096  0.00  0.00    +0.000 C 
ATOM     28  C   UNL     1     -11.149 -10.104  -2.031  0.00  0.00    +0.000 C 
ENDBRANCH  25  27
ENDBRANCH   3  25
BRANCH  15  29
ATOM     29  C   UNL     1      -4.745  -7.396   2.413  0.00  0.00    +0.000 C 
BRANCH  29  30
ATOM     30  O   UNL     1      -5.743  -6.811   3.233  0.00  0.00    +0.000 OA
ATOM     31  H   UNL     1      -5.878  -5.904   2.904  0.00  0.00    +0.000 HD
ENDBRANCH  29  30
ENDBRANCH  15  29
BRANCH   6  32
ATOM     32  O   UNL     1      -7.952 -11.204  -2.632  0.00  0.00    +0.000 OA
BRANCH  32  34
ATOM     33  O   UNL     1      -8.840 -10.919  -4.664  0.00  0.00    +0.000 OA
ATOM     34  C   UNL     1      -8.240 -11.647  -3.877  0.00  0.00    +0.000 C 
BRANCH  34  35
ATOM     35  C   UNL     1      -7.818 -13.036  -4.286  0.00  0.00    +0.000 C 
BRANCH  35  36
ATOM     36  C   UNL     1      -6.702 -13.004  -5.323  0.00  0.00    +0.000 C 
BRANCH  36  37
ATOM     37  C   UNL     1      -6.366 -14.372  -5.927  0.00  0.00    +0.000 C 
BRANCH  37  38
ATOM     38  C   UNL     1      -4.979 -14.908  -5.550  0.00  0.00    +0.000 C 
BRANCH  38  39
ATOM     39  C   UNL     1      -5.006 -15.762  -4.277  0.00  0.00    +0.000 C 
BRANCH  39  40
ATOM     40  C   UNL     1      -4.503 -15.023  -3.034  0.00  0.00    +0.000 C 
BRANCH  40  41
ATOM     41  C   UNL     1      -5.503 -15.049  -1.875  0.00  0.00    +0.000 C 
BRANCH  41  42
ATOM     42  C   UNL     1      -4.966 -15.758  -0.629  0.00  0.00    +0.000 C 
BRANCH  42  43
ATOM     43  C   UNL     1      -5.655 -17.075  -0.262  0.00  0.00    +0.000 C 
BRANCH  43  44
ATOM     44  C   UNL     1      -6.513 -17.702  -1.366  0.00  0.00    +0.000 C 
BRANCH  44  45
ATOM     45  C   UNL     1      -5.830 -18.794  -2.194  0.00  0.00    +0.000 C 
BRANCH  45  46
ATOM     46  C   UNL     1      -4.413 -19.173  -1.758  0.00  0.00    +0.000 C 
ATOM     47  C   UNL     1      -3.335 -18.684  -2.713  0.00  0.00    +0.000 C 
ENDBRANCH  45  46
ENDBRANCH  44  45
ENDBRANCH  43  44
ENDBRANCH  42  43
ENDBRANCH  41  42
ENDBRANCH  40  41
ENDBRANCH  39  40
ENDBRANCH  38  39
ENDBRANCH  37  38
ENDBRANCH  36  37
ENDBRANCH  35  36
ENDBRANCH  34  35
ENDBRANCH  32  34
ENDBRANCH   6  32
TORSDOF 20
ENDMDL
MODEL 8
REMARK VINA RESULT:      -4.4      3.498      5.079
REMARK  Name = 27924_Phorbol.pdbqt.pdb
REMARK  26 active torsions:
REMARK  status: ('A' for Active; 'I' for Inactive)
REMARK    1  A    between atoms: O_1  and  C_10
REMARK    2  A    between atoms: O_1  and  C_26
REMARK    3  A    between atoms: O_2  and  C_13
REMARK    4  A    between atoms: O_2  and  C_28
REMARK    5  A    between atoms: O_3  and  C_14
REMARK    6  A    between atoms: O_4  and  C_20
REMARK    7  A    between atoms: O_7  and  C_29
REMARK    8  A    between atoms: C_11  and  C_16
REMARK    9  A    between atoms: C_11  and  C_17
REMARK   10  A    between atoms: C_15  and  C_21
REMARK   11  A    between atoms: C_22  and  C_29
REMARK   12  A    between atoms: C_26  and  C_30
REMARK   13  A    between atoms: C_27  and  C_31
REMARK   14  A    between atoms: C_28  and  C_32
REMARK   15  A    between atoms: C_32  and  C_33
REMARK   16  A    between atoms: C_33  and  C_34
REMARK   17  A    between atoms: C_34  and  C_35
REMARK   18  A    between atoms: C_35  and  C_36
REMARK   19  A    between atoms: C_36  and  C_37
REMARK   20  A    between atoms: C_37  and  C_38
REMARK   21  A    between atoms: C_38  and  C_39
REMARK   22  A    between atoms: C_39  and  C_40
REMARK   23  A    between atoms: C_40  and  C_41
REMARK   24  A    between atoms: C_41  and  C_42
REMARK   25  A    between atoms: C_42  and  C_43
REMARK   26  A    between atoms: C_43  and  C_44
REMARK                            x       y       z     vdW  Elec       q    Type
REMARK                         _______ _______ _______ _____ _____    ______ ____
ROOT
ATOM      1  O   UNL     1     -13.709  -1.157  31.707  0.00  0.00    +0.000 OA
ATOM      2  C   UNL     1     -11.000  -5.794  27.068  0.00  0.00    +0.000 C 
ATOM      3  C   UNL     1     -11.107  -5.522  25.579  0.00  0.00    +0.000 C 
ATOM      4  C   UNL     1     -11.970  -6.627  26.253  0.00  0.00    +0.000 C 
ATOM      5  C   UNL     1     -11.242  -4.703  28.067  0.00  0.00    +0.000 C 
ATOM      6  C   UNL     1     -11.647  -4.144  25.154  0.00  0.00    +0.000 C 
ATOM      7  C   UNL     1     -11.991  -3.381  27.575  0.00  0.00    +0.000 C 
ATOM      8  C   UNL     1     -11.286  -3.036  26.204  0.00  0.00    +0.000 C 
ATOM      9  C   UNL     1     -11.572  -8.086  26.111  0.00  0.00    +0.000 C 
ATOM     10  C   UNL     1     -13.461  -6.481  26.432  0.00  0.00    +0.000 C 
ATOM     11  C   UNL     1     -11.951  -2.291  28.763  0.00  0.00    +0.000 C 
ATOM     12  C   UNL     1     -11.742  -5.211  29.407  0.00  0.00    +0.000 C 
ATOM     13  C   UNL     1     -12.768  -2.691  30.070  0.00  0.00    +0.000 C 
ATOM     14  C   UNL     1     -11.580  -1.648  25.632  0.00  0.00    +0.000 C 
ATOM     15  C   UNL     1     -11.204  -4.633  30.503  0.00  0.00    +0.000 C 
ATOM     16  C   UNL     1     -12.007  -3.511  31.136  0.00  0.00    +0.000 C 
ATOM     17  C   UNL     1     -12.505  -0.893  28.524  0.00  0.00    +0.000 C 
ATOM     18  C   UNL     1     -13.220  -1.349  30.603  0.00  0.00    +0.000 C 
ATOM     19  C   UNL     1     -13.147  -0.326  29.554  0.00  0.00    +0.000 C 
ATOM     20  C   UNL     1     -13.724   1.026  29.704  0.00  0.00    +0.000 C 
ENDROOT
BRANCH   7  21
ATOM     21  O   UNL     1     -13.369  -3.625  27.263  0.00  0.00    +0.000 OA
ATOM     22  H   UNL     1     -13.433  -3.809  26.300  0.00  0.00    +0.000 HD
ENDBRANCH   7  21
BRANCH  13  23
ATOM     23  O   UNL     1     -14.012  -3.354  29.736  0.00  0.00    +0.000 OA
ATOM     24  H   UNL     1     -14.645  -3.118  30.446  0.00  0.00    +0.000 HD
ENDBRANCH  13  23
BRANCH   3  25
ATOM     25  O   UNL     1      -9.870  -5.907  24.923  0.00  0.00    +0.000 OA
BRANCH  25  27
ATOM     26  O   UNL     1      -8.150  -4.626  25.589  0.00  0.00    +0.000 OA
ATOM     27  C   UNL     1      -8.630  -5.749  25.450  0.00  0.00    +0.000 C 
ATOM     28  C   UNL     1      -7.892  -6.961  25.935  0.00  0.00    +0.000 C 
ENDBRANCH  25  27
ENDBRANCH   3  25
BRANCH  15  29
ATOM     29  C   UNL     1      -9.724  -4.594  30.780  0.00  0.00    +0.000 C 
BRANCH  29  30
ATOM     30  O   UNL     1      -9.347  -5.837  31.349  0.00  0.00    +0.000 OA
ATOM     31  H   UNL     1      -9.541  -6.520  30.683  0.00  0.00    +0.000 HD
ENDBRANCH  29  30
ENDBRANCH  15  29
BRANCH   6  32
ATOM     32  O   UNL     1     -11.064  -3.814  23.864  0.00  0.00    +0.000 OA
BRANCH  32  34
ATOM     33  O   UNL     1     -12.398  -2.875  22.333  0.00  0.00    +0.000 OA
ATOM     34  C   UNL     1     -11.715  -3.837  22.678  0.00  0.00    +0.000 C 
BRANCH  34  35
ATOM     35  C   UNL     1     -11.593  -5.050  21.790  0.00  0.00    +0.000 C 
BRANCH  35  36
ATOM     36  C   UNL     1     -10.142  -5.483  21.624  0.00  0.00    +0.000 C 
BRANCH  36  37
ATOM     37  C   UNL     1      -9.536  -5.141  20.258  0.00  0.00    +0.000 C 
BRANCH  37  38
ATOM     38  C   UNL     1      -8.648  -3.889  20.254  0.00  0.00    +0.000 C 
BRANCH  38  39
ATOM     39  C   UNL     1      -7.872  -3.717  21.564  0.00  0.00    +0.000 C 
BRANCH  39  40
ATOM     40  C   UNL     1      -7.768  -2.261  22.026  0.00  0.00    +0.000 C 
BRANCH  40  41
ATOM     41  C   UNL     1      -8.515  -1.286  21.112  0.00  0.00    +0.000 C 
BRANCH  41  42
ATOM     42  C   UNL     1      -8.309   0.182  21.495  0.00  0.00    +0.000 C 
BRANCH  42  43
ATOM     43  C   UNL     1      -9.433   1.140  21.090  0.00  0.00    +0.000 C 
BRANCH  43  44
ATOM     44  C   UNL     1      -9.464   1.534  19.610  0.00  0.00    +0.000 C 
BRANCH  44  45
ATOM     45  C   UNL     1      -9.434   3.038  19.324  0.00  0.00    +0.000 C 
BRANCH  45  46
ATOM     46  C   UNL     1      -8.123   3.580  18.750  0.00  0.00    +0.000 C 
ATOM     47  C   UNL     1      -6.972   3.559  19.744  0.00  0.00    +0.000 C 
ENDBRANCH  45  46
ENDBRANCH  44  45
ENDBRANCH  43  44
ENDBRANCH  42  43
ENDBRANCH  41  42
ENDBRANCH  40  41
ENDBRANCH  39  40
ENDBRANCH  38  39
ENDBRANCH  37  38
ENDBRANCH  36  37
ENDBRANCH  35  36
ENDBRANCH  34  35
ENDBRANCH  32  34
ENDBRANCH   6  32
TORSDOF 20
ENDMDL
MODEL 9
REMARK VINA RESULT:      -4.4     19.830     23.987
REMARK  Name = 27924_Phorbol.pdbqt.pdb
REMARK  26 active torsions:
REMARK  status: ('A' for Active; 'I' for Inactive)
REMARK    1  A    between atoms: O_1  and  C_10
REMARK    2  A    between atoms: O_1  and  C_26
REMARK    3  A    between atoms: O_2  and  C_13
REMARK    4  A    between atoms: O_2  and  C_28
REMARK    5  A    between atoms: O_3  and  C_14
REMARK    6  A    between atoms: O_4  and  C_20
REMARK    7  A    between atoms: O_7  and  C_29
REMARK    8  A    between atoms: C_11  and  C_16
REMARK    9  A    between atoms: C_11  and  C_17
REMARK   10  A    between atoms: C_15  and  C_21
REMARK   11  A    between atoms: C_22  and  C_29
REMARK   12  A    between atoms: C_26  and  C_30
REMARK   13  A    between atoms: C_27  and  C_31
REMARK   14  A    between atoms: C_28  and  C_32
REMARK   15  A    between atoms: C_32  and  C_33
REMARK   16  A    between atoms: C_33  and  C_34
REMARK   17  A    between atoms: C_34  and  C_35
REMARK   18  A    between atoms: C_35  and  C_36
REMARK   19  A    between atoms: C_36  and  C_37
REMARK   20  A    between atoms: C_37  and  C_38
REMARK   21  A    between atoms: C_38  and  C_39
REMARK   22  A    between atoms: C_39  and  C_40
REMARK   23  A    between atoms: C_40  and  C_41
REMARK   24  A    between atoms: C_41  and  C_42
REMARK   25  A    between atoms: C_42  and  C_43
REMARK   26  A    between atoms: C_43  and  C_44
REMARK                            x       y       z     vdW  Elec       q    Type
REMARK                         _______ _______ _______ _____ _____    ______ ____
ROOT
ATOM      1  O   UNL     1      11.558 -15.435  15.303  0.00  0.00    +0.000 OA
ATOM      2  C   UNL     1       4.505 -14.647  15.354  0.00  0.00    +0.000 C 
ATOM      3  C   UNL     1       3.854 -13.615  14.452  0.00  0.00    +0.000 C 
ATOM      4  C   UNL     1       3.939 -13.393  15.990  0.00  0.00    +0.000 C 
ATOM      5  C   UNL     1       5.923 -15.080  15.128  0.00  0.00    +0.000 C 
ATOM      6  C   UNL     1       4.760 -12.907  13.428  0.00  0.00    +0.000 C 
ATOM      7  C   UNL     1       6.851 -14.169  14.201  0.00  0.00    +0.000 C 
ATOM      8  C   UNL     1       5.934 -13.837  12.958  0.00  0.00    +0.000 C 
ATOM      9  C   UNL     1       2.713 -13.632  16.855  0.00  0.00    +0.000 C 
ATOM     10  C   UNL     1       4.846 -12.353  16.601  0.00  0.00    +0.000 C 
ATOM     11  C   UNL     1       8.246 -14.938  13.951  0.00  0.00    +0.000 C 
ATOM     12  C   UNL     1       6.619 -15.552  16.391  0.00  0.00    +0.000 C 
ATOM     13  C   UNL     1       9.143 -15.144  15.251  0.00  0.00    +0.000 C 
ATOM     14  C   UNL     1       6.642 -13.226  11.749  0.00  0.00    +0.000 C 
ATOM     15  C   UNL     1       7.389 -16.655  16.271  0.00  0.00    +0.000 C 
ATOM     16  C   UNL     1       8.877 -16.421  16.078  0.00  0.00    +0.000 C 
ATOM     17  C   UNL     1       9.282 -14.337  13.009  0.00  0.00    +0.000 C 
ATOM     18  C   UNL     1      10.549 -15.114  14.691  0.00  0.00    +0.000 C 
ATOM     19  C   UNL     1      10.564 -14.489  13.364  0.00  0.00    +0.000 C 
ATOM     20  C   UNL     1      11.810 -14.118  12.661  0.00  0.00    +0.000 C 
ENDROOT
BRANCH   7  21
ATOM     21  O   UNL     1       7.160 -12.911  14.815  0.00  0.00    +0.000 OA
ATOM     22  H   UNL     1       7.095 -13.026  15.789  0.00  0.00    +0.000 HD
ENDBRANCH   7  21
BRANCH  13  23
ATOM     23  O   UNL     1       9.101 -13.981  16.114  0.00  0.00    +0.000 OA
ATOM     24  H   UNL     1       9.495 -13.247  15.598  0.00  0.00    +0.000 HD
ENDBRANCH  13  23
BRANCH   3  25
ATOM     25  O   UNL     1       2.631 -14.159  13.893  0.00  0.00    +0.000 OA
BRANCH  25  27
ATOM     26  O   UNL     1       2.789 -15.576  12.158  0.00  0.00    +0.000 OA
ATOM     27  C   UNL     1       2.510 -15.393  13.341  0.00  0.00    +0.000 C 
ATOM     28  C   UNL     1       2.110 -16.540  14.220  0.00  0.00    +0.000 C 
ENDBRANCH  25  27
ENDBRANCH   3  25
BRANCH  15  29
ATOM     29  C   UNL     1       6.877 -17.973  15.752  0.00  0.00    +0.000 C 
BRANCH  29  30
ATOM     30  O   UNL     1       5.748 -18.346  16.524  0.00  0.00    +0.000 OA
ATOM     31  H   UNL     1       6.005 -19.136  17.032  0.00  0.00    +0.000 HD
ENDBRANCH  29  30
ENDBRANCH  15  29
BRANCH   6  32
ATOM     32  O   UNL     1       3.939 -12.532  12.289  0.00  0.00    +0.000 OA
BRANCH  32  34
ATOM     33  O   UNL     1       2.549 -11.102  11.275  0.00  0.00    +0.000 OA
ATOM     34  C   UNL     1       3.531 -11.277  11.992  0.00  0.00    +0.000 C 
BRANCH  34  35
ATOM     35  C   UNL     1       4.293 -10.100  12.550  0.00  0.00    +0.000 C 
BRANCH  35  36
ATOM     36  C   UNL     1       4.150  -8.866  11.668  0.00  0.00    +0.000 C 
BRANCH  36  37
ATOM     37  C   UNL     1       4.325  -7.538  12.412  0.00  0.00    +0.000 C 
BRANCH  37  38
ATOM     38  C   UNL     1       5.435  -7.547  13.472  0.00  0.00    +0.000 C 
BRANCH  38  39
ATOM     39  C   UNL     1       6.744  -6.941  12.955  0.00  0.00    +0.000 C 
BRANCH  39  40
ATOM     40  C   UNL     1       7.990  -7.720  13.386  0.00  0.00    +0.000 C 
BRANCH  40  41
ATOM     41  C   UNL     1       8.676  -8.445  12.225  0.00  0.00    +0.000 C 
BRANCH  41  42
ATOM     42  C   UNL     1       8.457  -9.960  12.242  0.00  0.00    +0.000 C 
BRANCH  42  43
ATOM     43  C   UNL     1       9.648 -10.800  12.711  0.00  0.00    +0.000 C 
BRANCH  43  44
ATOM     44  C   UNL     1       9.859 -10.858  14.227  0.00  0.00    +0.000 C 
BRANCH  44  45
ATOM     45  C   UNL     1      11.309 -11.042  14.686  0.00  0.00    +0.000 C 
BRANCH  45  46
ATOM     46  C   UNL     1      11.936  -9.847  15.407  0.00  0.00    +0.000 C 
ATOM     47  C   UNL     1      11.098  -8.580  15.321  0.00  0.00    +0.000 C 
ENDBRANCH  45  46
ENDBRANCH  44  45
ENDBRANCH  43  44
ENDBRANCH  42  43
ENDBRANCH  41  42
ENDBRANCH  40  41
ENDBRANCH  39  40
ENDBRANCH  38  39
ENDBRANCH  37  38
ENDBRANCH  36  37
ENDBRANCH  35  36
ENDBRANCH  34  35
ENDBRANCH  32  34
ENDBRANCH   6  32
TORSDOF 20
ENDMDL
