MODEL 1
REMARK VINA RESULT:      -3.4      0.000      0.000
REMARK  Name = 2Methylcholine.pdbqt.pdb
REMARK  3 active torsions:
REMARK  status: ('A' for Active; 'I' for Inactive)
REMARK    1  A    between atoms: C_1  and  N_2
REMARK    2  A    between atoms: C_1  and  C_6
REMARK    3  A    between atoms: C_6  and  O_8
REMARK                            x       y       z     vdW  Elec       q    Type
REMARK                         _______ _______ _______ _____ _____    ______ ____
ROOT
ATOM      1  C   UNL     1      -9.232  -4.543  18.885  0.00  0.00    +0.000 C 
ENDROOT
BRANCH   1   2
ATOM      2  N   UNL     1     -10.087  -3.531  19.473  0.00  0.00    +0.000 N 
ATOM      3  C   UNL     1     -11.083  -4.163  20.344  0.00  0.00    +0.000 C 
ATOM      4  C   UNL     1      -9.283  -2.595  20.263  0.00  0.00    +0.000 C 
ATOM      5  C   UNL     1     -10.779  -2.792  18.415  0.00  0.00    +0.000 C 
ENDBRANCH   1   2
BRANCH   1   6
ATOM      6  C   UNL     1      -8.405  -5.536  18.341  0.00  0.00    +0.000 C 
ATOM      7  C   UNL     1      -8.434  -5.861  16.895  0.00  0.00    +0.000 C 
BRANCH   6   8
ATOM      8  O   UNL     1      -7.536  -6.252  19.105  0.00  0.00    +0.000 OA
ATOM      9  H   UNL     1      -6.854  -6.635  18.519  0.00  0.00    +0.000 HD
ENDBRANCH   6   8
ENDBRANCH   1   6
TORSDOF 3
ENDMDL
MODEL 2
REMARK VINA RESULT:      -3.1      1.680      1.936
REMARK  Name = 2Methylcholine.pdbqt.pdb
REMARK  3 active torsions:
REMARK  status: ('A' for Active; 'I' for Inactive)
REMARK    1  A    between atoms: C_1  and  N_2
REMARK    2  A    between atoms: C_1  and  C_6
REMARK    3  A    between atoms: C_6  and  O_8
REMARK                            x       y       z     vdW  Elec       q    Type
REMARK                         _______ _______ _______ _____ _____    ______ ____
ROOT
ATOM      1  C   UNL     1      -9.340  -4.853  20.293  0.00  0.00    +0.000 C 
ENDROOT
BRANCH   1   2
ATOM      2  N   UNL     1     -10.017  -4.421  21.499  0.00  0.00    +0.000 N 
ATOM      3  C   UNL     1     -10.853  -5.507  22.020  0.00  0.00    +0.000 C 
ATOM      4  C   UNL     1      -9.032  -4.043  22.516  0.00  0.00    +0.000 C 
ATOM      5  C   UNL     1     -10.866  -3.264  21.203  0.00  0.00    +0.000 C 
ENDBRANCH   1   2
BRANCH   1   6
ATOM      6  C   UNL     1      -8.699  -5.296  19.126  0.00  0.00    +0.000 C 
ATOM      7  C   UNL     1      -9.144  -4.854  17.783  0.00  0.00    +0.000 C 
BRANCH   6   8
ATOM      8  O   UNL     1      -7.641  -6.151  19.163  0.00  0.00    +0.000 OA
ATOM      9  H   UNL     1      -6.856  -5.656  19.466  0.00  0.00    +0.000 HD
ENDBRANCH   6   8
ENDBRANCH   1   6
TORSDOF 3
ENDMDL
MODEL 3
REMARK VINA RESULT:      -3.1      2.593      3.827
REMARK  Name = 2Methylcholine.pdbqt.pdb
REMARK  3 active torsions:
REMARK  status: ('A' for Active; 'I' for Inactive)
REMARK    1  A    between atoms: C_1  and  N_2
REMARK    2  A    between atoms: C_1  and  C_6
REMARK    3  A    between atoms: C_6  and  O_8
REMARK                            x       y       z     vdW  Elec       q    Type
REMARK                         _______ _______ _______ _____ _____    ______ ____
ROOT
ATOM      1  C   UNL     1      -8.454  -4.021  21.421  0.00  0.00    +0.000 C 
ENDROOT
BRANCH   1   2
ATOM      2  N   UNL     1      -9.378  -4.438  20.385  0.00  0.00    +0.000 N 
ATOM      3  C   UNL     1      -8.747  -5.449  19.530  0.00  0.00    +0.000 C 
ATOM      4  C   UNL     1     -10.585  -5.007  20.991  0.00  0.00    +0.000 C 
ATOM      5  C   UNL     1      -9.754  -3.285  19.563  0.00  0.00    +0.000 C 
ENDBRANCH   1   2
BRANCH   1   6
ATOM      6  C   UNL     1      -7.582  -3.618  22.442  0.00  0.00    +0.000 C 
ATOM      7  C   UNL     1      -6.725  -2.417  22.299  0.00  0.00    +0.000 C 
BRANCH   6   8
ATOM      8  O   UNL     1      -7.473  -4.304  23.612  0.00  0.00    +0.000 OA
ATOM      9  H   UNL     1      -7.647  -3.686  24.348  0.00  0.00    +0.000 HD
ENDBRANCH   6   8
ENDBRANCH   1   6
TORSDOF 3
ENDMDL
MODEL 4
REMARK VINA RESULT:      -3.0      3.238      3.923
REMARK  Name = 2Methylcholine.pdbqt.pdb
REMARK  3 active torsions:
REMARK  status: ('A' for Active; 'I' for Inactive)
REMARK    1  A    between atoms: C_1  and  N_2
REMARK    2  A    between atoms: C_1  and  C_6
REMARK    3  A    between atoms: C_6  and  O_8
REMARK                            x       y       z     vdW  Elec       q    Type
REMARK                         _______ _______ _______ _____ _____    ______ ____
ROOT
ATOM      1  C   UNL     1      -9.521  -4.153  22.332  0.00  0.00    +0.000 C 
ENDROOT
BRANCH   1   2
ATOM      2  N   UNL     1     -10.903  -4.281  21.915  0.00  0.00    +0.000 N 
ATOM      3  C   UNL     1     -11.444  -5.566  22.368  0.00  0.00    +0.000 C 
ATOM      4  C   UNL     1     -11.701  -3.195  22.489  0.00  0.00    +0.000 C 
ATOM      5  C   UNL     1     -10.988  -4.215  20.454  0.00  0.00    +0.000 C 
ENDBRANCH   1   2
BRANCH   1   6
ATOM      6  C   UNL     1      -8.178  -4.017  22.710  0.00  0.00    +0.000 C 
ATOM      7  C   UNL     1      -7.243  -3.151  21.954  0.00  0.00    +0.000 C 
BRANCH   6   8
ATOM      8  O   UNL     1      -7.660  -4.670  23.787  0.00  0.00    +0.000 OA
ATOM      9  H   UNL     1      -6.687  -4.673  23.707  0.00  0.00    +0.000 HD
ENDBRANCH   6   8
ENDBRANCH   1   6
TORSDOF 3
ENDMDL
MODEL 5
REMARK VINA RESULT:      -3.0      2.437      4.115
REMARK  Name = 2Methylcholine.pdbqt.pdb
REMARK  3 active torsions:
REMARK  status: ('A' for Active; 'I' for Inactive)
REMARK    1  A    between atoms: C_1  and  N_2
REMARK    2  A    between atoms: C_1  and  C_6
REMARK    3  A    between atoms: C_6  and  O_8
REMARK                            x       y       z     vdW  Elec       q    Type
REMARK                         _______ _______ _______ _____ _____    ______ ____
ROOT
ATOM      1  C   UNL     1     -10.916  -4.495  21.151  0.00  0.00    +0.000 C 
ENDROOT
BRANCH   1   2
ATOM      2  N   UNL     1     -10.046  -4.027  20.090  0.00  0.00    +0.000 N 
ATOM      3  C   UNL     1      -9.291  -2.855  20.544  0.00  0.00    +0.000 C 
ATOM      4  C   UNL     1      -9.107  -5.085  19.709  0.00  0.00    +0.000 C 
ATOM      5  C   UNL     1     -10.847  -3.656  18.921  0.00  0.00    +0.000 C 
ENDBRANCH   1   2
BRANCH   1   6
ATOM      6  C   UNL     1     -11.748  -4.926  22.193  0.00  0.00    +0.000 C 
ATOM      7  C   UNL     1     -12.591  -3.975  22.956  0.00  0.00    +0.000 C 
BRANCH   6   8
ATOM      8  O   UNL     1     -11.828  -6.234  22.561  0.00  0.00    +0.000 OA
ATOM      9  H   UNL     1     -12.709  -6.572  22.308  0.00  0.00    +0.000 HD
ENDBRANCH   6   8
ENDBRANCH   1   6
TORSDOF 3
ENDMDL
MODEL 6
REMARK VINA RESULT:      -3.0     15.168     16.346
REMARK  Name = 2Methylcholine.pdbqt.pdb
REMARK  3 active torsions:
REMARK  status: ('A' for Active; 'I' for Inactive)
REMARK    1  A    between atoms: C_1  and  N_2
REMARK    2  A    between atoms: C_1  and  C_6
REMARK    3  A    between atoms: C_6  and  O_8
REMARK                            x       y       z     vdW  Elec       q    Type
REMARK                         _______ _______ _______ _____ _____    ______ ____
ROOT
ATOM      1  C   UNL     1       3.265 -11.266  12.159  0.00  0.00    +0.000 C 
ENDROOT
BRANCH   1   2
ATOM      2  N   UNL     1       4.054 -12.156  12.987  0.00  0.00    +0.000 N 
ATOM      3  C   UNL     1       4.989 -12.917  12.153  0.00  0.00    +0.000 C 
ATOM      4  C   UNL     1       4.811 -11.381  13.974  0.00  0.00    +0.000 C 
ATOM      5  C   UNL     1       3.171 -13.090  13.690  0.00  0.00    +0.000 C 
ENDBRANCH   1   2
BRANCH   1   6
ATOM      6  C   UNL     1       2.501 -10.424  11.338  0.00  0.00    +0.000 C 
ATOM      7  C   UNL     1       2.448  -8.961  11.564  0.00  0.00    +0.000 C 
BRANCH   6   8
ATOM      8  O   UNL     1       1.769 -10.902  10.294  0.00  0.00    +0.000 OA
ATOM      9  H   UNL     1       2.380 -11.122   9.565  0.00  0.00    +0.000 HD
ENDBRANCH   6   8
ENDBRANCH   1   6
TORSDOF 3
ENDMDL
MODEL 7
REMARK VINA RESULT:      -2.9      2.332      3.881
REMARK  Name = 2Methylcholine.pdbqt.pdb
REMARK  3 active torsions:
REMARK  status: ('A' for Active; 'I' for Inactive)
REMARK    1  A    between atoms: C_1  and  N_2
REMARK    2  A    between atoms: C_1  and  C_6
REMARK    3  A    between atoms: C_6  and  O_8
REMARK                            x       y       z     vdW  Elec       q    Type
REMARK                         _______ _______ _______ _____ _____    ______ ____
ROOT
ATOM      1  C   UNL     1      -9.315  -2.693  20.253  0.00  0.00    +0.000 C 
ENDROOT
BRANCH   1   2
ATOM      2  N   UNL     1      -9.841  -3.923  19.694  0.00  0.00    +0.000 N 
ATOM      3  C   UNL     1     -10.218  -3.713  18.293  0.00  0.00    +0.000 C 
ATOM      4  C   UNL     1      -8.826  -4.978  19.765  0.00  0.00    +0.000 C 
ATOM      5  C   UNL     1     -11.023  -4.344  20.450  0.00  0.00    +0.000 C 
ENDBRANCH   1   2
BRANCH   1   6
ATOM      6  C   UNL     1      -8.795  -1.497  20.768  0.00  0.00    +0.000 C 
ATOM      7  C   UNL     1      -9.375  -0.181  20.408  0.00  0.00    +0.000 C 
BRANCH   6   8
ATOM      8  O   UNL     1      -7.737  -1.478  21.623  0.00  0.00    +0.000 OA
ATOM      9  H   UNL     1      -6.969  -1.881  21.173  0.00  0.00    +0.000 HD
ENDBRANCH   6   8
ENDBRANCH   1   6
TORSDOF 3
ENDMDL
MODEL 8
REMARK VINA RESULT:      -2.8     14.958     15.853
REMARK  Name = 2Methylcholine.pdbqt.pdb
REMARK  3 active torsions:
REMARK  status: ('A' for Active; 'I' for Inactive)
REMARK    1  A    between atoms: C_1  and  N_2
REMARK    2  A    between atoms: C_1  and  C_6
REMARK    3  A    between atoms: C_6  and  O_8
REMARK                            x       y       z     vdW  Elec       q    Type
REMARK                         _______ _______ _______ _____ _____    ______ ____
ROOT
ATOM      1  C   UNL     1     -21.017  -5.564   8.789  0.00  0.00    +0.000 C 
ENDROOT
BRANCH   1   2
ATOM      2  N   UNL     1     -20.482  -4.938   7.596  0.00  0.00    +0.000 N 
ATOM      3  C   UNL     1     -21.114  -3.631   7.392  0.00  0.00    +0.000 C 
ATOM      4  C   UNL     1     -19.035  -4.756   7.734  0.00  0.00    +0.000 C 
ATOM      5  C   UNL     1     -20.749  -5.785   6.431  0.00  0.00    +0.000 C 
ENDBRANCH   1   2
BRANCH   1   6
ATOM      6  C   UNL     1     -21.511  -6.164   9.956  0.00  0.00    +0.000 C 
ATOM      7  C   UNL     1     -21.469  -5.467  11.263  0.00  0.00    +0.000 C 
BRANCH   6   8
ATOM      8  O   UNL     1     -22.054  -7.412   9.953  0.00  0.00    +0.000 OA
ATOM      9  H   UNL     1     -22.568  -7.523   9.131  0.00  0.00    +0.000 HD
ENDBRANCH   6   8
ENDBRANCH   1   6
TORSDOF 3
ENDMDL
MODEL 9
REMARK VINA RESULT:      -2.8     14.132     14.947
REMARK  Name = 2Methylcholine.pdbqt.pdb
REMARK  3 active torsions:
REMARK  status: ('A' for Active; 'I' for Inactive)
REMARK    1  A    between atoms: C_1  and  N_2
REMARK    2  A    between atoms: C_1  and  C_6
REMARK    3  A    between atoms: C_6  and  O_8
REMARK                            x       y       z     vdW  Elec       q    Type
REMARK                         _______ _______ _______ _____ _____    ______ ____
ROOT
ATOM      1  C   UNL     1     -21.998  -5.670  11.922  0.00  0.00    +0.000 C 
ENDROOT
BRANCH   1   2
ATOM      2  N   UNL     1     -22.023  -5.441  10.490  0.00  0.00    +0.000 N 
ATOM      3  C   UNL     1     -23.096  -4.501  10.153  0.00  0.00    +0.000 C 
ATOM      4  C   UNL     1     -20.741  -4.886  10.050  0.00  0.00    +0.000 C 
ATOM      5  C   UNL     1     -22.261  -6.707   9.791  0.00  0.00    +0.000 C 
ENDBRANCH   1   2
BRANCH   1   6
ATOM      6  C   UNL     1     -21.965  -5.917  13.301  0.00  0.00    +0.000 C 
ATOM      7  C   UNL     1     -22.656  -5.027  14.264  0.00  0.00    +0.000 C 
BRANCH   6   8
ATOM      8  O   UNL     1     -21.300  -6.980  13.830  0.00  0.00    +0.000 OA
ATOM      9  H   UNL     1     -20.843  -6.686  14.641  0.00  0.00    +0.000 HD
ENDBRANCH   6   8
ENDBRANCH   1   6
TORSDOF 3
ENDMDL
