MODEL 1
REMARK VINA RESULT:      -7.6      0.000      0.000
REMARK  Name = 3035817_K252a.pdbqt.pdb
REMARK  3 active torsions:
REMARK  status: ('A' for Active; 'I' for Inactive)
REMARK    1  A    between atoms: C_3  and  O_7
REMARK    2  A    between atoms: C_3  and  C_9
REMARK    3  A    between atoms: C_9  and  O_11
REMARK                            x       y       z     vdW  Elec       q    Type
REMARK                         _______ _______ _______ _____ _____    ______ ____
ROOT
ATOM      1  O   UNL     1      -8.957  -4.578  22.834  0.00  0.00    +0.000 OA
ATOM      2  C   UNL     1      -9.233  -3.603  21.767  0.00  0.00    +0.000 C 
ATOM      3  C   UNL     1     -10.158  -4.397  20.748  0.00  0.00    +0.000 C 
ATOM      4  C   UNL     1     -10.163  -5.286  22.976  0.00  0.00    +0.000 C 
ATOM      5  C   UNL     1     -10.725  -5.370  21.679  0.00  0.00    +0.000 C 
ATOM      6  C   UNL     1      -7.830  -3.208  21.199  0.00  0.00    +0.000 C 
ATOM      7  N   UNL     1      -9.916  -2.461  22.407  0.00  0.00    +0.000 N 
ATOM      8  C   UNL     1     -10.726  -2.402  23.513  0.00  0.00    +0.000 A 
ATOM      9  C   UNL     1     -11.213  -3.476  24.258  0.00  0.00    +0.000 A 
ATOM     10  C   UNL     1     -11.216  -1.162  23.935  0.00  0.00    +0.000 A 
ATOM     11  N   UNL     1     -10.980  -4.787  23.976  0.00  0.00    +0.000 N 
ATOM     12  C   UNL     1     -12.101  -3.142  25.286  0.00  0.00    +0.000 A 
ATOM     13  C   UNL     1     -11.852  -5.401  24.893  0.00  0.00    +0.000 A 
ATOM     14  C   UNL     1     -12.522  -4.419  25.717  0.00  0.00    +0.000 A 
ATOM     15  C   UNL     1     -12.092  -6.773  25.069  0.00  0.00    +0.000 A 
ATOM     16  C   UNL     1     -13.429  -4.885  26.690  0.00  0.00    +0.000 A 
ATOM     17  C   UNL     1     -13.652  -6.252  26.851  0.00  0.00    +0.000 A 
ATOM     18  C   UNL     1     -12.995  -7.177  26.052  0.00  0.00    +0.000 A 
ATOM     19  C   UNL     1     -12.588  -1.897  25.734  0.00  0.00    +0.000 A 
ATOM     20  C   UNL     1     -12.086  -0.802  24.973  0.00  0.00    +0.000 A 
ATOM     21  C   UNL     1     -13.508  -1.431  26.745  0.00  0.00    +0.000 C 
ATOM     22  C   UNL     1     -12.721   0.427  25.525  0.00  0.00    +0.000 C 
ATOM     23  N   UNL     1     -13.500  -0.048  26.521  0.00  0.00    +0.000 N 
ATOM     24  H   UNL     1     -14.069   0.558  27.096  0.00  0.00    +0.000 HD
ATOM     25  O   UNL     1     -14.169  -1.986  27.610  0.00  0.00    +0.000 OA
ATOM     26  C   UNL     1     -10.705  -0.296  22.951  0.00  0.00    +0.000 A 
ATOM     27  C   UNL     1      -9.946  -1.098  22.017  0.00  0.00    +0.000 A 
ATOM     28  C   UNL     1     -10.822   1.088  22.709  0.00  0.00    +0.000 A 
ATOM     29  C   UNL     1      -9.365  -0.494  20.889  0.00  0.00    +0.000 A 
ATOM     30  C   UNL     1      -9.508   0.880  20.694  0.00  0.00    +0.000 A 
ATOM     31  C   UNL     1     -10.219   1.662  21.591  0.00  0.00    +0.000 A 
ENDROOT
BRANCH   3  32
ATOM     32  O   UNL     1     -11.224  -3.626  20.175  0.00  0.00    +0.000 OA
ATOM     33  H   UNL     1     -12.008  -4.215  20.106  0.00  0.00    +0.000 HD
ENDBRANCH   3  32
BRANCH   3  34
ATOM     34  C   UNL     1      -9.341  -5.075  19.651  0.00  0.00    +0.000 C 
ATOM     35  O   UNL     1      -8.681  -6.088  19.898  0.00  0.00    +0.000 OA
BRANCH  34  36
ATOM     36  O   UNL     1      -9.417  -4.393  18.469  0.00  0.00    +0.000 OA
ATOM     37  C   UNL     1      -9.092  -5.085  17.294  0.00  0.00    +0.000 C 
ENDBRANCH  34  36
ENDBRANCH   3  34
TORSDOF 3
ENDMDL
MODEL 2
REMARK VINA RESULT:      -7.3     20.686     23.583
REMARK  Name = 3035817_K252a.pdbqt.pdb
REMARK  3 active torsions:
REMARK  status: ('A' for Active; 'I' for Inactive)
REMARK    1  A    between atoms: C_3  and  O_7
REMARK    2  A    between atoms: C_3  and  C_9
REMARK    3  A    between atoms: C_9  and  O_11
REMARK                            x       y       z     vdW  Elec       q    Type
REMARK                         _______ _______ _______ _____ _____    ______ ____
ROOT
ATOM      1  O   UNL     1     -15.502 -15.156   4.781  0.00  0.00    +0.000 OA
ATOM      2  C   UNL     1     -16.489 -14.101   4.505  0.00  0.00    +0.000 C 
ATOM      3  C   UNL     1     -16.324 -13.089   5.719  0.00  0.00    +0.000 C 
ATOM      4  C   UNL     1     -14.401 -14.467   5.320  0.00  0.00    +0.000 C 
ATOM      5  C   UNL     1     -14.939 -13.393   6.070  0.00  0.00    +0.000 C 
ATOM      6  C   UNL     1     -17.870 -14.834   4.452  0.00  0.00    +0.000 C 
ATOM      7  N   UNL     1     -16.122 -13.512   3.200  0.00  0.00    +0.000 N 
ATOM      8  C   UNL     1     -14.905 -13.387   2.581  0.00  0.00    +0.000 A 
ATOM      9  C   UNL     1     -13.652 -13.694   3.115  0.00  0.00    +0.000 A 
ATOM     10  C   UNL     1     -14.843 -12.816   1.306  0.00  0.00    +0.000 A 
ATOM     11  N   UNL     1     -13.437 -14.147   4.380  0.00  0.00    +0.000 N 
ATOM     12  C   UNL     1     -12.558 -13.381   2.301  0.00  0.00    +0.000 A 
ATOM     13  C   UNL     1     -12.033 -14.085   4.434  0.00  0.00    +0.000 A 
ATOM     14  C   UNL     1     -11.478 -13.648   3.171  0.00  0.00    +0.000 A 
ATOM     15  C   UNL     1     -11.197 -14.402   5.517  0.00  0.00    +0.000 A 
ATOM     16  C   UNL     1     -10.077 -13.541   3.070  0.00  0.00    +0.000 A 
ATOM     17  C   UNL     1      -9.263 -13.862   4.155  0.00  0.00    +0.000 A 
ATOM     18  C   UNL     1      -9.816 -14.283   5.356  0.00  0.00    +0.000 A 
ATOM     19  C   UNL     1     -12.482 -12.825   1.008  0.00  0.00    +0.000 A 
ATOM     20  C   UNL     1     -13.763 -12.516   0.464  0.00  0.00    +0.000 A 
ATOM     21  C   UNL     1     -11.437 -12.437   0.091  0.00  0.00    +0.000 C 
ATOM     22  C   UNL     1     -13.522 -11.896  -0.867  0.00  0.00    +0.000 C 
ATOM     23  N   UNL     1     -12.175 -11.905  -0.974  0.00  0.00    +0.000 N 
ATOM     24  H   UNL     1     -11.697 -11.542  -1.787  0.00  0.00    +0.000 HD
ATOM     25  O   UNL     1     -10.217 -12.503   0.120  0.00  0.00    +0.000 OA
ATOM     26  C   UNL     1     -16.188 -12.475   1.074  0.00  0.00    +0.000 A 
ATOM     27  C   UNL     1     -16.945 -12.873   2.239  0.00  0.00    +0.000 A 
ATOM     28  C   UNL     1     -16.866 -11.832   0.018  0.00  0.00    +0.000 A 
ATOM     29  C   UNL     1     -18.322 -12.597   2.305  0.00  0.00    +0.000 A 
ATOM     30  C   UNL     1     -18.948 -11.960   1.234  0.00  0.00    +0.000 A 
ATOM     31  C   UNL     1     -18.236 -11.588   0.105  0.00  0.00    +0.000 A 
ENDROOT
BRANCH   3  32
ATOM     32  O   UNL     1     -16.421 -11.701   5.365  0.00  0.00    +0.000 OA
ATOM     33  H   UNL     1     -15.629 -11.480   4.827  0.00  0.00    +0.000 HD
ENDBRANCH   3  32
BRANCH   3  34
ATOM     34  C   UNL     1     -17.280 -13.416   6.863  0.00  0.00    +0.000 C 
ATOM     35  O   UNL     1     -18.358 -12.824   6.966  0.00  0.00    +0.000 OA
BRANCH  34  36
ATOM     36  O   UNL     1     -16.755 -14.353   7.710  0.00  0.00    +0.000 OA
ATOM     37  C   UNL     1     -17.638 -15.273   8.291  0.00  0.00    +0.000 C 
ENDBRANCH  34  36
ENDBRANCH   3  34
TORSDOF 3
ENDMDL
MODEL 3
REMARK VINA RESULT:      -6.8     19.648     22.398
REMARK  Name = 3035817_K252a.pdbqt.pdb
REMARK  3 active torsions:
REMARK  status: ('A' for Active; 'I' for Inactive)
REMARK    1  A    between atoms: C_3  and  O_7
REMARK    2  A    between atoms: C_3  and  C_9
REMARK    3  A    between atoms: C_9  and  O_11
REMARK                            x       y       z     vdW  Elec       q    Type
REMARK                         _______ _______ _______ _____ _____    ______ ____
ROOT
ATOM      1  O   UNL     1       8.121 -12.125  12.159  0.00  0.00    +0.000 OA
ATOM      2  C   UNL     1       6.681 -12.229  12.443  0.00  0.00    +0.000 C 
ATOM      3  C   UNL     1       6.618 -12.887  13.888  0.00  0.00    +0.000 C 
ATOM      4  C   UNL     1       8.694 -11.789  13.398  0.00  0.00    +0.000 C 
ATOM      5  C   UNL     1       7.924 -12.456  14.382  0.00  0.00    +0.000 C 
ATOM      6  C   UNL     1       6.100 -13.121  11.297  0.00  0.00    +0.000 C 
ATOM      7  N   UNL     1       6.143 -10.853  12.404  0.00  0.00    +0.000 N 
ATOM      8  C   UNL     1       6.736  -9.649  12.685  0.00  0.00    +0.000 A 
ATOM      9  C   UNL     1       8.011  -9.439  13.212  0.00  0.00    +0.000 A 
ATOM     10  C   UNL     1       5.998  -8.472  12.523  0.00  0.00    +0.000 A 
ATOM     11  N   UNL     1       8.875 -10.427  13.570  0.00  0.00    +0.000 N 
ATOM     12  C   UNL     1       8.335  -8.107  13.492  0.00  0.00    +0.000 A 
ATOM     13  C   UNL     1       9.874  -9.669  14.207  0.00  0.00    +0.000 A 
ATOM     14  C   UNL     1       9.577  -8.254  14.146  0.00  0.00    +0.000 A 
ATOM     15  C   UNL     1      11.044 -10.134  14.830  0.00  0.00    +0.000 A 
ATOM     16  C   UNL     1      10.493  -7.364  14.742  0.00  0.00    +0.000 A 
ATOM     17  C   UNL     1      11.651  -7.844  15.353  0.00  0.00    +0.000 A 
ATOM     18  C   UNL     1      11.917  -9.205  15.396  0.00  0.00    +0.000 A 
ATOM     19  C   UNL     1       7.610  -6.911  13.317  0.00  0.00    +0.000 A 
ATOM     20  C   UNL     1       6.310  -7.128  12.775  0.00  0.00    +0.000 A 
ATOM     21  C   UNL     1       7.818  -5.508  13.585  0.00  0.00    +0.000 C 
ATOM     22  C   UNL     1       5.653  -5.794  12.696  0.00  0.00    +0.000 C 
ATOM     23  N   UNL     1       6.597  -4.955  13.176  0.00  0.00    +0.000 N 
ATOM     24  H   UNL     1       6.445  -3.959  13.249  0.00  0.00    +0.000 HD
ATOM     25  O   UNL     1       8.750  -4.860  14.038  0.00  0.00    +0.000 OA
ATOM     26  C   UNL     1       4.740  -8.966  12.134  0.00  0.00    +0.000 A 
ATOM     27  C   UNL     1       4.833 -10.409  12.095  0.00  0.00    +0.000 A 
ATOM     28  C   UNL     1       3.500  -8.364  11.840  0.00  0.00    +0.000 A 
ATOM     29  C   UNL     1       3.695 -11.174  11.789  0.00  0.00    +0.000 A 
ATOM     30  C   UNL     1       2.490 -10.531  11.504  0.00  0.00    +0.000 A 
ATOM     31  C   UNL     1       2.393  -9.149  11.522  0.00  0.00    +0.000 A 
ENDROOT
BRANCH   3  32
ATOM     32  O   UNL     1       5.598 -12.357  14.748  0.00  0.00    +0.000 OA
ATOM     33  H   UNL     1       6.031 -12.099  15.592  0.00  0.00    +0.000 HD
ENDBRANCH   3  32
BRANCH   3  34
ATOM     34  C   UNL     1       6.517 -14.408  13.815  0.00  0.00    +0.000 C 
ATOM     35  O   UNL     1       7.500 -15.087  13.508  0.00  0.00    +0.000 OA
BRANCH  34  36
ATOM     36  O   UNL     1       5.245 -14.843  14.068  0.00  0.00    +0.000 OA
ATOM     37  C   UNL     1       5.031 -16.226  14.139  0.00  0.00    +0.000 C 
ENDBRANCH  34  36
ENDBRANCH   3  34
TORSDOF 3
ENDMDL
MODEL 4
REMARK VINA RESULT:      -6.7     19.067     20.380
REMARK  Name = 3035817_K252a.pdbqt.pdb
REMARK  3 active torsions:
REMARK  status: ('A' for Active; 'I' for Inactive)
REMARK    1  A    between atoms: C_3  and  O_7
REMARK    2  A    between atoms: C_3  and  C_9
REMARK    3  A    between atoms: C_9  and  O_11
REMARK                            x       y       z     vdW  Elec       q    Type
REMARK                         _______ _______ _______ _____ _____    ______ ____
ROOT
ATOM      1  O   UNL     1       6.063 -13.580  13.841  0.00  0.00    +0.000 OA
ATOM      2  C   UNL     1       4.738 -13.233  13.301  0.00  0.00    +0.000 C 
ATOM      3  C   UNL     1       3.720 -13.980  14.266  0.00  0.00    +0.000 C 
ATOM      4  C   UNL     1       5.878 -13.581  15.235  0.00  0.00    +0.000 C 
ATOM      5  C   UNL     1       4.563 -14.057  15.457  0.00  0.00    +0.000 C 
ATOM      6  C   UNL     1       4.744 -13.761  11.829  0.00  0.00    +0.000 C 
ATOM      7  N   UNL     1       4.630 -11.761  13.364  0.00  0.00    +0.000 N 
ATOM      8  C   UNL     1       5.195 -10.854  14.224  0.00  0.00    +0.000 A 
ATOM      9  C   UNL     1       5.947 -11.132  15.366  0.00  0.00    +0.000 A 
ATOM     10  C   UNL     1       4.956  -9.490  14.030  0.00  0.00    +0.000 A 
ATOM     11  N   UNL     1       6.215 -12.380  15.836  0.00  0.00    +0.000 N 
ATOM     12  C   UNL     1       6.328 -10.017  16.121  0.00  0.00    +0.000 A 
ATOM     13  C   UNL     1       6.802 -12.063  17.074  0.00  0.00    +0.000 A 
ATOM     14  C   UNL     1       6.905 -10.632  17.254  0.00  0.00    +0.000 A 
ATOM     15  C   UNL     1       7.272 -12.949  18.058  0.00  0.00    +0.000 A 
ATOM     16  C   UNL     1       7.479 -10.159  18.451  0.00  0.00    +0.000 A 
ATOM     17  C   UNL     1       7.942 -11.053  19.415  0.00  0.00    +0.000 A 
ATOM     18  C   UNL     1       7.836 -12.423  19.219  0.00  0.00    +0.000 A 
ATOM     19  C   UNL     1       6.111  -8.637  15.928  0.00  0.00    +0.000 A 
ATOM     20  C   UNL     1       5.346  -8.358  14.759  0.00  0.00    +0.000 A 
ATOM     21  C   UNL     1       6.422  -7.417  16.633  0.00  0.00    +0.000 C 
ATOM     22  C   UNL     1       5.157  -6.881  14.717  0.00  0.00    +0.000 C 
ATOM     23  N   UNL     1       5.808  -6.454  15.821  0.00  0.00    +0.000 N 
ATOM     24  H   UNL     1       5.859  -5.476  16.071  0.00  0.00    +0.000 HD
ATOM     25  O   UNL     1       7.039  -7.163  17.657  0.00  0.00    +0.000 OA
ATOM     26  C   UNL     1       4.078  -9.500  12.932  0.00  0.00    +0.000 A 
ATOM     27  C   UNL     1       3.865 -10.881  12.558  0.00  0.00    +0.000 A 
ATOM     28  C   UNL     1       3.393  -8.497  12.216  0.00  0.00    +0.000 A 
ATOM     29  C   UNL     1       2.976 -11.193  11.515  0.00  0.00    +0.000 A 
ATOM     30  C   UNL     1       2.323 -10.164  10.836  0.00  0.00    +0.000 A 
ATOM     31  C   UNL     1       2.532  -8.837  11.174  0.00  0.00    +0.000 A 
ENDROOT
BRANCH   3  32
ATOM     32  O   UNL     1       2.533 -13.237  14.582  0.00  0.00    +0.000 OA
ATOM     33  H   UNL     1       2.204 -12.842  13.745  0.00  0.00    +0.000 HD
ENDBRANCH   3  32
BRANCH   3  34
ATOM     34  C   UNL     1       3.356 -15.367  13.742  0.00  0.00    +0.000 C 
ATOM     35  O   UNL     1       4.146 -16.307  13.859  0.00  0.00    +0.000 OA
BRANCH  34  36
ATOM     36  O   UNL     1       2.136 -15.371  13.125  0.00  0.00    +0.000 OA
ATOM     37  C   UNL     1       1.875 -16.393  12.203  0.00  0.00    +0.000 C 
ENDBRANCH  34  36
ENDBRANCH   3  34
TORSDOF 3
ENDMDL
MODEL 5
REMARK VINA RESULT:      -6.5      2.415      3.764
REMARK  Name = 3035817_K252a.pdbqt.pdb
REMARK  3 active torsions:
REMARK  status: ('A' for Active; 'I' for Inactive)
REMARK    1  A    between atoms: C_3  and  O_7
REMARK    2  A    between atoms: C_3  and  C_9
REMARK    3  A    between atoms: C_9  and  O_11
REMARK                            x       y       z     vdW  Elec       q    Type
REMARK                         _______ _______ _______ _____ _____    ______ ____
ROOT
ATOM      1  O   UNL     1      -9.484  -4.081  23.871  0.00  0.00    +0.000 OA
ATOM      2  C   UNL     1     -10.726  -3.574  23.266  0.00  0.00    +0.000 C 
ATOM      3  C   UNL     1     -11.213  -4.762  22.330  0.00  0.00    +0.000 C 
ATOM      4  C   UNL     1      -9.741  -5.444  24.097  0.00  0.00    +0.000 C 
ATOM      5  C   UNL     1     -10.569  -5.871  23.030  0.00  0.00    +0.000 C 
ATOM      6  C   UNL     1     -10.310  -2.273  22.504  0.00  0.00    +0.000 C 
ATOM      7  N   UNL     1     -11.654  -3.292  24.381  0.00  0.00    +0.000 N 
ATOM      8  C   UNL     1     -11.768  -3.866  25.622  0.00  0.00    +0.000 A 
ATOM      9  C   UNL     1     -11.081  -4.983  26.100  0.00  0.00    +0.000 A 
ATOM     10  C   UNL     1     -12.722  -3.372  26.517  0.00  0.00    +0.000 A 
ATOM     11  N   UNL     1     -10.190  -5.715  25.378  0.00  0.00    +0.000 N 
ATOM     12  C   UNL     1     -11.457  -5.420  27.375  0.00  0.00    +0.000 A 
ATOM     13  C   UNL     1      -9.982  -6.795  26.255  0.00  0.00    +0.000 A 
ATOM     14  C   UNL     1     -10.722  -6.621  27.486  0.00  0.00    +0.000 A 
ATOM     15  C   UNL     1      -9.171  -7.924  26.056  0.00  0.00    +0.000 A 
ATOM     16  C   UNL     1     -10.610  -7.624  28.469  0.00  0.00    +0.000 A 
ATOM     17  C   UNL     1      -9.797  -8.737  28.254  0.00  0.00    +0.000 A 
ATOM     18  C   UNL     1      -9.093  -8.881  27.067  0.00  0.00    +0.000 A 
ATOM     19  C   UNL     1     -12.402  -4.921  28.295  0.00  0.00    +0.000 A 
ATOM     20  C   UNL     1     -13.099  -3.779  27.804  0.00  0.00    +0.000 A 
ATOM     21  C   UNL     1     -12.891  -5.290  29.602  0.00  0.00    +0.000 C 
ATOM     22  C   UNL     1     -14.087  -3.401  28.852  0.00  0.00    +0.000 C 
ATOM     23  N   UNL     1     -13.878  -4.319  29.821  0.00  0.00    +0.000 N 
ATOM     24  H   UNL     1     -14.409  -4.325  30.681  0.00  0.00    +0.000 HD
ATOM     25  O   UNL     1     -12.607  -6.175  30.395  0.00  0.00    +0.000 OA
ATOM     26  C   UNL     1     -13.353  -2.376  25.750  0.00  0.00    +0.000 A 
ATOM     27  C   UNL     1     -12.718  -2.359  24.451  0.00  0.00    +0.000 A 
ATOM     28  C   UNL     1     -14.429  -1.495  25.984  0.00  0.00    +0.000 A 
ATOM     29  C   UNL     1     -13.192  -1.489  23.453  0.00  0.00    +0.000 A 
ATOM     30  C   UNL     1     -14.258  -0.635  23.735  0.00  0.00    +0.000 A 
ATOM     31  C   UNL     1     -14.864  -0.631  24.981  0.00  0.00    +0.000 A 
ENDROOT
BRANCH   3  32
ATOM     32  O   UNL     1     -12.632  -4.979  22.319  0.00  0.00    +0.000 OA
ATOM     33  H   UNL     1     -12.863  -5.439  23.156  0.00  0.00    +0.000 HD
ENDBRANCH   3  32
BRANCH   3  34
ATOM     34  C   UNL     1     -10.686  -4.612  20.905  0.00  0.00    +0.000 C 
ATOM     35  O   UNL     1     -11.344  -4.006  20.055  0.00  0.00    +0.000 OA
BRANCH  34  36
ATOM     36  O   UNL     1      -9.493  -5.259  20.736  0.00  0.00    +0.000 OA
ATOM     37  C   UNL     1      -8.851  -5.130  19.497  0.00  0.00    +0.000 C 
ENDBRANCH  34  36
ENDBRANCH   3  34
TORSDOF 3
ENDMDL
MODEL 6
REMARK VINA RESULT:      -6.5     14.649     18.434
REMARK  Name = 3035817_K252a.pdbqt.pdb
REMARK  3 active torsions:
REMARK  status: ('A' for Active; 'I' for Inactive)
REMARK    1  A    between atoms: C_3  and  O_7
REMARK    2  A    between atoms: C_3  and  C_9
REMARK    3  A    between atoms: C_9  and  O_11
REMARK                            x       y       z     vdW  Elec       q    Type
REMARK                         _______ _______ _______ _____ _____    ______ ____
ROOT
ATOM      1  O   UNL     1      -0.873 -15.906  21.835  0.00  0.00    +0.000 OA
ATOM      2  C   UNL     1      -1.652 -16.606  20.801  0.00  0.00    +0.000 C 
ATOM      3  C   UNL     1      -2.813 -15.585  20.434  0.00  0.00    +0.000 C 
ATOM      4  C   UNL     1      -0.881 -14.562  21.422  0.00  0.00    +0.000 C 
ATOM      5  C   UNL     1      -2.142 -14.344  20.815  0.00  0.00    +0.000 C 
ATOM      6  C   UNL     1      -2.140 -17.928  21.480  0.00  0.00    +0.000 C 
ATOM      7  N   UNL     1      -0.726 -16.866  19.680  0.00  0.00    +0.000 N 
ATOM      8  C   UNL     1       0.380 -16.179  19.249  0.00  0.00    +0.000 A 
ATOM      9  C   UNL     1       0.844 -14.950  19.720  0.00  0.00    +0.000 A 
ATOM     10  C   UNL     1       1.113 -16.675  18.167  0.00  0.00    +0.000 A 
ATOM     11  N   UNL     1       0.235 -14.206  20.683  0.00  0.00    +0.000 N 
ATOM     12  C   UNL     1       1.947 -14.422  19.039  0.00  0.00    +0.000 A 
ATOM     13  C   UNL     1       0.990 -13.023  20.604  0.00  0.00    +0.000 A 
ATOM     14  C   UNL     1       2.053 -13.144  19.630  0.00  0.00    +0.000 A 
ATOM     15  C   UNL     1       0.822 -11.840  21.342  0.00  0.00    +0.000 A 
ATOM     16  C   UNL     1       2.902 -12.035  19.441  0.00  0.00    +0.000 A 
ATOM     17  C   UNL     1       2.720 -10.870  20.185  0.00  0.00    +0.000 A 
ATOM     18  C   UNL     1       1.696 -10.777  21.117  0.00  0.00    +0.000 A 
ATOM     19  C   UNL     1       2.707 -14.920  17.961  0.00  0.00    +0.000 A 
ATOM     20  C   UNL     1       2.233 -16.177  17.486  0.00  0.00    +0.000 A 
ATOM     21  C   UNL     1       3.827 -14.469  17.169  0.00  0.00    +0.000 C 
ATOM     22  C   UNL     1       3.093 -16.546  16.328  0.00  0.00    +0.000 C 
ATOM     23  N   UNL     1       3.958 -15.512  16.243  0.00  0.00    +0.000 N 
ATOM     24  H   UNL     1       4.682 -15.472  15.539  0.00  0.00    +0.000 HD
ATOM     25  O   UNL     1       4.542 -13.479  17.199  0.00  0.00    +0.000 OA
ATOM     26  C   UNL     1       0.366 -17.810  17.804  0.00  0.00    +0.000 A 
ATOM     27  C   UNL     1      -0.760 -17.897  18.707  0.00  0.00    +0.000 A 
ATOM     28  C   UNL     1       0.483 -18.773  16.781  0.00  0.00    +0.000 A 
ATOM     29  C   UNL     1      -1.715 -18.914  18.537  0.00  0.00    +0.000 A 
ATOM     30  C   UNL     1      -1.554 -19.844  17.510  0.00  0.00    +0.000 A 
ATOM     31  C   UNL     1      -0.470 -19.781  16.648  0.00  0.00    +0.000 A 
ENDROOT
BRANCH   3  32
ATOM     32  O   UNL     1      -3.144 -15.525  19.038  0.00  0.00    +0.000 OA
ATOM     33  H   UNL     1      -3.485 -14.622  18.857  0.00  0.00    +0.000 HD
ENDBRANCH   3  32
BRANCH   3  34
ATOM     34  C   UNL     1      -4.067 -15.828  21.270  0.00  0.00    +0.000 C 
ATOM     35  O   UNL     1      -4.114 -15.464  22.448  0.00  0.00    +0.000 OA
BRANCH  34  36
ATOM     36  O   UNL     1      -5.020 -16.509  20.565  0.00  0.00    +0.000 OA
ATOM     37  C   UNL     1      -6.304 -15.952  20.499  0.00  0.00    +0.000 C 
ENDBRANCH  34  36
ENDBRANCH   3  34
TORSDOF 3
ENDMDL
MODEL 7
REMARK VINA RESULT:      -6.4     16.224     18.988
REMARK  Name = 3035817_K252a.pdbqt.pdb
REMARK  3 active torsions:
REMARK  status: ('A' for Active; 'I' for Inactive)
REMARK    1  A    between atoms: C_3  and  O_7
REMARK    2  A    between atoms: C_3  and  C_9
REMARK    3  A    between atoms: C_9  and  O_11
REMARK                            x       y       z     vdW  Elec       q    Type
REMARK                         _______ _______ _______ _____ _____    ______ ____
ROOT
ATOM      1  O   UNL     1     -22.964  -5.032  13.775  0.00  0.00    +0.000 OA
ATOM      2  C   UNL     1     -24.033  -6.030  13.611  0.00  0.00    +0.000 C 
ATOM      3  C   UNL     1     -25.373  -5.184  13.732  0.00  0.00    +0.000 C 
ATOM      4  C   UNL     1     -23.450  -3.892  13.109  0.00  0.00    +0.000 C 
ATOM      5  C   UNL     1     -24.851  -3.885  13.314  0.00  0.00    +0.000 C 
ATOM      6  C   UNL     1     -23.810  -7.063  14.764  0.00  0.00    +0.000 C 
ATOM      7  N   UNL     1     -23.843  -6.635  12.277  0.00  0.00    +0.000 N 
ATOM      8  C   UNL     1     -23.306  -6.120  11.125  0.00  0.00    +0.000 A 
ATOM      9  C   UNL     1     -22.902  -4.804  10.898  0.00  0.00    +0.000 A 
ATOM     10  C   UNL     1     -23.206  -6.938   9.994  0.00  0.00    +0.000 A 
ATOM     11  N   UNL     1     -23.012  -3.791  11.800  0.00  0.00    +0.000 N 
ATOM     12  C   UNL     1     -22.474  -4.522   9.596  0.00  0.00    +0.000 A 
ATOM     13  C   UNL     1     -22.662  -2.695  10.992  0.00  0.00    +0.000 A 
ATOM     14  C   UNL     1     -22.305  -3.121   9.656  0.00  0.00    +0.000 A 
ATOM     15  C   UNL     1     -22.618  -1.338  11.350  0.00  0.00    +0.000 A 
ATOM     16  C   UNL     1     -21.926  -2.130   8.729  0.00  0.00    +0.000 A 
ATOM     17  C   UNL     1     -21.886  -0.788   9.104  0.00  0.00    +0.000 A 
ATOM     18  C   UNL     1     -22.228  -0.402  10.392  0.00  0.00    +0.000 A 
ATOM     19  C   UNL     1     -22.351  -5.339   8.453  0.00  0.00    +0.000 A 
ATOM     20  C   UNL     1     -22.761  -6.683   8.690  0.00  0.00    +0.000 A 
ATOM     21  C   UNL     1     -21.956  -5.165   7.076  0.00  0.00    +0.000 C 
ATOM     22  C   UNL     1     -22.623  -7.403   7.394  0.00  0.00    +0.000 C 
ATOM     23  N   UNL     1     -22.159  -6.450   6.557  0.00  0.00    +0.000 N 
ATOM     24  H   UNL     1     -21.962  -6.638   5.584  0.00  0.00    +0.000 HD
ATOM     25  O   UNL     1     -21.543  -4.216   6.426  0.00  0.00    +0.000 OA
ATOM     26  C   UNL     1     -23.801  -8.131  10.443  0.00  0.00    +0.000 A 
ATOM     27  C   UNL     1     -24.209  -7.925  11.815  0.00  0.00    +0.000 A 
ATOM     28  C   UNL     1     -24.084  -9.372   9.837  0.00  0.00    +0.000 A 
ATOM     29  C   UNL     1     -24.889  -8.944  12.503  0.00  0.00    +0.000 A 
ATOM     30  C   UNL     1     -25.144 -10.155  11.859  0.00  0.00    +0.000 A 
ATOM     31  C   UNL     1     -24.744 -10.371  10.550  0.00  0.00    +0.000 A 
ENDROOT
BRANCH   3  32
ATOM     32  O   UNL     1     -26.418  -5.578  12.830  0.00  0.00    +0.000 OA
ATOM     33  H   UNL     1     -26.815  -6.404  13.185  0.00  0.00    +0.000 HD
ENDBRANCH   3  32
BRANCH   3  34
ATOM     34  C   UNL     1     -25.892  -5.147  15.167  0.00  0.00    +0.000 C 
ATOM     35  O   UNL     1     -26.666  -6.017  15.575  0.00  0.00    +0.000 OA
BRANCH  34  36
ATOM     36  O   UNL     1     -25.438  -4.048  15.842  0.00  0.00    +0.000 OA
ATOM     37  C   UNL     1     -24.816  -4.255  17.081  0.00  0.00    +0.000 C 
ENDBRANCH  34  36
ENDBRANCH   3  34
TORSDOF 3
ENDMDL
MODEL 8
REMARK VINA RESULT:      -6.2     22.052     24.768
REMARK  Name = 3035817_K252a.pdbqt.pdb
REMARK  3 active torsions:
REMARK  status: ('A' for Active; 'I' for Inactive)
REMARK    1  A    between atoms: C_3  and  O_7
REMARK    2  A    between atoms: C_3  and  C_9
REMARK    3  A    between atoms: C_9  and  O_11
REMARK                            x       y       z     vdW  Elec       q    Type
REMARK                         _______ _______ _______ _____ _____    ______ ____
ROOT
ATOM      1  O   UNL     1      -3.559  -3.011   2.846  0.00  0.00    +0.000 OA
ATOM      2  C   UNL     1      -4.075  -2.056   1.852  0.00  0.00    +0.000 C 
ATOM      3  C   UNL     1      -2.792  -1.232   1.405  0.00  0.00    +0.000 C 
ATOM      4  C   UNL     1      -2.299  -3.384   2.345  0.00  0.00    +0.000 C 
ATOM      5  C   UNL     1      -1.772  -2.232   1.711  0.00  0.00    +0.000 C 
ATOM      6  C   UNL     1      -5.155  -1.217   2.612  0.00  0.00    +0.000 C 
ATOM      7  N   UNL     1      -4.663  -2.859   0.761  0.00  0.00    +0.000 N 
ATOM      8  C   UNL     1      -4.350  -4.112   0.298  0.00  0.00    +0.000 A 
ATOM      9  C   UNL     1      -3.276  -4.911   0.691  0.00  0.00    +0.000 A 
ATOM     10  C   UNL     1      -5.106  -4.664  -0.741  0.00  0.00    +0.000 A 
ATOM     11  N   UNL     1      -2.327  -4.548   1.596  0.00  0.00    +0.000 N 
ATOM     12  C   UNL     1      -3.131  -6.113  -0.011  0.00  0.00    +0.000 A 
ATOM     13  C   UNL     1      -1.416  -5.609   1.447  0.00  0.00    +0.000 A 
ATOM     14  C   UNL     1      -1.900  -6.585   0.495  0.00  0.00    +0.000 A 
ATOM     15  C   UNL     1      -0.188  -5.791   2.103  0.00  0.00    +0.000 A 
ATOM     16  C   UNL     1      -1.094  -7.713   0.242  0.00  0.00    +0.000 A 
ATOM     17  C   UNL     1       0.121  -7.878   0.905  0.00  0.00    +0.000 A 
ATOM     18  C   UNL     1       0.564  -6.930   1.818  0.00  0.00    +0.000 A 
ATOM     19  C   UNL     1      -3.896  -6.691  -1.045  0.00  0.00    +0.000 A 
ATOM     20  C   UNL     1      -4.994  -5.873  -1.441  0.00  0.00    +0.000 A 
ATOM     21  C   UNL     1      -3.837  -7.886  -1.853  0.00  0.00    +0.000 C 
ATOM     22  C   UNL     1      -5.670  -6.583  -2.562  0.00  0.00    +0.000 C 
ATOM     23  N   UNL     1      -4.934  -7.707  -2.706  0.00  0.00    +0.000 N 
ATOM     24  H   UNL     1      -5.149  -8.406  -3.404  0.00  0.00    +0.000 HD
ATOM     25  O   UNL     1      -3.093  -8.854  -1.881  0.00  0.00    +0.000 OA
ATOM     26  C   UNL     1      -6.002  -3.621  -1.036  0.00  0.00    +0.000 A 
ATOM     27  C   UNL     1      -5.704  -2.525  -0.142  0.00  0.00    +0.000 A 
ATOM     28  C   UNL     1      -7.024  -3.450  -1.992  0.00  0.00    +0.000 A 
ATOM     29  C   UNL     1      -6.415  -1.318  -0.255  0.00  0.00    +0.000 A 
ATOM     30  C   UNL     1      -7.419  -1.198  -1.216  0.00  0.00    +0.000 A 
ATOM     31  C   UNL     1      -7.725  -2.247  -2.067  0.00  0.00    +0.000 A 
ENDROOT
BRANCH   3  32
ATOM     32  O   UNL     1      -2.733  -0.920   0.005  0.00  0.00    +0.000 OA
ATOM     33  H   UNL     1      -2.139  -1.578  -0.417  0.00  0.00    +0.000 HD
ENDBRANCH   3  32
BRANCH   3  34
ATOM     34  C   UNL     1      -2.611   0.032   2.241  0.00  0.00    +0.000 C 
ATOM     35  O   UNL     1      -3.006   1.123   1.821  0.00  0.00    +0.000 OA
BRANCH  34  36
ATOM     36  O   UNL     1      -1.942  -0.223   3.406  0.00  0.00    +0.000 OA
ATOM     37  C   UNL     1      -1.075   0.766   3.891  0.00  0.00    +0.000 C 
ENDBRANCH  34  36
ENDBRANCH   3  34
TORSDOF 3
ENDMDL
MODEL 9
REMARK VINA RESULT:      -6.1     24.867     27.234
REMARK  Name = 3035817_K252a.pdbqt.pdb
REMARK  3 active torsions:
REMARK  status: ('A' for Active; 'I' for Inactive)
REMARK    1  A    between atoms: C_3  and  O_7
REMARK    2  A    between atoms: C_3  and  C_9
REMARK    3  A    between atoms: C_9  and  O_11
REMARK                            x       y       z     vdW  Elec       q    Type
REMARK                         _______ _______ _______ _____ _____    ______ ____
ROOT
ATOM      1  O   UNL     1       2.087 -21.557   4.776  0.00  0.00    +0.000 OA
ATOM      2  C   UNL     1       2.774 -20.834   5.859  0.00  0.00    +0.000 C 
ATOM      3  C   UNL     1       2.800 -19.325   5.361  0.00  0.00    +0.000 C 
ATOM      4  C   UNL     1       1.089 -20.665   4.345  0.00  0.00    +0.000 C 
ATOM      5  C   UNL     1       1.638 -19.366   4.476  0.00  0.00    +0.000 C 
ATOM      6  C   UNL     1       4.181 -21.506   5.972  0.00  0.00    +0.000 C 
ATOM      7  N   UNL     1       1.963 -21.033   7.078  0.00  0.00    +0.000 N 
ATOM      8  C   UNL     1       0.616 -21.237   7.238  0.00  0.00    +0.000 A 
ATOM      9  C   UNL     1      -0.368 -21.186   6.250  0.00  0.00    +0.000 A 
ATOM     10  C   UNL     1       0.106 -21.441   8.525  0.00  0.00    +0.000 A 
ATOM     11  N   UNL     1      -0.141 -20.883   4.943  0.00  0.00    +0.000 N 
ATOM     12  C   UNL     1      -1.683 -21.339   6.702  0.00  0.00    +0.000 A 
ATOM     13  C   UNL     1      -1.463 -20.776   4.476  0.00  0.00    +0.000 A 
ATOM     14  C   UNL     1      -2.415 -21.076   5.523  0.00  0.00    +0.000 A 
ATOM     15  C   UNL     1      -1.896 -20.445   3.182  0.00  0.00    +0.000 A 
ATOM     16  C   UNL     1      -3.786 -21.014   5.204  0.00  0.00    +0.000 A 
ATOM     17  C   UNL     1      -4.197 -20.685   3.912  0.00  0.00    +0.000 A 
ATOM     18  C   UNL     1      -3.266 -20.405   2.922  0.00  0.00    +0.000 A 
ATOM     19  C   UNL     1      -2.210 -21.564   7.990  0.00  0.00    +0.000 A 
ATOM     20  C   UNL     1      -1.202 -21.620   8.996  0.00  0.00    +0.000 A 
ATOM     21  C   UNL     1      -3.520 -21.711   8.577  0.00  0.00    +0.000 C 
ATOM     22  C   UNL     1      -1.907 -21.810  10.294  0.00  0.00    +0.000 C 
ATOM     23  N   UNL     1      -3.209 -21.850   9.936  0.00  0.00    +0.000 N 
ATOM     24  H   UNL     1      -3.950 -21.972  10.613  0.00  0.00    +0.000 HD
ATOM     25  O   UNL     1      -4.655 -21.728   8.125  0.00  0.00    +0.000 OA
ATOM     26  C   UNL     1       1.257 -21.303   9.321  0.00  0.00    +0.000 A 
ATOM     27  C   UNL     1       2.367 -21.026   8.437  0.00  0.00    +0.000 A 
ATOM     28  C   UNL     1       1.497 -21.342  10.710  0.00  0.00    +0.000 A 
ATOM     29  C   UNL     1       3.644 -20.784   8.973  0.00  0.00    +0.000 A 
ATOM     30  C   UNL     1       3.830 -20.835  10.354  0.00  0.00    +0.000 A 
ATOM     31  C   UNL     1       2.778 -21.115  11.211  0.00  0.00    +0.000 A 
ENDROOT
BRANCH   3  32
ATOM     32  O   UNL     1       2.570 -18.348   6.387  0.00  0.00    +0.000 OA
ATOM     33  H   UNL     1       1.692 -17.942   6.213  0.00  0.00    +0.000 HD
ENDBRANCH   3  32
BRANCH   3  34
ATOM     34  C   UNL     1       4.080 -19.003   4.596  0.00  0.00    +0.000 C 
ATOM     35  O   UNL     1       4.220 -19.370   3.426  0.00  0.00    +0.000 OA
BRANCH  34  36
ATOM     36  O   UNL     1       4.988 -18.347   5.381  0.00  0.00    +0.000 OA
ATOM     37  C   UNL     1       6.347 -18.500   5.074  0.00  0.00    +0.000 C 
ENDBRANCH  34  36
ENDBRANCH   3  34
TORSDOF 3
ENDMDL
