MODEL 1
REMARK VINA RESULT:      -5.6      0.000      0.000
REMARK  Name = 3136_Dimethoxy.pdbqt.pdb
REMARK  2 active torsions:
REMARK  status: ('A' for Active; 'I' for Inactive)
REMARK    1  A    between atoms: C_7  and  O_13
REMARK    2  A    between atoms: C_8  and  O_15
REMARK                            x       y       z     vdW  Elec       q    Type
REMARK                         _______ _______ _______ _____ _____    ______ ____
ROOT
ATOM      1  O   UNL     1      -6.830  -1.875  22.970  0.00  0.00    +0.000 OA
ATOM      2  O   UNL     1     -10.575  -2.742  19.279  0.00  0.00    +0.000 OA
ATOM      3  C   UNL     1      -8.293  -0.957  21.394  0.00  0.00    +0.000 A 
ATOM      4  C   UNL     1      -9.250  -1.185  20.416  0.00  0.00    +0.000 A 
ATOM      5  C   UNL     1      -7.710  -2.075  22.144  0.00  0.00    +0.000 C 
ATOM      6  C   UNL     1      -9.694  -2.548  20.105  0.00  0.00    +0.000 C 
ATOM      7  C   UNL     1      -8.204  -3.444  21.854  0.00  0.00    +0.000 C 
ATOM      8  C   UNL     1      -9.059  -3.672  20.836  0.00  0.00    +0.000 C 
ATOM      9  C   UNL     1      -7.876   0.344  21.675  0.00  0.00    +0.000 A 
ATOM     10  C   UNL     1      -9.802  -0.112  19.713  0.00  0.00    +0.000 A 
ATOM     11  C   UNL     1      -8.425   1.416  20.974  0.00  0.00    +0.000 A 
ATOM     12  C   UNL     1      -9.388   1.188  19.993  0.00  0.00    +0.000 A 
ENDROOT
BRANCH   7  13
ATOM     13  O   UNL     1      -7.650  -4.447  22.627  0.00  0.00    +0.000 OA
ATOM     14  C   UNL     1      -8.435  -4.646  23.778  0.00  0.00    +0.000 C 
ENDBRANCH   7  13
BRANCH   8  15
ATOM     15  O   UNL     1      -9.484  -4.934  20.463  0.00  0.00    +0.000 OA
ATOM     16  C   UNL     1      -8.617  -5.455  19.484  0.00  0.00    +0.000 C 
ENDBRANCH   8  15
TORSDOF 2
ENDMDL
MODEL 2
REMARK VINA RESULT:      -5.6      0.189      3.110
REMARK  Name = 3136_Dimethoxy.pdbqt.pdb
REMARK  2 active torsions:
REMARK  status: ('A' for Active; 'I' for Inactive)
REMARK    1  A    between atoms: C_7  and  O_13
REMARK    2  A    between atoms: C_8  and  O_15
REMARK                            x       y       z     vdW  Elec       q    Type
REMARK                         _______ _______ _______ _____ _____    ______ ____
ROOT
ATOM      1  O   UNL     1     -10.515  -2.596  19.386  0.00  0.00    +0.000 OA
ATOM      2  O   UNL     1      -6.680  -1.725  22.982  0.00  0.00    +0.000 OA
ATOM      3  C   UNL     1      -9.162  -1.038  20.485  0.00  0.00    +0.000 A 
ATOM      4  C   UNL     1      -8.181  -0.809  21.440  0.00  0.00    +0.000 A 
ATOM      5  C   UNL     1      -9.614  -2.402  20.192  0.00  0.00    +0.000 C 
ATOM      6  C   UNL     1      -7.581  -1.925  22.179  0.00  0.00    +0.000 C 
ATOM      7  C   UNL     1      -8.964  -3.524  20.911  0.00  0.00    +0.000 C 
ATOM      8  C   UNL     1      -8.085  -3.293  21.907  0.00  0.00    +0.000 C 
ATOM      9  C   UNL     1      -9.727   0.033  19.794  0.00  0.00    +0.000 A 
ATOM     10  C   UNL     1      -7.754   0.493  21.706  0.00  0.00    +0.000 A 
ATOM     11  C   UNL     1      -9.304   1.333  20.059  0.00  0.00    +0.000 A 
ATOM     12  C   UNL     1      -8.317   1.564  21.015  0.00  0.00    +0.000 A 
ENDROOT
BRANCH   7  13
ATOM     13  O   UNL     1      -9.402  -4.787  20.555  0.00  0.00    +0.000 OA
ATOM     14  C   UNL     1      -8.540  -5.329  19.584  0.00  0.00    +0.000 C 
ENDBRANCH   7  13
BRANCH   8  15
ATOM     15  O   UNL     1      -7.515  -4.295  22.672  0.00  0.00    +0.000 OA
ATOM     16  C   UNL     1      -8.337  -4.570  23.781  0.00  0.00    +0.000 C 
ENDBRANCH   8  15
TORSDOF 2
ENDMDL
MODEL 3
REMARK VINA RESULT:      -4.8      3.281      5.308
REMARK  Name = 3136_Dimethoxy.pdbqt.pdb
REMARK  2 active torsions:
REMARK  status: ('A' for Active; 'I' for Inactive)
REMARK    1  A    between atoms: C_7  and  O_13
REMARK    2  A    between atoms: C_8  and  O_15
REMARK                            x       y       z     vdW  Elec       q    Type
REMARK                         _______ _______ _______ _____ _____    ______ ____
ROOT
ATOM      1  O   UNL     1     -12.811  -5.098  23.064  0.00  0.00    +0.000 OA
ATOM      2  O   UNL     1      -7.573  -4.661  23.944  0.00  0.00    +0.000 OA
ATOM      3  C   UNL     1     -10.696  -4.633  22.181  0.00  0.00    +0.000 A 
ATOM      4  C   UNL     1      -9.336  -4.495  22.416  0.00  0.00    +0.000 A 
ATOM      5  C   UNL     1     -11.605  -5.026  23.263  0.00  0.00    +0.000 C 
ATOM      6  C   UNL     1      -8.779  -4.733  23.752  0.00  0.00    +0.000 C 
ATOM      7  C   UNL     1     -11.022  -5.312  24.596  0.00  0.00    +0.000 C 
ATOM      8  C   UNL     1      -9.717  -5.081  24.847  0.00  0.00    +0.000 C 
ATOM      9  C   UNL     1     -11.213  -4.397  20.907  0.00  0.00    +0.000 A 
ATOM     10  C   UNL     1      -8.480  -4.125  21.377  0.00  0.00    +0.000 A 
ATOM     11  C   UNL     1     -10.361  -4.027  19.869  0.00  0.00    +0.000 A 
ATOM     12  C   UNL     1      -8.994  -3.892  20.103  0.00  0.00    +0.000 A 
ENDROOT
BRANCH   7  13
ATOM     13  O   UNL     1     -11.925  -5.724  25.560  0.00  0.00    +0.000 OA
ATOM     14  C   UNL     1     -11.882  -7.126  25.679  0.00  0.00    +0.000 C 
ENDBRANCH   7  13
BRANCH   8  15
ATOM     15  O   UNL     1      -9.137  -5.243  26.092  0.00  0.00    +0.000 OA
ATOM     16  C   UNL     1      -9.263  -4.052  26.832  0.00  0.00    +0.000 C 
ENDBRANCH   8  15
TORSDOF 2
ENDMDL
MODEL 4
REMARK VINA RESULT:      -4.7     16.763     18.492
REMARK  Name = 3136_Dimethoxy.pdbqt.pdb
REMARK  2 active torsions:
REMARK  status: ('A' for Active; 'I' for Inactive)
REMARK    1  A    between atoms: C_7  and  O_13
REMARK    2  A    between atoms: C_8  and  O_15
REMARK                            x       y       z     vdW  Elec       q    Type
REMARK                         _______ _______ _______ _____ _____    ______ ____
ROOT
ATOM      1  O   UNL     1       6.085 -11.931  13.034  0.00  0.00    +0.000 OA
ATOM      2  O   UNL     1       5.334  -6.692  12.411  0.00  0.00    +0.000 OA
ATOM      3  C   UNL     1       4.662 -10.214  12.329  0.00  0.00    +0.000 A 
ATOM      4  C   UNL     1       4.457  -8.849  12.190  0.00  0.00    +0.000 A 
ATOM      5  C   UNL     1       5.927 -10.729  12.866  0.00  0.00    +0.000 C 
ATOM      6  C   UNL     1       5.497  -7.892  12.583  0.00  0.00    +0.000 C 
ATOM      7  C   UNL     1       6.988  -9.752  13.213  0.00  0.00    +0.000 C 
ATOM      8  C   UNL     1       6.750  -8.425  13.171  0.00  0.00    +0.000 C 
ATOM      9  C   UNL     1       3.663 -11.113  11.956  0.00  0.00    +0.000 A 
ATOM     10  C   UNL     1       3.252  -8.372  11.672  0.00  0.00    +0.000 A 
ATOM     11  C   UNL     1       2.459 -10.638  11.441  0.00  0.00    +0.000 A 
ATOM     12  C   UNL     1       2.253  -9.268  11.298  0.00  0.00    +0.000 A 
ENDROOT
BRANCH   7  13
ATOM     13  O   UNL     1       8.172 -10.303  13.668  0.00  0.00    +0.000 OA
ATOM     14  C   UNL     1       9.081 -10.419  12.600  0.00  0.00    +0.000 C 
ENDBRANCH   7  13
BRANCH   8  15
ATOM     15  O   UNL     1       7.669  -7.470  13.568  0.00  0.00    +0.000 OA
ATOM     16  C   UNL     1       7.522  -7.214  14.944  0.00  0.00    +0.000 C 
ENDBRANCH   8  15
TORSDOF 2
ENDMDL
MODEL 5
REMARK VINA RESULT:      -4.5     17.687     19.922
REMARK  Name = 3136_Dimethoxy.pdbqt.pdb
REMARK  2 active torsions:
REMARK  status: ('A' for Active; 'I' for Inactive)
REMARK    1  A    between atoms: C_7  and  O_13
REMARK    2  A    between atoms: C_8  and  O_15
REMARK                            x       y       z     vdW  Elec       q    Type
REMARK                         _______ _______ _______ _____ _____    ______ ____
ROOT
ATOM      1  O   UNL     1     -13.539   9.257   3.112  0.00  0.00    +0.000 OA
ATOM      2  O   UNL     1     -14.154   6.341   7.530  0.00  0.00    +0.000 OA
ATOM      3  C   UNL     1     -12.974   7.315   4.286  0.00  0.00    +0.000 A 
ATOM      4  C   UNL     1     -13.115   6.568   5.447  0.00  0.00    +0.000 A 
ATOM      5  C   UNL     1     -13.704   8.576   4.115  0.00  0.00    +0.000 C 
ATOM      6  C   UNL     1     -13.991   7.027   6.530  0.00  0.00    +0.000 C 
ATOM      7  C   UNL     1     -14.625   9.003   5.197  0.00  0.00    +0.000 C 
ATOM      8  C   UNL     1     -14.684   8.328   6.364  0.00  0.00    +0.000 C 
ATOM      9  C   UNL     1     -12.133   6.870   3.266  0.00  0.00    +0.000 A 
ATOM     10  C   UNL     1     -12.420   5.367   5.595  0.00  0.00    +0.000 A 
ATOM     11  C   UNL     1     -11.437   5.672   3.413  0.00  0.00    +0.000 A 
ATOM     12  C   UNL     1     -11.581   4.920   4.577  0.00  0.00    +0.000 A 
ENDROOT
BRANCH   7  13
ATOM     13  O   UNL     1     -15.319  10.174   4.955  0.00  0.00    +0.000 OA
ATOM     14  C   UNL     1     -16.602   9.870   4.463  0.00  0.00    +0.000 C 
ENDBRANCH   7  13
BRANCH   8  15
ATOM     15  O   UNL     1     -15.455   8.729   7.441  0.00  0.00    +0.000 OA
ATOM     16  C   UNL     1     -14.702   9.579   8.272  0.00  0.00    +0.000 C 
ENDBRANCH   8  15
TORSDOF 2
ENDMDL
MODEL 6
REMARK VINA RESULT:      -4.4      3.045      6.433
REMARK  Name = 3136_Dimethoxy.pdbqt.pdb
REMARK  2 active torsions:
REMARK  status: ('A' for Active; 'I' for Inactive)
REMARK    1  A    between atoms: C_7  and  O_13
REMARK    2  A    between atoms: C_8  and  O_15
REMARK                            x       y       z     vdW  Elec       q    Type
REMARK                         _______ _______ _______ _____ _____    ______ ____
ROOT
ATOM      1  O   UNL     1     -13.011  -5.205  23.614  0.00  0.00    +0.000 OA
ATOM      2  O   UNL     1      -7.718  -4.612  23.793  0.00  0.00    +0.000 OA
ATOM      3  C   UNL     1     -10.978  -5.921  24.520  0.00  0.00    +0.000 A 
ATOM      4  C   UNL     1      -9.597  -5.783  24.548  0.00  0.00    +0.000 A 
ATOM      5  C   UNL     1     -11.799  -5.047  23.675  0.00  0.00    +0.000 C 
ATOM      6  C   UNL     1      -8.930  -4.766  23.727  0.00  0.00    +0.000 C 
ATOM      7  C   UNL     1     -11.116  -3.991  22.889  0.00  0.00    +0.000 C 
ATOM      8  C   UNL     1      -9.769  -3.924  22.840  0.00  0.00    +0.000 C 
ATOM      9  C   UNL     1     -11.599  -6.896  25.300  0.00  0.00    +0.000 A 
ATOM     10  C   UNL     1      -8.827  -6.616  25.360  0.00  0.00    +0.000 A 
ATOM     11  C   UNL     1     -10.832  -7.729  26.111  0.00  0.00    +0.000 A 
ATOM     12  C   UNL     1      -9.446  -7.589  26.142  0.00  0.00    +0.000 A 
ENDROOT
BRANCH   7  13
ATOM     13  O   UNL     1     -11.949  -3.171  22.150  0.00  0.00    +0.000 OA
ATOM     14  C   UNL     1     -12.251  -2.014  22.891  0.00  0.00    +0.000 C 
ENDBRANCH   7  13
BRANCH   8  15
ATOM     15  O   UNL     1      -9.076  -3.019  22.056  0.00  0.00    +0.000 OA
ATOM     16  C   UNL     1      -8.854  -3.572  20.780  0.00  0.00    +0.000 C 
ENDBRANCH   8  15
TORSDOF 2
ENDMDL
MODEL 7
REMARK VINA RESULT:      -4.2     13.797     14.605
REMARK  Name = 3136_Dimethoxy.pdbqt.pdb
REMARK  2 active torsions:
REMARK  status: ('A' for Active; 'I' for Inactive)
REMARK    1  A    between atoms: C_7  and  O_13
REMARK    2  A    between atoms: C_8  and  O_15
REMARK                            x       y       z     vdW  Elec       q    Type
REMARK                         _______ _______ _______ _____ _____    ______ ____
ROOT
ATOM      1  O   UNL     1      -1.017 -15.894  23.461  0.00  0.00    +0.000 OA
ATOM      2  O   UNL     1      -4.985 -15.036  20.010  0.00  0.00    +0.000 OA
ATOM      3  C   UNL     1      -1.679 -15.009  21.401  0.00  0.00    +0.000 A 
ATOM      4  C   UNL     1      -2.708 -14.808  20.492  0.00  0.00    +0.000 A 
ATOM      5  C   UNL     1      -1.935 -15.673  22.684  0.00  0.00    +0.000 C 
ATOM      6  C   UNL     1      -4.071 -15.260  20.791  0.00  0.00    +0.000 C 
ATOM      7  C   UNL     1      -3.327 -16.081  22.994  0.00  0.00    +0.000 C 
ATOM      8  C   UNL     1      -4.304 -15.975  22.069  0.00  0.00    +0.000 C 
ATOM      9  C   UNL     1      -0.387 -14.579  21.101  0.00  0.00    +0.000 A 
ATOM     10  C   UNL     1      -2.453 -14.170  19.277  0.00  0.00    +0.000 A 
ATOM     11  C   UNL     1      -0.130 -13.943  19.889  0.00  0.00    +0.000 A 
ATOM     12  C   UNL     1      -1.163 -13.738  18.976  0.00  0.00    +0.000 A 
ENDROOT
BRANCH   7  13
ATOM     13  O   UNL     1      -3.510 -16.658  24.237  0.00  0.00    +0.000 OA
ATOM     14  C   UNL     1      -3.901 -15.672  25.163  0.00  0.00    +0.000 C 
ENDBRANCH   7  13
BRANCH   8  15
ATOM     15  O   UNL     1      -5.598 -16.420  22.270  0.00  0.00    +0.000 OA
ATOM     16  C   UNL     1      -5.701 -17.768  21.877  0.00  0.00    +0.000 C 
ENDBRANCH   8  15
TORSDOF 2
ENDMDL
MODEL 8
REMARK VINA RESULT:      -4.1     16.104     17.889
REMARK  Name = 3136_Dimethoxy.pdbqt.pdb
REMARK  2 active torsions:
REMARK  status: ('A' for Active; 'I' for Inactive)
REMARK    1  A    between atoms: C_7  and  O_13
REMARK    2  A    between atoms: C_8  and  O_15
REMARK                            x       y       z     vdW  Elec       q    Type
REMARK                         _______ _______ _______ _____ _____    ______ ____
ROOT
ATOM      1  O   UNL     1     -24.039  -2.375  11.288  0.00  0.00    +0.000 OA
ATOM      2  O   UNL     1     -21.298  -6.768  10.029  0.00  0.00    +0.000 OA
ATOM      3  C   UNL     1     -22.687  -3.475   9.729  0.00  0.00    +0.000 A 
ATOM      4  C   UNL     1     -21.953  -4.609   9.412  0.00  0.00    +0.000 A 
ATOM      5  C   UNL     1     -23.434  -3.396  10.989  0.00  0.00    +0.000 C 
ATOM      6  C   UNL     1     -21.903  -5.749  10.333  0.00  0.00    +0.000 C 
ATOM      7  C   UNL     1     -23.415  -4.575  11.888  0.00  0.00    +0.000 C 
ATOM      8  C   UNL     1     -22.622  -5.635  11.626  0.00  0.00    +0.000 C 
ATOM      9  C   UNL     1     -22.721  -2.395   8.847  0.00  0.00    +0.000 A 
ATOM     10  C   UNL     1     -21.251  -4.674   8.208  0.00  0.00    +0.000 A 
ATOM     11  C   UNL     1     -22.019  -2.458   7.645  0.00  0.00    +0.000 A 
ATOM     12  C   UNL     1     -21.285  -3.597   7.325  0.00  0.00    +0.000 A 
ENDROOT
BRANCH   7  13
ATOM     13  O   UNL     1     -24.177  -4.456  13.035  0.00  0.00    +0.000 OA
ATOM     14  C   UNL     1     -25.424  -5.079  12.842  0.00  0.00    +0.000 C 
ENDBRANCH   7  13
BRANCH   8  15
ATOM     15  O   UNL     1     -22.496  -6.723  12.471  0.00  0.00    +0.000 OA
ATOM     16  C   UNL     1     -21.571  -6.425  13.490  0.00  0.00    +0.000 C 
ENDBRANCH   8  15
TORSDOF 2
ENDMDL
MODEL 9
REMARK VINA RESULT:      -4.0     17.282     19.287
REMARK  Name = 3136_Dimethoxy.pdbqt.pdb
REMARK  2 active torsions:
REMARK  status: ('A' for Active; 'I' for Inactive)
REMARK    1  A    between atoms: C_7  and  O_13
REMARK    2  A    between atoms: C_8  and  O_15
REMARK                            x       y       z     vdW  Elec       q    Type
REMARK                         _______ _______ _______ _____ _____    ______ ____
ROOT
ATOM      1  O   UNL     1       8.312 -11.130  11.783  0.00  0.00    +0.000 OA
ATOM      2  O   UNL     1       3.654  -8.751  12.802  0.00  0.00    +0.000 OA
ATOM      3  C   UNL     1       6.002 -11.359  12.062  0.00  0.00    +0.000 A 
ATOM      4  C   UNL     1       4.793 -10.744  12.352  0.00  0.00    +0.000 A 
ATOM      5  C   UNL     1       7.240 -10.576  11.988  0.00  0.00    +0.000 C 
ATOM      6  C   UNL     1       4.728  -9.299  12.598  0.00  0.00    +0.000 C 
ATOM      7  C   UNL     1       7.153  -9.109  12.191  0.00  0.00    +0.000 C 
ATOM      8  C   UNL     1       5.996  -8.529  12.570  0.00  0.00    +0.000 C 
ATOM      9  C   UNL     1       6.050 -12.734  11.836  0.00  0.00    +0.000 A 
ATOM     10  C   UNL     1       3.620 -11.498  12.413  0.00  0.00    +0.000 A 
ATOM     11  C   UNL     1       4.881 -13.490  11.898  0.00  0.00    +0.000 A 
ATOM     12  C   UNL     1       3.666 -12.872  12.186  0.00  0.00    +0.000 A 
ENDROOT
BRANCH   7  13
ATOM     13  O   UNL     1       8.347  -8.423  12.062  0.00  0.00    +0.000 OA
ATOM     14  C   UNL     1       9.041  -8.448  13.285  0.00  0.00    +0.000 C 
ENDBRANCH   7  13
BRANCH   8  15
ATOM     15  O   UNL     1       5.875  -7.182  12.860  0.00  0.00    +0.000 OA
ATOM     16  C   UNL     1       5.948  -6.988  14.252  0.00  0.00    +0.000 C 
ENDBRANCH   8  15
TORSDOF 2
ENDMDL
