MODEL 1
REMARK VINA RESULT:      -6.2      0.000      0.000
REMARK  Name = 326_Cuminaldehyde.pdb
REMARK  1 active torsions:
REMARK  status: ('A' for Active; 'I' for Inactive)
REMARK    1  A    between atoms: C_1  and  C_7
REMARK                            x       y       z     vdW  Elec       q    Type
REMARK                         _______ _______ _______ _____ _____    ______ ____
ROOT
ATOM      1  C   UNL     1      -9.255  -4.760  17.824  0.00  0.00    +0.000 C 
ATOM      2  C   UNL     1      -8.784  -5.114  19.091  0.00  0.00    +0.000 C 
ATOM      3  C   UNL     1     -10.164  -3.708  17.698  0.00  0.00    +0.000 C 
ATOM      4  C   UNL     1      -9.216  -4.420  20.220  0.00  0.00    +0.000 C 
ATOM      5  C   UNL     1     -10.598  -3.014  18.827  0.00  0.00    +0.000 C 
ATOM      6  C   UNL     1     -10.122  -3.371  20.087  0.00  0.00    +0.000 C 
ATOM      7  O   UNL     1     -10.931  -2.076  22.194  0.00  0.00    +0.000 OA
ATOM      8  C   UNL     1     -10.566  -2.662  21.241  0.00  0.00    +0.000 C 
ENDROOT
BRANCH   1   9
ATOM      9  C   UNL     1      -8.801  -5.487  16.642  0.00  0.00    +0.000 C 
ATOM     10  C   UNL     1      -9.772  -5.971  15.594  0.00  0.00    +0.000 C 
ATOM     11  C   UNL     1      -7.341  -5.786  16.414  0.00  0.00    +0.000 C 
ENDBRANCH   1   9
TORSDOF 1
ENDMDL
MODEL 2
REMARK VINA RESULT:      -5.8      2.827      4.725
REMARK  Name = 326_Cuminaldehyde.pdb
REMARK  1 active torsions:
REMARK  status: ('A' for Active; 'I' for Inactive)
REMARK    1  A    between atoms: C_1  and  C_7
REMARK                            x       y       z     vdW  Elec       q    Type
REMARK                         _______ _______ _______ _____ _____    ______ ____
ROOT
ATOM      1  C   UNL     1      -8.874  -4.365  19.999  0.00  0.00    +0.000 C 
ATOM      2  C   UNL     1      -8.236  -5.497  19.484  0.00  0.00    +0.000 C 
ATOM      3  C   UNL     1      -9.732  -3.627  19.181  0.00  0.00    +0.000 C 
ATOM      4  C   UNL     1      -8.456  -5.887  18.164  0.00  0.00    +0.000 C 
ATOM      5  C   UNL     1      -9.951  -4.015  17.860  0.00  0.00    +0.000 C 
ATOM      6  C   UNL     1      -9.312  -5.146  17.354  0.00  0.00    +0.000 C 
ATOM      7  O   UNL     1      -9.722  -5.872  14.889  0.00  0.00    +0.000 OA
ATOM      8  C   UNL     1      -9.537  -5.543  16.003  0.00  0.00    +0.000 C 
ENDROOT
BRANCH   1   9
ATOM      9  C   UNL     1      -8.644  -3.958  21.383  0.00  0.00    +0.000 C 
ATOM     10  C   UNL     1      -9.561  -4.399  22.496  0.00  0.00    +0.000 C 
ATOM     11  C   UNL     1      -7.480  -3.076  21.761  0.00  0.00    +0.000 C 
ENDBRANCH   1   9
TORSDOF 1
ENDMDL
MODEL 3
REMARK VINA RESULT:      -5.6      2.604      5.044
REMARK  Name = 326_Cuminaldehyde.pdb
REMARK  1 active torsions:
REMARK  status: ('A' for Active; 'I' for Inactive)
REMARK    1  A    between atoms: C_1  and  C_7
REMARK                            x       y       z     vdW  Elec       q    Type
REMARK                         _______ _______ _______ _____ _____    ______ ____
ROOT
ATOM      1  C   UNL     1      -9.547  -3.241  19.943  0.00  0.00    +0.000 C 
ATOM      2  C   UNL     1     -10.135  -3.096  18.684  0.00  0.00    +0.000 C 
ATOM      3  C   UNL     1      -8.706  -4.329  20.188  0.00  0.00    +0.000 C 
ATOM      4  C   UNL     1      -9.882  -4.028  17.679  0.00  0.00    +0.000 C 
ATOM      5  C   UNL     1      -8.454  -5.263  19.184  0.00  0.00    +0.000 C 
ATOM      6  C   UNL     1      -9.043  -5.110  17.930  0.00  0.00    +0.000 C 
ATOM      7  O   UNL     1      -8.572  -6.853  16.056  0.00  0.00    +0.000 OA
ATOM      8  C   UNL     1      -8.785  -6.065  16.903  0.00  0.00    +0.000 C 
ENDROOT
BRANCH   1   9
ATOM      9  C   UNL     1      -9.812  -2.263  20.995  0.00  0.00    +0.000 C 
ATOM     10  C   UNL     1     -10.903  -2.478  22.014  0.00  0.00    +0.000 C 
ATOM     11  C   UNL     1      -9.005  -0.994  21.111  0.00  0.00    +0.000 C 
ENDBRANCH   1   9
TORSDOF 1
ENDMDL
MODEL 4
REMARK VINA RESULT:      -5.4      2.385      3.360
REMARK  Name = 326_Cuminaldehyde.pdb
REMARK  1 active torsions:
REMARK  status: ('A' for Active; 'I' for Inactive)
REMARK    1  A    between atoms: C_1  and  C_7
REMARK                            x       y       z     vdW  Elec       q    Type
REMARK                         _______ _______ _______ _____ _____    ______ ____
ROOT
ATOM      1  C   UNL     1      -9.247  -3.147  19.773  0.00  0.00    +0.000 C 
ATOM      2  C   UNL     1      -8.675  -4.230  20.444  0.00  0.00    +0.000 C 
ATOM      3  C   UNL     1      -9.156  -1.868  20.329  0.00  0.00    +0.000 C 
ATOM      4  C   UNL     1      -8.017  -4.038  21.658  0.00  0.00    +0.000 C 
ATOM      5  C   UNL     1      -8.499  -1.675  21.543  0.00  0.00    +0.000 C 
ATOM      6  C   UNL     1      -7.931  -2.761  22.206  0.00  0.00    +0.000 C 
ATOM      7  O   UNL     1      -6.705  -2.400  24.473  0.00  0.00    +0.000 OA
ATOM      8  C   UNL     1      -7.259  -2.563  23.448  0.00  0.00    +0.000 C 
ENDROOT
BRANCH   1   9
ATOM      9  C   UNL     1      -9.935  -3.349  18.501  0.00  0.00    +0.000 C 
ATOM     10  C   UNL     1     -10.941  -2.352  17.982  0.00  0.00    +0.000 C 
ATOM     11  C   UNL     1      -9.671  -4.564  17.648  0.00  0.00    +0.000 C 
ENDBRANCH   1   9
TORSDOF 1
ENDMDL
MODEL 5
REMARK VINA RESULT:      -5.2      2.754      5.085
REMARK  Name = 326_Cuminaldehyde.pdb
REMARK  1 active torsions:
REMARK  status: ('A' for Active; 'I' for Inactive)
REMARK    1  A    between atoms: C_1  and  C_7
REMARK                            x       y       z     vdW  Elec       q    Type
REMARK                         _______ _______ _______ _____ _____    ______ ____
ROOT
ATOM      1  C   UNL     1      -9.424  -1.655  20.572  0.00  0.00    +0.000 C 
ATOM      2  C   UNL     1      -8.493  -2.421  21.278  0.00  0.00    +0.000 C 
ATOM      3  C   UNL     1     -10.095  -2.219  19.485  0.00  0.00    +0.000 C 
ATOM      4  C   UNL     1      -8.237  -3.739  20.902  0.00  0.00    +0.000 C 
ATOM      5  C   UNL     1      -9.840  -3.537  19.108  0.00  0.00    +0.000 C 
ATOM      6  C   UNL     1      -8.911  -4.295  19.818  0.00  0.00    +0.000 C 
ATOM      7  O   UNL     1      -8.434  -6.754  19.113  0.00  0.00    +0.000 OA
ATOM      8  C   UNL     1      -8.649  -5.642  19.432  0.00  0.00    +0.000 C 
ENDROOT
BRANCH   1   9
ATOM      9  C   UNL     1      -9.692  -0.275  20.967  0.00  0.00    +0.000 C 
ATOM     10  C   UNL     1     -10.143   0.071  22.364  0.00  0.00    +0.000 C 
ATOM     11  C   UNL     1      -9.529   0.867  19.996  0.00  0.00    +0.000 C 
ENDBRANCH   1   9
TORSDOF 1
ENDMDL
MODEL 6
REMARK VINA RESULT:      -5.1      3.359      4.533
REMARK  Name = 326_Cuminaldehyde.pdb
REMARK  1 active torsions:
REMARK  status: ('A' for Active; 'I' for Inactive)
REMARK    1  A    between atoms: C_1  and  C_7
REMARK                            x       y       z     vdW  Elec       q    Type
REMARK                         _______ _______ _______ _____ _____    ______ ____
ROOT
ATOM      1  C   UNL     1      -9.131  -2.584  20.447  0.00  0.00    +0.000 C 
ATOM      2  C   UNL     1      -8.867  -1.244  20.739  0.00  0.00    +0.000 C 
ATOM      3  C   UNL     1      -8.354  -3.583  21.039  0.00  0.00    +0.000 C 
ATOM      4  C   UNL     1      -7.838  -0.906  21.617  0.00  0.00    +0.000 C 
ATOM      5  C   UNL     1      -7.324  -3.246  21.915  0.00  0.00    +0.000 C 
ATOM      6  C   UNL     1      -7.068  -1.907  22.203  0.00  0.00    +0.000 C 
ATOM      7  O   UNL     1      -5.145  -1.277  23.839  0.00  0.00    +0.000 OA
ATOM      8  C   UNL     1      -6.014  -1.561  23.100  0.00  0.00    +0.000 C 
ENDROOT
BRANCH   1   9
ATOM      9  C   UNL     1     -10.210  -2.938  19.528  0.00  0.00    +0.000 C 
ATOM     10  C   UNL     1     -10.469  -2.142  18.273  0.00  0.00    +0.000 C 
ATOM     11  C   UNL     1     -11.115  -4.115  19.793  0.00  0.00    +0.000 C 
ENDBRANCH   1   9
TORSDOF 1
ENDMDL
MODEL 7
REMARK VINA RESULT:      -5.0      3.517      5.560
REMARK  Name = 326_Cuminaldehyde.pdb
REMARK  1 active torsions:
REMARK  status: ('A' for Active; 'I' for Inactive)
REMARK    1  A    between atoms: C_1  and  C_7
REMARK                            x       y       z     vdW  Elec       q    Type
REMARK                         _______ _______ _______ _____ _____    ______ ____
ROOT
ATOM      1  C   UNL     1      -7.570  -1.246  21.763  0.00  0.00    +0.000 C 
ATOM      2  C   UNL     1      -7.661  -2.638  21.688  0.00  0.00    +0.000 C 
ATOM      3  C   UNL     1      -8.492  -0.458  21.071  0.00  0.00    +0.000 C 
ATOM      4  C   UNL     1      -8.666  -3.236  20.929  0.00  0.00    +0.000 C 
ATOM      5  C   UNL     1      -9.497  -1.055  20.312  0.00  0.00    +0.000 C 
ATOM      6  C   UNL     1      -9.582  -2.444  20.242  0.00  0.00    +0.000 C 
ATOM      7  O   UNL     1     -11.458  -3.559  18.825  0.00  0.00    +0.000 OA
ATOM      8  C   UNL     1     -10.610  -3.055  19.465  0.00  0.00    +0.000 C 
ENDROOT
BRANCH   1   9
ATOM      9  C   UNL     1      -6.517  -0.620  22.558  0.00  0.00    +0.000 C 
ATOM     10  C   UNL     1      -6.185   0.844  22.413  0.00  0.00    +0.000 C 
ATOM     11  C   UNL     1      -5.714  -1.409  23.562  0.00  0.00    +0.000 C 
ENDBRANCH   1   9
TORSDOF 1
ENDMDL
MODEL 8
REMARK VINA RESULT:      -4.9      2.395      3.493
REMARK  Name = 326_Cuminaldehyde.pdb
REMARK  1 active torsions:
REMARK  status: ('A' for Active; 'I' for Inactive)
REMARK    1  A    between atoms: C_1  and  C_7
REMARK                            x       y       z     vdW  Elec       q    Type
REMARK                         _______ _______ _______ _____ _____    ______ ____
ROOT
ATOM      1  C   UNL     1      -9.525  -4.066  20.107  0.00  0.00    +0.000 C 
ATOM      2  C   UNL     1      -8.409  -3.450  20.680  0.00  0.00    +0.000 C 
ATOM      3  C   UNL     1     -10.323  -4.904  20.888  0.00  0.00    +0.000 C 
ATOM      4  C   UNL     1      -8.096  -3.669  22.020  0.00  0.00    +0.000 C 
ATOM      5  C   UNL     1     -10.010  -5.125  22.229  0.00  0.00    +0.000 C 
ATOM      6  C   UNL     1      -8.896  -4.506  22.793  0.00  0.00    +0.000 C 
ATOM      7  O   UNL     1      -8.312  -4.918  25.295  0.00  0.00    +0.000 OA
ATOM      8  C   UNL     1      -8.576  -4.732  24.164  0.00  0.00    +0.000 C 
ENDROOT
BRANCH   1   9
ATOM      9  C   UNL     1      -9.853  -3.835  18.703  0.00  0.00    +0.000 C 
ATOM     10  C   UNL     1      -9.329  -4.736  17.613  0.00  0.00    +0.000 C 
ATOM     11  C   UNL     1     -10.731  -2.685  18.279  0.00  0.00    +0.000 C 
ENDBRANCH   1   9
TORSDOF 1
ENDMDL
MODEL 9
REMARK VINA RESULT:      -4.9      3.276      4.803
REMARK  Name = 326_Cuminaldehyde.pdb
REMARK  1 active torsions:
REMARK  status: ('A' for Active; 'I' for Inactive)
REMARK    1  A    between atoms: C_1  and  C_7
REMARK                            x       y       z     vdW  Elec       q    Type
REMARK                         _______ _______ _______ _____ _____    ______ ____
ROOT
ATOM      1  C   UNL     1      -8.638  -2.132  20.963  0.00  0.00    +0.000 C 
ATOM      2  C   UNL     1      -7.953  -1.130  21.655  0.00  0.00    +0.000 C 
ATOM      3  C   UNL     1      -9.591  -1.777  20.005  0.00  0.00    +0.000 C 
ATOM      4  C   UNL     1      -8.216   0.213  21.390  0.00  0.00    +0.000 C 
ATOM      5  C   UNL     1      -9.855  -0.434  19.740  0.00  0.00    +0.000 C 
ATOM      6  C   UNL     1      -9.167   0.559  20.434  0.00  0.00    +0.000 C 
ATOM      7  O   UNL     1      -9.660   3.066  19.941  0.00  0.00    +0.000 OA
ATOM      8  C   UNL     1      -9.437   1.933  20.164  0.00  0.00    +0.000 C 
ENDROOT
BRANCH   1   9
ATOM      9  C   UNL     1      -8.361  -3.539  21.240  0.00  0.00    +0.000 C 
ATOM     10  C   UNL     1      -7.783  -3.983  22.561  0.00  0.00    +0.000 C 
ATOM     11  C   UNL     1      -8.641  -4.612  20.218  0.00  0.00    +0.000 C 
ENDBRANCH   1   9
TORSDOF 1
ENDMDL
