MODEL 1
REMARK VINA RESULT:      -4.8      0.000      0.000
REMARK  Name = 3363_5FluorouracilDeoxyriboside.pdbqt.pdb
REMARK  4 active torsions:
REMARK  status: ('A' for Active; 'I' for Inactive)
REMARK    1  A    between atoms: N_4  and  C1*_13
REMARK    2  A    between atoms: C3*_12  and  O3*_16
REMARK    3  A    between atoms: C4*_15  and  C5*_18
REMARK    4  A    between atoms: C5*_18  and  O5*_19
REMARK                            x       y       z     vdW  Elec       q    Type
REMARK                         _______ _______ _______ _____ _____    ______ ____
ROOT
ATOM      1  F   UNL     1     -20.729  -5.931   7.459  0.00  0.00    +0.000 F 
ATOM      2  O   UNL     1     -23.189  -2.959  11.283  0.00  0.00    +0.000 OA
ATOM      3  O   UNL     1     -21.468  -7.006   9.969  0.00  0.00    +0.000 OA
ATOM      4  N   UNL     1     -22.018  -3.050   9.224  0.00  0.00    +0.000 N 
ATOM      5  N   UNL     1     -22.238  -4.933  10.614  0.00  0.00    +0.000 N 
ATOM      6  C   UNL     1     -22.539  -3.561  10.437  0.00  0.00    +0.000 C 
ATOM      7  C   UNL     1     -21.333  -3.907   8.440  0.00  0.00    +0.000 C 
ATOM      8  C   UNL     1     -21.011  -5.154   8.517  0.00  0.00    +0.000 C 
ATOM      9  C   UNL     1     -21.569  -5.806   9.745  0.00  0.00    +0.000 C 
ATOM     10  H   UNL     1     -22.624  -5.352  11.448  0.00  0.00    +0.000 HD
ENDROOT
BRANCH   4  13
ATOM     11  O4* UNL     1     -21.717  -0.674   9.566  0.00  0.00    +0.000 OA
ATOM     12  C3* UNL     1     -22.700   0.118   7.623  0.00  0.00    +0.000 A 
ATOM     13  C1* UNL     1     -22.176  -1.759   8.808  0.00  0.00    +0.000 A 
ATOM     14  C2* UNL     1     -22.768  -1.287   7.621  0.00  0.00    +0.000 A 
ATOM     15  C4* UNL     1     -22.033   0.485   8.848  0.00  0.00    +0.000 A 
BRANCH  12  16
ATOM     16  O3* UNL     1     -22.594   0.870   6.487  0.00  0.00    +0.000 OA
ATOM     17  H3* UNL     1     -22.066   1.677   6.629  0.00  0.00    +0.000 HD
ENDBRANCH  12  16
BRANCH  15  18
ATOM     18  C5* UNL     1     -21.548   1.757   9.214  0.00  0.00    +0.000 C 
BRANCH  18  19
ATOM     19  O5* UNL     1     -21.095   2.951   9.578  0.00  0.00    +0.000 OA
ATOM     20  H5* UNL     1     -20.400   3.256   8.969  0.00  0.00    +0.000 HD
ENDBRANCH  18  19
ENDBRANCH  15  18
ENDBRANCH   4  13
TORSDOF 4
ENDMDL
MODEL 2
REMARK VINA RESULT:      -4.5      3.746      5.447
REMARK  Name = 3363_5FluorouracilDeoxyriboside.pdbqt.pdb
REMARK  4 active torsions:
REMARK  status: ('A' for Active; 'I' for Inactive)
REMARK    1  A    between atoms: N_4  and  C1*_13
REMARK    2  A    between atoms: C3*_12  and  O3*_16
REMARK    3  A    between atoms: C4*_15  and  C5*_18
REMARK    4  A    between atoms: C5*_18  and  O5*_19
REMARK                            x       y       z     vdW  Elec       q    Type
REMARK                         _______ _______ _______ _____ _____    ______ ____
ROOT
ATOM      1  F   UNL     1     -22.832  -7.020  14.806  0.00  0.00    +0.000 F 
ATOM      2  O   UNL     1     -24.053  -7.554   9.539  0.00  0.00    +0.000 OA
ATOM      3  O   UNL     1     -24.866  -8.762  13.892  0.00  0.00    +0.000 OA
ATOM      4  N   UNL     1     -22.917  -6.369  11.250  0.00  0.00    +0.000 N 
ATOM      5  N   UNL     1     -24.480  -8.057  11.733  0.00  0.00    +0.000 N 
ATOM      6  C   UNL     1     -23.819  -7.322  10.719  0.00  0.00    +0.000 C 
ATOM      7  C   UNL     1     -22.819  -6.295  12.593  0.00  0.00    +0.000 C 
ATOM      8  C   UNL     1     -23.373  -6.912  13.581  0.00  0.00    +0.000 C 
ATOM      9  C   UNL     1     -24.308  -7.989  13.122  0.00  0.00    +0.000 C 
ATOM     10  H   UNL     1     -25.105  -8.778  11.402  0.00  0.00    +0.000 HD
ENDROOT
BRANCH   4  13
ATOM     11  O4* UNL     1     -20.955  -5.973   9.890  0.00  0.00    +0.000 OA
ATOM     12  C3* UNL     1     -21.315  -3.751   9.339  0.00  0.00    +0.000 A 
ATOM     13  C1* UNL     1     -22.146  -5.539  10.486  0.00  0.00    +0.000 A 
ATOM     14  C2* UNL     1     -22.377  -4.191  10.150  0.00  0.00    +0.000 A 
ATOM     15  C4* UNL     1     -20.435  -4.883   9.182  0.00  0.00    +0.000 A 
BRANCH  12  16
ATOM     16  O3* UNL     1     -21.451  -2.799   8.369  0.00  0.00    +0.000 OA
ATOM     17  H3* UNL     1     -20.761  -2.870   7.685  0.00  0.00    +0.000 HD
ENDBRANCH  12  16
BRANCH  15  18
ATOM     18  C5* UNL     1     -19.345  -5.006   8.298  0.00  0.00    +0.000 C 
BRANCH  18  19
ATOM     19  O5* UNL     1     -18.319  -5.102   7.459  0.00  0.00    +0.000 OA
ATOM     20  H5* UNL     1     -17.515  -4.723   7.855  0.00  0.00    +0.000 HD
ENDBRANCH  18  19
ENDBRANCH  15  18
ENDBRANCH   4  13
TORSDOF 4
ENDMDL
MODEL 3
REMARK VINA RESULT:      -4.4      3.756      5.548
REMARK  Name = 3363_5FluorouracilDeoxyriboside.pdbqt.pdb
REMARK  4 active torsions:
REMARK  status: ('A' for Active; 'I' for Inactive)
REMARK    1  A    between atoms: N_4  and  C1*_13
REMARK    2  A    between atoms: C3*_12  and  O3*_16
REMARK    3  A    between atoms: C4*_15  and  C5*_18
REMARK    4  A    between atoms: C5*_18  and  O5*_19
REMARK                            x       y       z     vdW  Elec       q    Type
REMARK                         _______ _______ _______ _____ _____    ______ ____
ROOT
ATOM      1  F   UNL     1     -26.320  -7.036  12.270  0.00  0.00    +0.000 F 
ATOM      2  O   UNL     1     -21.097  -6.434  13.634  0.00  0.00    +0.000 OA
ATOM      3  O   UNL     1     -25.211  -8.234  14.579  0.00  0.00    +0.000 OA
ATOM      4  N   UNL     1     -22.816  -6.179  12.021  0.00  0.00    +0.000 N 
ATOM      5  N   UNL     1     -23.148  -7.382  14.014  0.00  0.00    +0.000 N 
ATOM      6  C   UNL     1     -22.237  -6.631  13.231  0.00  0.00    +0.000 C 
ATOM      7  C   UNL     1     -24.101  -6.515  11.791  0.00  0.00    +0.000 C 
ATOM      8  C   UNL     1     -24.996  -7.187  12.434  0.00  0.00    +0.000 C 
ATOM      9  C   UNL     1     -24.498  -7.662  13.765  0.00  0.00    +0.000 C 
ATOM     10  H   UNL     1     -22.791  -7.692  14.907  0.00  0.00    +0.000 HD
ENDROOT
BRANCH   4  13
ATOM     11  O4* UNL     1     -21.092  -5.941  10.341  0.00  0.00    +0.000 OA
ATOM     12  C3* UNL     1     -21.469  -3.741   9.718  0.00  0.00    +0.000 A 
ATOM     13  C1* UNL     1     -22.155  -5.425  11.093  0.00  0.00    +0.000 A 
ATOM     14  C2* UNL     1     -22.397  -4.091  10.715  0.00  0.00    +0.000 A 
ATOM     15  C4* UNL     1     -20.661  -4.914   9.492  0.00  0.00    +0.000 A 
BRANCH  12  16
ATOM     16  O3* UNL     1     -21.732  -2.840   8.725  0.00  0.00    +0.000 OA
ATOM     17  H3* UNL     1     -21.492  -1.931   8.980  0.00  0.00    +0.000 HD
ENDBRANCH  12  16
BRANCH  15  18
ATOM     18  C5* UNL     1     -19.734  -5.131   8.453  0.00  0.00    +0.000 C 
BRANCH  18  19
ATOM     19  O5* UNL     1     -18.856  -5.315   7.473  0.00  0.00    +0.000 OA
ATOM     20  H5* UNL     1     -18.269  -6.065   7.673  0.00  0.00    +0.000 HD
ENDBRANCH  18  19
ENDBRANCH  15  18
ENDBRANCH   4  13
TORSDOF 4
ENDMDL
MODEL 4
REMARK VINA RESULT:      -4.4      2.582      3.536
REMARK  Name = 3363_5FluorouracilDeoxyriboside.pdbqt.pdb
REMARK  4 active torsions:
REMARK  status: ('A' for Active; 'I' for Inactive)
REMARK    1  A    between atoms: N_4  and  C1*_13
REMARK    2  A    between atoms: C3*_12  and  O3*_16
REMARK    3  A    between atoms: C4*_15  and  C5*_18
REMARK    4  A    between atoms: C5*_18  and  O5*_19
REMARK                            x       y       z     vdW  Elec       q    Type
REMARK                         _______ _______ _______ _____ _____    ______ ____
ROOT
ATOM      1  F   UNL     1     -21.951  -4.256   8.931  0.00  0.00    +0.000 F 
ATOM      2  O   UNL     1     -22.348   0.060   5.657  0.00  0.00    +0.000 OA
ATOM      3  O   UNL     1     -22.573  -4.494   6.182  0.00  0.00    +0.000 OA
ATOM      4  N   UNL     1     -22.189  -0.812   7.856  0.00  0.00    +0.000 N 
ATOM      5  N   UNL     1     -22.536  -2.199   5.989  0.00  0.00    +0.000 N 
ATOM      6  C   UNL     1     -22.355  -0.873   6.452  0.00  0.00    +0.000 C 
ATOM      7  C   UNL     1     -22.227  -1.979   8.530  0.00  0.00    +0.000 C 
ATOM      8  C   UNL     1     -22.386  -3.216   8.201  0.00  0.00    +0.000 C 
ATOM      9  C   UNL     1     -22.512  -3.395   6.719  0.00  0.00    +0.000 C 
ATOM     10  H   UNL     1     -22.618  -2.296   4.988  0.00  0.00    +0.000 HD
ENDROOT
BRANCH   4  13
ATOM     11  O4* UNL     1     -20.864   0.534   9.368  0.00  0.00    +0.000 OA
ATOM     12  C3* UNL     1     -22.178   2.441   9.432  0.00  0.00    +0.000 A 
ATOM     13  C1* UNL     1     -21.987   0.346   8.552  0.00  0.00    +0.000 A 
ATOM     14  C2* UNL     1     -22.788   1.504   8.579  0.00  0.00    +0.000 A 
ATOM     15  C4* UNL     1     -20.970   1.818   9.915  0.00  0.00    +0.000 A 
BRANCH  12  16
ATOM     16  O3* UNL     1     -22.278   3.793   9.263  0.00  0.00    +0.000 OA
ATOM     17  H3* UNL     1     -22.429   4.259  10.105  0.00  0.00    +0.000 HD
ENDBRANCH  12  16
BRANCH  15  18
ATOM     18  C5* UNL     1     -19.919   2.424  10.632  0.00  0.00    +0.000 C 
BRANCH  18  19
ATOM     19  O5* UNL     1     -18.923   3.007  11.291  0.00  0.00    +0.000 OA
ATOM     20  H5* UNL     1     -18.595   2.427  12.000  0.00  0.00    +0.000 HD
ENDBRANCH  18  19
ENDBRANCH  15  18
ENDBRANCH   4  13
TORSDOF 4
ENDMDL
MODEL 5
REMARK VINA RESULT:      -4.3     19.281     20.574
REMARK  Name = 3363_5FluorouracilDeoxyriboside.pdbqt.pdb
REMARK  4 active torsions:
REMARK  status: ('A' for Active; 'I' for Inactive)
REMARK    1  A    between atoms: N_4  and  C1*_13
REMARK    2  A    between atoms: C3*_12  and  O3*_16
REMARK    3  A    between atoms: C4*_15  and  C5*_18
REMARK    4  A    between atoms: C5*_18  and  O5*_19
REMARK                            x       y       z     vdW  Elec       q    Type
REMARK                         _______ _______ _______ _____ _____    ______ ____
ROOT
ATOM      1  F   UNL     1      -0.905  -8.529  -1.359  0.00  0.00    +0.000 F 
ATOM      2  O   UNL     1      -4.335  -6.606   2.389  0.00  0.00    +0.000 OA
ATOM      3  O   UNL     1      -0.035  -7.676   1.195  0.00  0.00    +0.000 OA
ATOM      4  N   UNL     1      -3.936  -7.249   0.143  0.00  0.00    +0.000 N 
ATOM      5  N   UNL     1      -2.196  -7.072   1.714  0.00  0.00    +0.000 N 
ATOM      6  C   UNL     1      -3.586  -6.943   1.480  0.00  0.00    +0.000 C 
ATOM      7  C   UNL     1      -2.935  -7.605  -0.688  0.00  0.00    +0.000 C 
ATOM      8  C   UNL     1      -1.658  -7.747  -0.568  0.00  0.00    +0.000 C 
ATOM      9  C   UNL     1      -1.192  -7.501   0.835  0.00  0.00    +0.000 C 
ATOM     10  H   UNL     1      -1.904  -6.902   2.666  0.00  0.00    +0.000 HD
ENDROOT
BRANCH   4  13
ATOM     11  O4* UNL     1      -6.177  -8.155   0.041  0.00  0.00    +0.000 OA
ATOM     12  C3* UNL     1      -7.129  -6.647  -1.439  0.00  0.00    +0.000 A 
ATOM     13  C1* UNL     1      -5.213  -7.213  -0.341  0.00  0.00    +0.000 A 
ATOM     14  C2* UNL     1      -5.786  -6.287  -1.234  0.00  0.00    +0.000 A 
ATOM     15  C4* UNL     1      -7.360  -7.818  -0.628  0.00  0.00    +0.000 A 
BRANCH  12  16
ATOM     16  O3* UNL     1      -8.120  -5.744  -1.706  0.00  0.00    +0.000 OA
ATOM     17  H3* UNL     1      -8.898  -6.163  -2.117  0.00  0.00    +0.000 HD
ENDBRANCH  12  16
BRANCH  15  18
ATOM     18  C5* UNL     1      -8.594  -8.430  -0.336  0.00  0.00    +0.000 C 
BRANCH  18  19
ATOM     19  O5* UNL     1      -9.749  -9.020  -0.045  0.00  0.00    +0.000 OA
ATOM     20  H5* UNL     1      -9.925  -8.979   0.911  0.00  0.00    +0.000 HD
ENDBRANCH  18  19
ENDBRANCH  15  18
ENDBRANCH   4  13
TORSDOF 4
ENDMDL
MODEL 6
REMARK VINA RESULT:      -4.3      2.730      5.802
REMARK  Name = 3363_5FluorouracilDeoxyriboside.pdbqt.pdb
REMARK  4 active torsions:
REMARK  status: ('A' for Active; 'I' for Inactive)
REMARK    1  A    between atoms: N_4  and  C1*_13
REMARK    2  A    between atoms: C3*_12  and  O3*_16
REMARK    3  A    between atoms: C4*_15  and  C5*_18
REMARK    4  A    between atoms: C5*_18  and  O5*_19
REMARK                            x       y       z     vdW  Elec       q    Type
REMARK                         _______ _______ _______ _____ _____    ______ ____
ROOT
ATOM      1  F   UNL     1     -25.451  -1.776   5.639  0.00  0.00    +0.000 F 
ATOM      2  O   UNL     1     -21.526   0.126   8.877  0.00  0.00    +0.000 OA
ATOM      3  O   UNL     1     -25.158   0.980   6.204  0.00  0.00    +0.000 OA
ATOM      4  N   UNL     1     -22.745  -1.726   8.037  0.00  0.00    +0.000 N 
ATOM      5  N   UNL     1     -23.396   0.492   7.604  0.00  0.00    +0.000 N 
ATOM      6  C   UNL     1     -22.458  -0.355   8.243  0.00  0.00    +0.000 C 
ATOM      7  C   UNL     1     -23.829  -2.021   7.292  0.00  0.00    +0.000 C 
ATOM      8  C   UNL     1     -24.730  -1.330   6.681  0.00  0.00    +0.000 C 
ATOM      9  C   UNL     1     -24.482   0.144   6.790  0.00  0.00    +0.000 C 
ATOM     10  H   UNL     1     -23.209   1.480   7.690  0.00  0.00    +0.000 HD
ENDROOT
BRANCH   4  13
ATOM     11  O4* UNL     1     -20.887  -3.263   7.840  0.00  0.00    +0.000 OA
ATOM     12  C3* UNL     1     -21.121  -4.402   9.844  0.00  0.00    +0.000 A 
ATOM     13  C1* UNL     1     -21.989  -2.748   8.536  0.00  0.00    +0.000 A 
ATOM     14  C2* UNL     1     -22.133  -3.429   9.759  0.00  0.00    +0.000 A 
ATOM     15  C4* UNL     1     -20.345  -4.280   8.635  0.00  0.00    +0.000 A 
BRANCH  12  16
ATOM     16  O3* UNL     1     -20.565  -4.811  11.024  0.00  0.00    +0.000 OA
ATOM     17  H3* UNL     1     -20.511  -4.087  11.674  0.00  0.00    +0.000 HD
ENDBRANCH  12  16
BRANCH  15  18
ATOM     18  C5* UNL     1     -19.109  -4.891   8.343  0.00  0.00    +0.000 C 
BRANCH  18  19
ATOM     19  O5* UNL     1     -17.950  -5.484   8.078  0.00  0.00    +0.000 OA
ATOM     20  H5* UNL     1     -18.026  -6.052   7.293  0.00  0.00    +0.000 HD
ENDBRANCH  18  19
ENDBRANCH  15  18
ENDBRANCH   4  13
TORSDOF 4
ENDMDL
MODEL 7
REMARK VINA RESULT:      -4.2     19.873     20.542
REMARK  Name = 3363_5FluorouracilDeoxyriboside.pdbqt.pdb
REMARK  4 active torsions:
REMARK  status: ('A' for Active; 'I' for Inactive)
REMARK    1  A    between atoms: N_4  and  C1*_13
REMARK    2  A    between atoms: C3*_12  and  O3*_16
REMARK    3  A    between atoms: C4*_15  and  C5*_18
REMARK    4  A    between atoms: C5*_18  and  O5*_19
REMARK                            x       y       z     vdW  Elec       q    Type
REMARK                         _______ _______ _______ _____ _____    ______ ____
ROOT
ATOM      1  F   UNL     1     -11.693  -2.394  22.100  0.00  0.00    +0.000 F 
ATOM      2  O   UNL     1      -7.683  -5.262  24.382  0.00  0.00    +0.000 OA
ATOM      3  O   UNL     1     -11.990  -5.118  22.803  0.00  0.00    +0.000 OA
ATOM      4  N   UNL     1      -8.390  -3.293  23.266  0.00  0.00    +0.000 N 
ATOM      5  N   UNL     1      -9.795  -5.163  23.500  0.00  0.00    +0.000 N 
ATOM      6  C   UNL     1      -8.520  -4.610  23.770  0.00  0.00    +0.000 C 
ATOM      7  C   UNL     1      -9.455  -2.772  22.625  0.00  0.00    +0.000 C 
ATOM      8  C   UNL     1     -10.639  -3.194  22.334  0.00  0.00    +0.000 C 
ATOM      9  C   UNL     1     -10.899  -4.566  22.878  0.00  0.00    +0.000 C 
ATOM     10  H   UNL     1      -9.949  -6.088  23.876  0.00  0.00    +0.000 HD
ENDROOT
BRANCH   4  13
ATOM     11  O4* UNL     1      -6.786  -2.131  24.656  0.00  0.00    +0.000 OA
ATOM     12  C3* UNL     1      -5.376  -1.314  23.009  0.00  0.00    +0.000 A 
ATOM     13  C1* UNL     1      -7.264  -2.531  23.402  0.00  0.00    +0.000 A 
ATOM     14  C2* UNL     1      -6.408  -2.046  22.395  0.00  0.00    +0.000 A 
ATOM     15  C4* UNL     1      -5.626  -1.381  24.428  0.00  0.00    +0.000 A 
BRANCH  12  16
ATOM     16  O3* UNL     1      -4.112  -1.219  22.500  0.00  0.00    +0.000 OA
ATOM     17  H3* UNL     1      -3.826  -2.045  22.070  0.00  0.00    +0.000 HD
ENDBRANCH  12  16
BRANCH  15  18
ATOM     18  C5* UNL     1      -4.768  -0.979  25.471  0.00  0.00    +0.000 C 
BRANCH  18  19
ATOM     19  O5* UNL     1      -3.952  -0.621  26.456  0.00  0.00    +0.000 OA
ATOM     20  H5* UNL     1      -3.671   0.305  26.349  0.00  0.00    +0.000 HD
ENDBRANCH  18  19
ENDBRANCH  15  18
ENDBRANCH   4  13
TORSDOF 4
ENDMDL
MODEL 8
REMARK VINA RESULT:      -4.1      3.571      5.425
REMARK  Name = 3363_5FluorouracilDeoxyriboside.pdbqt.pdb
REMARK  4 active torsions:
REMARK  status: ('A' for Active; 'I' for Inactive)
REMARK    1  A    between atoms: N_4  and  C1*_13
REMARK    2  A    between atoms: C3*_12  and  O3*_16
REMARK    3  A    between atoms: C4*_15  and  C5*_18
REMARK    4  A    between atoms: C5*_18  and  O5*_19
REMARK                            x       y       z     vdW  Elec       q    Type
REMARK                         _______ _______ _______ _____ _____    ______ ____
ROOT
ATOM      1  F   UNL     1     -22.958  -6.830  13.414  0.00  0.00    +0.000 F 
ATOM      2  O   UNL     1     -22.496  -2.443  10.244  0.00  0.00    +0.000 OA
ATOM      3  O   UNL     1     -23.855  -4.273  14.227  0.00  0.00    +0.000 OA
ATOM      4  N   UNL     1     -21.927  -4.703  10.677  0.00  0.00    +0.000 N 
ATOM      5  N   UNL     1     -23.076  -3.386  12.250  0.00  0.00    +0.000 N 
ATOM      6  C   UNL     1     -22.482  -3.433  10.965  0.00  0.00    +0.000 C 
ATOM      7  C   UNL     1     -22.036  -5.652  11.629  0.00  0.00    +0.000 C 
ATOM      8  C   UNL     1     -22.551  -5.701  12.811  0.00  0.00    +0.000 C 
ATOM      9  C   UNL     1     -23.219  -4.415  13.190  0.00  0.00    +0.000 C 
ATOM     10  H   UNL     1     -23.522  -2.510  12.484  0.00  0.00    +0.000 HD
ENDROOT
BRANCH   4  13
ATOM     11  O4* UNL     1     -22.021  -5.439   8.374  0.00  0.00    +0.000 OA
ATOM     12  C3* UNL     1     -19.761  -5.374   7.862  0.00  0.00    +0.000 A 
ATOM     13  C1* UNL     1     -21.305  -5.016   9.502  0.00  0.00    +0.000 A 
ATOM     14  C2* UNL     1     -19.931  -4.966   9.197  0.00  0.00    +0.000 A 
ATOM     15  C4* UNL     1     -21.083  -5.662   7.359  0.00  0.00    +0.000 A 
BRANCH  12  16
ATOM     16  O3* UNL     1     -18.763  -4.910   7.052  0.00  0.00    +0.000 OA
ATOM     17  H3* UNL     1     -18.383  -4.075   7.380  0.00  0.00    +0.000 HD
ENDBRANCH  12  16
BRANCH  15  18
ATOM     18  C5* UNL     1     -21.458  -5.908   6.024  0.00  0.00    +0.000 C 
BRANCH  18  19
ATOM     19  O5* UNL     1     -21.792  -6.143   4.759  0.00  0.00    +0.000 OA
ATOM     20  H5* UNL     1     -21.143  -6.732   4.336  0.00  0.00    +0.000 HD
ENDBRANCH  18  19
ENDBRANCH  15  18
ENDBRANCH   4  13
TORSDOF 4
ENDMDL
MODEL 9
REMARK VINA RESULT:      -4.0     18.824     20.337
REMARK  Name = 3363_5FluorouracilDeoxyriboside.pdbqt.pdb
REMARK  4 active torsions:
REMARK  status: ('A' for Active; 'I' for Inactive)
REMARK    1  A    between atoms: N_4  and  C1*_13
REMARK    2  A    between atoms: C3*_12  and  O3*_16
REMARK    3  A    between atoms: C4*_15  and  C5*_18
REMARK    4  A    between atoms: C5*_18  and  O5*_19
REMARK                            x       y       z     vdW  Elec       q    Type
REMARK                         _______ _______ _______ _____ _____    ______ ____
ROOT
ATOM      1  F   UNL     1      -7.250  -3.277  21.583  0.00  0.00    +0.000 F 
ATOM      2  O   UNL     1     -11.922  -5.898  22.479  0.00  0.00    +0.000 OA
ATOM      3  O   UNL     1      -9.110  -3.804  19.518  0.00  0.00    +0.000 OA
ATOM      4  N   UNL     1      -9.782  -5.241  23.258  0.00  0.00    +0.000 N 
ATOM      5  N   UNL     1     -10.445  -4.923  21.025  0.00  0.00    +0.000 N 
ATOM      6  C   UNL     1     -10.813  -5.409  22.303  0.00  0.00    +0.000 C 
ATOM      7  C   UNL     1      -8.638  -4.666  22.834  0.00  0.00    +0.000 C 
ATOM      8  C   UNL     1      -8.217  -4.200  21.707  0.00  0.00    +0.000 C 
ATOM      9  C   UNL     1      -9.262  -4.278  20.637  0.00  0.00    +0.000 C 
ATOM     10  H   UNL     1     -11.165  -4.985  20.319  0.00  0.00    +0.000 HD
ENDROOT
BRANCH   4  13
ATOM     11  O4* UNL     1      -9.377  -6.836  25.032  0.00  0.00    +0.000 OA
ATOM     12  C3* UNL     1     -10.329  -5.685  26.804  0.00  0.00    +0.000 A 
ATOM     13  C1* UNL     1      -9.885  -5.616  24.568  0.00  0.00    +0.000 A 
ATOM     14  C2* UNL     1     -10.458  -4.906  25.640  0.00  0.00    +0.000 A 
ATOM     15  C4* UNL     1      -9.644  -6.891  26.405  0.00  0.00    +0.000 A 
BRANCH  12  16
ATOM     16  O3* UNL     1     -10.193  -5.155  28.056  0.00  0.00    +0.000 OA
ATOM     17  H3* UNL     1      -9.706  -5.749  28.655  0.00  0.00    +0.000 HD
ENDBRANCH  12  16
BRANCH  15  18
ATOM     18  C5* UNL     1      -9.103  -7.887  27.242  0.00  0.00    +0.000 C 
BRANCH  18  19
ATOM     19  O5* UNL     1      -8.588  -8.838  28.013  0.00  0.00    +0.000 OA
ATOM     20  H5* UNL     1      -8.059  -8.449  28.732  0.00  0.00    +0.000 HD
ENDBRANCH  18  19
ENDBRANCH  15  18
ENDBRANCH   4  13
TORSDOF 4
ENDMDL
