MODEL 1
REMARK VINA RESULT:      -3.8      0.000      0.000
REMARK  Name = 3385_5Fluorouracil.pdbqt.pdb
REMARK  0 active torsions:
REMARK  status: ('A' for Active; 'I' for Inactive)
REMARK                            x       y       z     vdW  Elec       q    Type
REMARK                         _______ _______ _______ _____ _____    ______ ____
ROOT
ATOM      1  F   UNL     1       3.645  -8.338  11.299  0.00  0.00    +0.000 F 
ATOM      2  O   UNL     1       6.172  -9.513  11.806  0.00  0.00    +0.000 OA
ATOM      3  O   UNL     1       4.217 -13.685  12.040  0.00  0.00    +0.000 OA
ATOM      4  N   UNL     1       5.179 -11.582  11.990  0.00  0.00    +0.000 N 
ATOM      5  N   UNL     1       2.877 -11.824  11.821  0.00  0.00    +0.000 N 
ATOM      6  C   UNL     1       5.149 -10.186  11.859  0.00  0.00    +0.000 C 
ATOM      7  C   UNL     1       4.096 -12.471  11.960  0.00  0.00    +0.000 C 
ATOM      8  C   UNL     1       3.773  -9.589  11.770  0.00  0.00    +0.000 C 
ATOM      9  C   UNL     1       2.846 -10.486  11.737  0.00  0.00    +0.000 C 
ATOM     10  H   UNL     1       6.094 -12.003  12.053  0.00  0.00    +0.000 HD
ATOM     11  H   UNL     1       2.031 -12.378  11.783  0.00  0.00    +0.000 HD
ENDROOT
TORSDOF 0
ENDMDL
MODEL 2
REMARK VINA RESULT:      -3.6     18.309     18.756
REMARK  Name = 3385_5Fluorouracil.pdbqt.pdb
REMARK  0 active torsions:
REMARK  status: ('A' for Active; 'I' for Inactive)
REMARK                            x       y       z     vdW  Elec       q    Type
REMARK                         _______ _______ _______ _____ _____    ______ ____
ROOT
ATOM      1  F   UNL     1      -8.910  -2.534  20.070  0.00  0.00    +0.000 F 
ATOM      2  O   UNL     1     -11.442  -3.504  19.251  0.00  0.00    +0.000 OA
ATOM      3  O   UNL     1     -11.720  -6.081  23.067  0.00  0.00    +0.000 OA
ATOM      4  N   UNL     1     -11.542  -4.839  21.124  0.00  0.00    +0.000 N 
ATOM      5  N   UNL     1      -9.777  -4.924  22.629  0.00  0.00    +0.000 N 
ATOM      6  C   UNL     1     -10.891  -3.960  20.246  0.00  0.00    +0.000 C 
ATOM      7  C   UNL     1     -11.065  -5.349  22.339  0.00  0.00    +0.000 C 
ATOM      8  C   UNL     1      -9.481  -3.612  20.631  0.00  0.00    +0.000 C 
ATOM      9  C   UNL     1      -9.140  -4.117  21.769  0.00  0.00    +0.000 C 
ATOM     10  H   UNL     1     -12.490  -5.088  20.882  0.00  0.00    +0.000 HD
ATOM     11  H   UNL     1      -9.343  -5.232  23.489  0.00  0.00    +0.000 HD
ENDROOT
TORSDOF 0
ENDMDL
MODEL 3
REMARK VINA RESULT:      -3.5     17.892     18.387
REMARK  Name = 3385_5Fluorouracil.pdbqt.pdb
REMARK  0 active torsions:
REMARK  status: ('A' for Active; 'I' for Inactive)
REMARK                            x       y       z     vdW  Elec       q    Type
REMARK                         _______ _______ _______ _____ _____    ______ ____
ROOT
ATOM      1  F   UNL     1      -6.225  -2.628  21.949  0.00  0.00    +0.000 F 
ATOM      2  O   UNL     1      -7.645  -4.502  23.528  0.00  0.00    +0.000 OA
ATOM      3  O   UNL     1     -11.547  -3.472  21.293  0.00  0.00    +0.000 OA
ATOM      4  N   UNL     1      -9.601  -3.932  22.455  0.00  0.00    +0.000 N 
ATOM      5  N   UNL     1      -9.641  -2.256  20.851  0.00  0.00    +0.000 N 
ATOM      6  C   UNL     1      -8.238  -3.769  22.745  0.00  0.00    +0.000 C 
ATOM      7  C   UNL     1     -10.368  -3.235  21.512  0.00  0.00    +0.000 C 
ATOM      8  C   UNL     1      -7.566  -2.644  22.010  0.00  0.00    +0.000 C 
ATOM      9  C   UNL     1      -8.349  -2.072  21.159  0.00  0.00    +0.000 C 
ATOM     10  H   UNL     1     -10.072  -4.682  22.940  0.00  0.00    +0.000 HD
ATOM     11  H   UNL     1     -10.103  -1.698  20.144  0.00  0.00    +0.000 HD
ENDROOT
TORSDOF 0
ENDMDL
MODEL 4
REMARK VINA RESULT:      -3.5      1.663      2.270
REMARK  Name = 3385_5Fluorouracil.pdbqt.pdb
REMARK  0 active torsions:
REMARK  status: ('A' for Active; 'I' for Inactive)
REMARK                            x       y       z     vdW  Elec       q    Type
REMARK                         _______ _______ _______ _____ _____    ______ ____
ROOT
ATOM      1  F   UNL     1       4.390  -7.552  12.254  0.00  0.00    +0.000 F 
ATOM      2  O   UNL     1       1.906  -8.833  11.799  0.00  0.00    +0.000 OA
ATOM      3  O   UNL     1       3.967 -12.956  11.977  0.00  0.00    +0.000 OA
ATOM      4  N   UNL     1       2.952 -10.883  11.820  0.00  0.00    +0.000 N 
ATOM      5  N   UNL     1       5.255 -11.049  12.060  0.00  0.00    +0.000 N 
ATOM      6  C   UNL     1       2.945  -9.481  11.828  0.00  0.00    +0.000 C 
ATOM      7  C   UNL     1       4.056 -11.737  11.952  0.00  0.00    +0.000 C 
ATOM      8  C   UNL     1       4.304  -8.842  11.893  0.00  0.00    +0.000 C 
ATOM      9  C   UNL     1       5.252  -9.708  12.025  0.00  0.00    +0.000 C 
ATOM     10  H   UNL     1       2.050 -11.332  11.775  0.00  0.00    +0.000 HD
ATOM     11  H   UNL     1       6.113 -11.575  12.165  0.00  0.00    +0.000 HD
ENDROOT
TORSDOF 0
ENDMDL
MODEL 5
REMARK VINA RESULT:      -3.3     17.472     18.037
REMARK  Name = 3385_5Fluorouracil.pdbqt.pdb
REMARK  0 active torsions:
REMARK  status: ('A' for Active; 'I' for Inactive)
REMARK                            x       y       z     vdW  Elec       q    Type
REMARK                         _______ _______ _______ _____ _____    ______ ____
ROOT
ATOM      1  F   UNL     1     -10.230  -3.693  23.221  0.00  0.00    +0.000 F 
ATOM      2  O   UNL     1      -7.744  -4.105  21.928  0.00  0.00    +0.000 OA
ATOM      3  O   UNL     1      -9.837  -4.038  17.818  0.00  0.00    +0.000 OA
ATOM      4  N   UNL     1      -8.805  -4.140  19.886  0.00  0.00    +0.000 N 
ATOM      5  N   UNL     1     -11.114  -3.960  19.734  0.00  0.00    +0.000 N 
ATOM      6  C   UNL     1      -8.788  -4.111  21.288  0.00  0.00    +0.000 C 
ATOM      7  C   UNL     1      -9.918  -4.048  19.038  0.00  0.00    +0.000 C 
ATOM      8  C   UNL     1     -10.144  -4.071  21.935  0.00  0.00    +0.000 C 
ATOM      9  C   UNL     1     -11.101  -3.976  21.074  0.00  0.00    +0.000 C 
ATOM     10  H   UNL     1      -7.905  -4.168  19.431  0.00  0.00    +0.000 HD
ATOM     11  H   UNL     1     -11.978  -3.885  19.212  0.00  0.00    +0.000 HD
ENDROOT
TORSDOF 0
ENDMDL
MODEL 6
REMARK VINA RESULT:      -3.3     18.558     19.244
REMARK  Name = 3385_5Fluorouracil.pdbqt.pdb
REMARK  0 active torsions:
REMARK  status: ('A' for Active; 'I' for Inactive)
REMARK                            x       y       z     vdW  Elec       q    Type
REMARK                         _______ _______ _______ _____ _____    ______ ____
ROOT
ATOM      1  F   UNL     1     -11.694  -5.498  21.335  0.00  0.00    +0.000 F 
ATOM      2  O   UNL     1     -12.405  -2.941  22.324  0.00  0.00    +0.000 OA
ATOM      3  O   UNL     1      -8.482  -1.175  20.661  0.00  0.00    +0.000 OA
ATOM      4  N   UNL     1     -10.414  -2.082  21.552  0.00  0.00    +0.000 N 
ATOM      5  N   UNL     1      -8.836  -3.448  20.536  0.00  0.00    +0.000 N 
ATOM      6  C   UNL     1     -11.303  -3.132  21.825  0.00  0.00    +0.000 C 
ATOM      7  C   UNL     1      -9.177  -2.153  20.896  0.00  0.00    +0.000 C 
ATOM      8  C   UNL     1     -10.805  -4.497  21.441  0.00  0.00    +0.000 C 
ATOM      9  C   UNL     1      -9.667  -4.457  20.835  0.00  0.00    +0.000 C 
ATOM     10  H   UNL     1     -10.728  -1.157  21.804  0.00  0.00    +0.000 HD
ATOM     11  H   UNL     1      -7.962  -3.606  20.051  0.00  0.00    +0.000 HD
ENDROOT
TORSDOF 0
ENDMDL
MODEL 7
REMARK VINA RESULT:      -3.3     17.981     18.562
REMARK  Name = 3385_5Fluorouracil.pdbqt.pdb
REMARK  0 active torsions:
REMARK  status: ('A' for Active; 'I' for Inactive)
REMARK                            x       y       z     vdW  Elec       q    Type
REMARK                         _______ _______ _______ _____ _____    ______ ____
ROOT
ATOM      1  F   UNL     1     -10.149  -1.528  22.757  0.00  0.00    +0.000 F 
ATOM      2  O   UNL     1     -12.130  -3.322  21.818  0.00  0.00    +0.000 OA
ATOM      3  O   UNL     1      -8.896  -5.813  19.670  0.00  0.00    +0.000 OA
ATOM      4  N   UNL     1     -10.519  -4.520  20.692  0.00  0.00    +0.000 N 
ATOM      5  N   UNL     1      -8.301  -3.834  20.688  0.00  0.00    +0.000 N 
ATOM      6  C   UNL     1     -10.967  -3.425  21.445  0.00  0.00    +0.000 C 
ATOM      7  C   UNL     1      -9.207  -4.808  20.292  0.00  0.00    +0.000 C 
ATOM      8  C   UNL     1      -9.911  -2.407  21.770  0.00  0.00    +0.000 C 
ATOM      9  C   UNL     1      -8.738  -2.766  21.371  0.00  0.00    +0.000 C 
ATOM     10  H   UNL     1     -11.213  -5.215  20.462  0.00  0.00    +0.000 HD
ATOM     11  H   UNL     1      -7.324  -3.951  20.452  0.00  0.00    +0.000 HD
ENDROOT
TORSDOF 0
ENDMDL
MODEL 8
REMARK VINA RESULT:      -3.3     10.954     11.340
REMARK  Name = 3385_5Fluorouracil.pdbqt.pdb
REMARK  0 active torsions:
REMARK  status: ('A' for Active; 'I' for Inactive)
REMARK                            x       y       z     vdW  Elec       q    Type
REMARK                         _______ _______ _______ _____ _____    ______ ____
ROOT
ATOM      1  F   UNL     1       6.060 -18.019   5.362  0.00  0.00    +0.000 F 
ATOM      2  O   UNL     1       6.043 -17.245   2.637  0.00  0.00    +0.000 OA
ATOM      3  O   UNL     1       1.659 -18.625   2.242  0.00  0.00    +0.000 OA
ATOM      4  N   UNL     1       3.878 -17.999   2.430  0.00  0.00    +0.000 N 
ATOM      5  N   UNL     1       2.791 -19.020   4.209  0.00  0.00    +0.000 N 
ATOM      6  C   UNL     1       5.086 -17.835   3.124  0.00  0.00    +0.000 C 
ATOM      7  C   UNL     1       2.684 -18.559   2.905  0.00  0.00    +0.000 C 
ATOM      8  C   UNL     1       5.104 -18.421   4.507  0.00  0.00    +0.000 C 
ATOM      9  C   UNL     1       3.959 -18.900   4.857  0.00  0.00    +0.000 C 
ATOM     10  H   UNL     1       3.845 -17.614   1.498  0.00  0.00    +0.000 HD
ATOM     11  H   UNL     1       1.980 -19.438   4.647  0.00  0.00    +0.000 HD
ENDROOT
TORSDOF 0
ENDMDL
MODEL 9
REMARK VINA RESULT:      -3.3     15.720     16.447
REMARK  Name = 3385_5Fluorouracil.pdbqt.pdb
REMARK  0 active torsions:
REMARK  status: ('A' for Active; 'I' for Inactive)
REMARK                            x       y       z     vdW  Elec       q    Type
REMARK                         _______ _______ _______ _____ _____    ______ ____
ROOT
ATOM      1  F   UNL     1     -12.514 -16.540  10.011  0.00  0.00    +0.000 F 
ATOM      2  O   UNL     1      -9.808 -15.759  10.313  0.00  0.00    +0.000 OA
ATOM      3  O   UNL     1      -9.223 -15.914   5.740  0.00  0.00    +0.000 OA
ATOM      4  N   UNL     1      -9.505 -15.906   8.036  0.00  0.00    +0.000 N 
ATOM      5  N   UNL     1     -11.220 -16.619   6.644  0.00  0.00    +0.000 N 
ATOM      6  C   UNL     1     -10.246 -16.077   9.214  0.00  0.00    +0.000 C 
ATOM      7  C   UNL     1      -9.924 -16.132   6.717  0.00  0.00    +0.000 C 
ATOM      8  C   UNL     1     -11.616 -16.662   9.019  0.00  0.00    +0.000 C 
ATOM      9  C   UNL     1     -11.913 -16.823   7.773  0.00  0.00    +0.000 C 
ATOM     10  H   UNL     1      -8.581 -15.516   8.145  0.00  0.00    +0.000 HD
ATOM     11  H   UNL     1     -11.620 -16.810   5.734  0.00  0.00    +0.000 HD
ENDROOT
TORSDOF 0
ENDMDL
