MODEL 1
REMARK VINA RESULT:      -7.2      0.000      0.000
REMARK  Name = 342374_SipholenolA.pdbqt.pdb
REMARK  5 active torsions:
REMARK  status: ('A' for Active; 'I' for Inactive)
REMARK    1  A    between atoms: C_3  and  C_20
REMARK    2  A    between atoms: C_4  and  O_16
REMARK    3  A    between atoms: C_13  and  O_18
REMARK    4  A    between atoms: C_21  and  C_25
REMARK    5  A    between atoms: C_26  and  O_36
REMARK                            x       y       z     vdW  Elec       q    Type
REMARK                         _______ _______ _______ _____ _____    ______ ____
ROOT
ATOM      1  O   UNL     1      -5.803   5.211  21.428  0.00  0.00    +0.000 OA
ATOM      2  C   UNL     1      -7.202   3.013  21.615  0.00  0.00    +0.000 C 
ATOM      3  C   UNL     1      -8.241   2.147  20.898  0.00  0.00    +0.000 C 
ATOM      4  C   UNL     1      -9.429   2.802  20.214  0.00  0.00    +0.000 C 
ATOM      5  C   UNL     1      -6.876   4.435  20.975  0.00  0.00    +0.000 C 
ATOM      6  C   UNL     1      -5.881   2.367  21.570  0.00  0.00    +0.000 C 
ATOM      7  C   UNL     1      -9.119   4.197  19.971  0.00  0.00    +0.000 C 
ATOM      8  C   UNL     1      -7.936   5.050  20.282  0.00  0.00    +0.000 C 
ATOM      9  C   UNL     1      -7.644   3.244  23.085  0.00  0.00    +0.000 C 
ATOM     10  C   UNL     1      -4.420   2.682  21.360  0.00  0.00    +0.000 C 
ATOM     11  C   UNL     1      -4.525   5.147  20.713  0.00  0.00    +0.000 C 
ATOM     12  C   UNL     1      -9.787   2.071  18.911  0.00  0.00    +0.000 C 
ATOM     13  C   UNL     1      -3.710   3.864  21.059  0.00  0.00    +0.000 C 
ATOM     14  C   UNL     1      -4.717   5.206  19.169  0.00  0.00    +0.000 C 
ATOM     15  C   UNL     1      -3.679   6.368  21.179  0.00  0.00    +0.000 C 
ENDROOT
BRANCH   4  16
ATOM     16  O   UNL     1     -10.567   2.700  21.033  0.00  0.00    +0.000 OA
ATOM     17  H   UNL     1     -10.204   2.963  21.898  0.00  0.00    +0.000 HD
ENDBRANCH   4  16
BRANCH  13  18
ATOM     18  O   UNL     1      -2.320   3.843  21.095  0.00  0.00    +0.000 OA
ATOM     19  H   UNL     1      -1.964   4.590  21.622  0.00  0.00    +0.000 HD
ENDBRANCH  13  18
BRANCH   3  20
ATOM     20  C   UNL     1      -8.221   0.717  21.075  0.00  0.00    +0.000 C 
ATOM     21  C   UNL     1      -8.188  -0.801  21.274  0.00  0.00    +0.000 C 
BRANCH  21  25
ATOM     22  C   UNL     1     -10.326  -3.608  21.959  0.00  0.00    +0.000 C 
ATOM     23  C   UNL     1      -9.254  -3.161  20.927  0.00  0.00    +0.000 C 
ATOM     24  C   UNL     1     -10.047  -4.353  23.232  0.00  0.00    +0.000 C 
ATOM     25  C   UNL     1      -8.148  -2.222  21.465  0.00  0.00    +0.000 C 
ATOM     26  C   UNL     1     -11.291  -5.002  23.826  0.00  0.00    +0.000 C 
ATOM     27  C   UNL     1     -11.725  -3.756  21.725  0.00  0.00    +0.000 C 
ATOM     28  C   UNL     1     -12.286  -4.595  22.841  0.00  0.00    +0.000 C 
ATOM     29  C   UNL     1      -8.727  -4.324  23.717  0.00  0.00    +0.000 C 
ATOM     30  C   UNL     1      -7.102  -2.763  22.334  0.00  0.00    +0.000 C 
ATOM     31  C   UNL     1     -10.001  -2.426  19.751  0.00  0.00    +0.000 C 
ATOM     32  C   UNL     1      -8.609  -4.447  20.306  0.00  0.00    +0.000 C 
ATOM     33  C   UNL     1      -7.496  -3.601  23.241  0.00  0.00    +0.000 C 
ATOM     34  C   UNL     1     -11.561  -4.545  25.253  0.00  0.00    +0.000 C 
ATOM     35  C   UNL     1      -5.762  -2.108  22.541  0.00  0.00    +0.000 C 
BRANCH  26  36
ATOM     36  O   UNL     1     -11.148  -6.398  23.854  0.00  0.00    +0.000 OA
ATOM     37  H   UNL     1     -11.713  -6.657  23.105  0.00  0.00    +0.000 HD
ENDBRANCH  26  36
ENDBRANCH  21  25
ENDBRANCH   3  20
TORSDOF 5
ENDMDL
MODEL 2
REMARK VINA RESULT:      -7.0      3.736      6.254
REMARK  Name = 342374_SipholenolA.pdbqt.pdb
REMARK  5 active torsions:
REMARK  status: ('A' for Active; 'I' for Inactive)
REMARK    1  A    between atoms: C_3  and  C_20
REMARK    2  A    between atoms: C_4  and  O_16
REMARK    3  A    between atoms: C_13  and  O_18
REMARK    4  A    between atoms: C_21  and  C_25
REMARK    5  A    between atoms: C_26  and  O_36
REMARK                            x       y       z     vdW  Elec       q    Type
REMARK                         _______ _______ _______ _____ _____    ______ ____
ROOT
ATOM      1  O   UNL     1      -0.204   0.090  24.860  0.00  0.00    +0.000 OA
ATOM      2  C   UNL     1      -2.512   0.747  23.829  0.00  0.00    +0.000 C 
ATOM      3  C   UNL     1      -3.246   1.010  22.511  0.00  0.00    +0.000 C 
ATOM      4  C   UNL     1      -2.569   1.817  21.417  0.00  0.00    +0.000 C 
ATOM      5  C   UNL     1      -0.936   0.537  23.754  0.00  0.00    +0.000 C 
ATOM      6  C   UNL     1      -2.947  -0.534  24.408  0.00  0.00    +0.000 C 
ATOM      7  C   UNL     1      -1.138   1.812  21.649  0.00  0.00    +0.000 C 
ATOM      8  C   UNL     1      -0.277   1.224  22.716  0.00  0.00    +0.000 C 
ATOM      9  C   UNL     1      -2.790   1.912  24.818  0.00  0.00    +0.000 C 
ATOM     10  C   UNL     1      -2.404  -1.756  25.108  0.00  0.00    +0.000 C 
ATOM     11  C   UNL     1       0.107  -1.337  24.979  0.00  0.00    +0.000 C 
ATOM     12  C   UNL     1      -2.914   1.260  20.028  0.00  0.00    +0.000 C 
ATOM     13  C   UNL     1      -1.108  -2.175  25.477  0.00  0.00    +0.000 C 
ATOM     14  C   UNL     1       0.603  -1.940  23.632  0.00  0.00    +0.000 C 
ATOM     15  C   UNL     1       1.228  -1.472  26.052  0.00  0.00    +0.000 C 
ENDROOT
BRANCH   4  16
ATOM     16  O   UNL     1      -3.051   3.137  21.429  0.00  0.00    +0.000 OA
ATOM     17  H   UNL     1      -3.758   3.087  20.761  0.00  0.00    +0.000 HD
ENDBRANCH   4  16
BRANCH  13  18
ATOM     18  O   UNL     1      -0.966  -3.306  26.275  0.00  0.00    +0.000 OA
ATOM     19  H   UNL     1      -0.460  -4.008  25.814  0.00  0.00    +0.000 HD
ENDBRANCH  13  18
BRANCH   3  20
ATOM     20  C   UNL     1      -4.649   0.700  22.403  0.00  0.00    +0.000 C 
ATOM     21  C   UNL     1      -6.136   0.355  22.285  0.00  0.00    +0.000 C 
BRANCH  21  25
ATOM     22  C   UNL     1      -8.330  -2.455  21.824  0.00  0.00    +0.000 C 
ATOM     23  C   UNL     1      -8.125  -1.261  22.797  0.00  0.00    +0.000 C 
ATOM     24  C   UNL     1      -9.181  -2.430  20.588  0.00  0.00    +0.000 C 
ATOM     25  C   UNL     1      -7.528   0.022  22.174  0.00  0.00    +0.000 C 
ATOM     26  C   UNL     1      -9.517  -3.823  20.068  0.00  0.00    +0.000 C 
ATOM     27  C   UNL     1      -8.103  -3.835  22.107  0.00  0.00    +0.000 C 
ATOM     28  C   UNL     1      -8.822  -4.638  21.058  0.00  0.00    +0.000 C 
ATOM     29  C   UNL     1      -9.514  -1.169  20.062  0.00  0.00    +0.000 C 
ATOM     30  C   UNL     1      -8.359   0.858  21.306  0.00  0.00    +0.000 C 
ATOM     31  C   UNL     1      -7.169  -1.745  23.951  0.00  0.00    +0.000 C 
ATOM     32  C   UNL     1      -9.503  -0.938  23.470  0.00  0.00    +0.000 C 
ATOM     33  C   UNL     1      -9.109   0.225  20.460  0.00  0.00    +0.000 C 
ATOM     34  C   UNL     1      -9.073  -4.029  18.626  0.00  0.00    +0.000 C 
ATOM     35  C   UNL     1      -8.080   2.310  21.022  0.00  0.00    +0.000 C 
BRANCH  26  36
ATOM     36  O   UNL     1     -10.902  -4.042  20.115  0.00  0.00    +0.000 OA
ATOM     37  H   UNL     1     -10.933  -4.975  20.390  0.00  0.00    +0.000 HD
ENDBRANCH  26  36
ENDBRANCH  21  25
ENDBRANCH   3  20
TORSDOF 5
ENDMDL
MODEL 3
REMARK VINA RESULT:      -6.1     24.180     26.592
REMARK  Name = 342374_SipholenolA.pdbqt.pdb
REMARK  5 active torsions:
REMARK  status: ('A' for Active; 'I' for Inactive)
REMARK    1  A    between atoms: C_3  and  C_20
REMARK    2  A    between atoms: C_4  and  O_16
REMARK    3  A    between atoms: C_13  and  O_18
REMARK    4  A    between atoms: C_21  and  C_25
REMARK    5  A    between atoms: C_26  and  O_36
REMARK                            x       y       z     vdW  Elec       q    Type
REMARK                         _______ _______ _______ _____ _____    ______ ____
ROOT
ATOM      1  O   UNL     1       1.090 -10.558  -5.680  0.00  0.00    +0.000 OA
ATOM      2  C   UNL     1      -0.544  -9.245  -4.122  0.00  0.00    +0.000 C 
ATOM      3  C   UNL     1      -1.888  -9.325  -3.394  0.00  0.00    +0.000 C 
ATOM      4  C   UNL     1      -3.096  -9.917  -4.100  0.00  0.00    +0.000 C 
ATOM      5  C   UNL     1      -0.189 -10.429  -5.125  0.00  0.00    +0.000 C 
ATOM      6  C   UNL     1       0.565  -9.340  -3.159  0.00  0.00    +0.000 C 
ATOM      7  C   UNL     1      -2.638 -10.732  -5.208  0.00  0.00    +0.000 C 
ATOM      8  C   UNL     1      -1.287 -11.043  -5.758  0.00  0.00    +0.000 C 
ATOM      9  C   UNL     1      -0.462  -7.911  -4.914  0.00  0.00    +0.000 C 
ATOM     10  C   UNL     1       1.920  -9.979  -2.981  0.00  0.00    +0.000 C 
ATOM     11  C   UNL     1       2.052 -11.465  -5.048  0.00  0.00    +0.000 C 
ATOM     12  C   UNL     1      -3.961 -10.730  -3.125  0.00  0.00    +0.000 C 
ATOM     13  C   UNL     1       2.697 -10.856  -3.768  0.00  0.00    +0.000 C 
ATOM     14  C   UNL     1       1.405 -12.831  -4.671  0.00  0.00    +0.000 C 
ATOM     15  C   UNL     1       3.200 -11.700  -6.074  0.00  0.00    +0.000 C 
ENDROOT
BRANCH   4  16
ATOM     16  O   UNL     1      -3.924  -8.886  -4.575  0.00  0.00    +0.000 OA
ATOM     17  H   UNL     1      -4.089  -9.179  -5.489  0.00  0.00    +0.000 HD
ENDBRANCH   4  16
BRANCH  13  18
ATOM     18  O   UNL     1       4.004 -11.131  -3.380  0.00  0.00    +0.000 OA
ATOM     19  H   UNL     1       4.537 -10.311  -3.310  0.00  0.00    +0.000 HD
ENDBRANCH  13  18
BRANCH   3  20
ATOM     20  C   UNL     1      -2.064  -8.632  -2.144  0.00  0.00    +0.000 C 
ATOM     21  C   UNL     1      -2.235  -7.898  -0.810  0.00  0.00    +0.000 C 
BRANCH  21  25
ATOM     22  C   UNL     1      -3.823  -5.022   0.650  0.00  0.00    +0.000 C 
ATOM     23  C   UNL     1      -3.721  -6.556   0.870  0.00  0.00    +0.000 C 
ATOM     24  C   UNL     1      -2.905  -3.997   1.250  0.00  0.00    +0.000 C 
ATOM     25  C   UNL     1      -2.387  -7.213   0.442  0.00  0.00    +0.000 C 
ATOM     26  C   UNL     1      -3.475  -2.584   1.197  0.00  0.00    +0.000 C 
ATOM     27  C   UNL     1      -4.968  -4.298   0.204  0.00  0.00    +0.000 C 
ATOM     28  C   UNL     1      -4.751  -2.849   0.543  0.00  0.00    +0.000 C 
ATOM     29  C   UNL     1      -1.663  -4.450   1.731  0.00  0.00    +0.000 C 
ATOM     30  C   UNL     1      -1.188  -7.007   1.254  0.00  0.00    +0.000 C 
ATOM     31  C   UNL     1      -4.890  -7.233   0.060  0.00  0.00    +0.000 C 
ATOM     32  C   UNL     1      -4.002  -6.852   2.383  0.00  0.00    +0.000 C 
ATOM     33  C   UNL     1      -1.003  -5.802   1.695  0.00  0.00    +0.000 C 
ATOM     34  C   UNL     1      -2.557  -1.613   0.469  0.00  0.00    +0.000 C 
ATOM     35  C   UNL     1       0.011  -7.918   1.228  0.00  0.00    +0.000 C 
BRANCH  26  36
ATOM     36  O   UNL     1      -3.666  -2.086   2.495  0.00  0.00    +0.000 OA
ATOM     37  H   UNL     1      -4.577  -2.376   2.673  0.00  0.00    +0.000 HD
ENDBRANCH  26  36
ENDBRANCH  21  25
ENDBRANCH   3  20
TORSDOF 5
ENDMDL
MODEL 4
REMARK VINA RESULT:      -6.1     18.862     23.116
REMARK  Name = 342374_SipholenolA.pdbqt.pdb
REMARK  5 active torsions:
REMARK  status: ('A' for Active; 'I' for Inactive)
REMARK    1  A    between atoms: C_3  and  C_20
REMARK    2  A    between atoms: C_4  and  O_16
REMARK    3  A    between atoms: C_13  and  O_18
REMARK    4  A    between atoms: C_21  and  C_25
REMARK    5  A    between atoms: C_26  and  O_36
REMARK                            x       y       z     vdW  Elec       q    Type
REMARK                         _______ _______ _______ _____ _____    ______ ____
ROOT
ATOM      1  O   UNL     1     -26.462 -11.236  11.194  0.00  0.00    +0.000 OA
ATOM      2  C   UNL     1     -25.468  -8.919  10.511  0.00  0.00    +0.000 C 
ATOM      3  C   UNL     1     -24.535  -7.793  10.965  0.00  0.00    +0.000 C 
ATOM      4  C   UNL     1     -24.581  -7.308  12.404  0.00  0.00    +0.000 C 
ATOM      5  C   UNL     1     -25.794 -10.064  11.568  0.00  0.00    +0.000 C 
ATOM      6  C   UNL     1     -24.841  -9.695   9.429  0.00  0.00    +0.000 C 
ATOM      7  C   UNL     1     -25.201  -8.331  13.224  0.00  0.00    +0.000 C 
ATOM      8  C   UNL     1     -25.789  -9.667  12.920  0.00  0.00    +0.000 C 
ATOM      9  C   UNL     1     -26.817  -8.314  10.035  0.00  0.00    +0.000 C 
ATOM     10  C   UNL     1     -24.655 -11.115   8.952  0.00  0.00    +0.000 C 
ATOM     11  C   UNL     1     -25.678 -12.433  10.879  0.00  0.00    +0.000 C 
ATOM     12  C   UNL     1     -23.174  -6.957  12.913  0.00  0.00    +0.000 C 
ATOM     13  C   UNL     1     -25.040 -12.374   9.459  0.00  0.00    +0.000 C 
ATOM     14  C   UNL     1     -24.544 -12.678  11.918  0.00  0.00    +0.000 C 
ATOM     15  C   UNL     1     -26.662 -13.640  10.890  0.00  0.00    +0.000 C 
ENDROOT
BRANCH   4  16
ATOM     16  O   UNL     1     -25.323  -6.117  12.483  0.00  0.00    +0.000 OA
ATOM     17  H   UNL     1     -24.957  -5.718  13.292  0.00  0.00    +0.000 HD
ENDBRANCH   4  16
BRANCH  13  18
ATOM     18  O   UNL     1     -24.849 -13.505   8.672  0.00  0.00    +0.000 OA
ATOM     19  H   UNL     1     -25.360 -13.450   7.837  0.00  0.00    +0.000 HD
ENDBRANCH  13  18
BRANCH   3  20
ATOM     20  C   UNL     1     -23.793  -7.043   9.985  0.00  0.00    +0.000 C 
ATOM     21  C   UNL     1     -23.015  -6.251   8.930  0.00  0.00    +0.000 C 
BRANCH  21  25
ATOM     22  C   UNL     1     -21.972  -2.910   8.109  0.00  0.00    +0.000 C 
ATOM     23  C   UNL     1     -21.363  -4.327   8.295  0.00  0.00    +0.000 C 
ATOM     24  C   UNL     1     -22.497  -2.355   6.817  0.00  0.00    +0.000 C 
ATOM     25  C   UNL     1     -22.290  -5.513   7.935  0.00  0.00    +0.000 C 
ATOM     26  C   UNL     1     -22.648  -0.838   6.840  0.00  0.00    +0.000 C 
ATOM     27  C   UNL     1     -21.789  -1.784   8.966  0.00  0.00    +0.000 C 
ATOM     28  C   UNL     1     -22.188  -0.556   8.194  0.00  0.00    +0.000 C 
ATOM     29  C   UNL     1     -22.810  -3.276   5.802  0.00  0.00    +0.000 C 
ATOM     30  C   UNL     1     -22.573  -5.807   6.530  0.00  0.00    +0.000 C 
ATOM     31  C   UNL     1     -20.939  -4.470   9.805  0.00  0.00    +0.000 C 
ATOM     32  C   UNL     1     -20.043  -4.406   7.455  0.00  0.00    +0.000 C 
ATOM     33  C   UNL     1     -22.798  -4.781   5.771  0.00  0.00    +0.000 C 
ATOM     34  C   UNL     1     -24.069  -0.390   6.526  0.00  0.00    +0.000 C 
ATOM     35  C   UNL     1     -23.050  -7.145   6.032  0.00  0.00    +0.000 C 
BRANCH  26  36
ATOM     36  O   UNL     1     -21.804  -0.249   5.885  0.00  0.00    +0.000 OA
ATOM     37  H   UNL     1     -22.428  -0.106   5.151  0.00  0.00    +0.000 HD
ENDBRANCH  26  36
ENDBRANCH  21  25
ENDBRANCH   3  20
TORSDOF 5
ENDMDL
MODEL 5
REMARK VINA RESULT:      -6.1     14.121     17.518
REMARK  Name = 342374_SipholenolA.pdbqt.pdb
REMARK  5 active torsions:
REMARK  status: ('A' for Active; 'I' for Inactive)
REMARK    1  A    between atoms: C_3  and  C_20
REMARK    2  A    between atoms: C_4  and  O_16
REMARK    3  A    between atoms: C_13  and  O_18
REMARK    4  A    between atoms: C_21  and  C_25
REMARK    5  A    between atoms: C_26  and  O_36
REMARK                            x       y       z     vdW  Elec       q    Type
REMARK                         _______ _______ _______ _____ _____    ______ ____
ROOT
ATOM      1  O   UNL     1     -21.571  -0.526   9.154  0.00  0.00    +0.000 OA
ATOM      2  C   UNL     1     -21.816   0.799  11.392  0.00  0.00    +0.000 C 
ATOM      3  C   UNL     1     -22.555   1.958  12.066  0.00  0.00    +0.000 C 
ATOM      4  C   UNL     1     -22.762   3.261  11.314  0.00  0.00    +0.000 C 
ATOM      5  C   UNL     1     -22.030   0.614   9.825  0.00  0.00    +0.000 C 
ATOM      6  C   UNL     1     -22.310  -0.489  11.905  0.00  0.00    +0.000 C 
ATOM      7  C   UNL     1     -22.613   3.012   9.894  0.00  0.00    +0.000 C 
ATOM      8  C   UNL     1     -22.283   1.794   9.099  0.00  0.00    +0.000 C 
ATOM      9  C   UNL     1     -20.290   0.937  11.649  0.00  0.00    +0.000 C 
ATOM     10  C   UNL     1     -22.685  -1.876  11.445  0.00  0.00    +0.000 C 
ATOM     11  C   UNL     1     -22.499  -1.633   8.913  0.00  0.00    +0.000 C 
ATOM     12  C   UNL     1     -24.135   3.871  11.636  0.00  0.00    +0.000 C 
ATOM     13  C   UNL     1     -22.732  -2.506  10.183  0.00  0.00    +0.000 C 
ATOM     14  C   UNL     1     -23.882  -1.134   8.400  0.00  0.00    +0.000 C 
ATOM     15  C   UNL     1     -21.846  -2.552   7.838  0.00  0.00    +0.000 C 
ENDROOT
BRANCH   4  16
ATOM     16  O   UNL     1     -21.815   4.211  11.735  0.00  0.00    +0.000 OA
ATOM     17  H   UNL     1     -21.992   4.943  11.118  0.00  0.00    +0.000 HD
ENDBRANCH   4  16
BRANCH  13  18
ATOM     18  O   UNL     1     -22.969  -3.876  10.122  0.00  0.00    +0.000 OA
ATOM     19  H   UNL     1     -22.496  -4.287   9.368  0.00  0.00    +0.000 HD
ENDBRANCH  13  18
BRANCH   3  20
ATOM     20  C   UNL     1     -22.839   1.897  13.477  0.00  0.00    +0.000 C 
ATOM     21  C   UNL     1     -23.126   1.827  14.980  0.00  0.00    +0.000 C 
BRANCH  21  25
ATOM     22  C   UNL     1     -21.463   2.000  18.161  0.00  0.00    +0.000 C 
ATOM     23  C   UNL     1     -22.655   2.656  17.413  0.00  0.00    +0.000 C 
ATOM     24  C   UNL     1     -21.547   0.769  19.017  0.00  0.00    +0.000 C 
ATOM     25  C   UNL     1     -23.387   1.757  16.389  0.00  0.00    +0.000 C 
ATOM     26  C   UNL     1     -20.341   0.597  19.932  0.00  0.00    +0.000 C 
ATOM     27  C   UNL     1     -20.223   2.619  18.501  0.00  0.00    +0.000 C 
ATOM     28  C   UNL     1     -19.569   1.777  19.562  0.00  0.00    +0.000 C 
ATOM     29  C   UNL     1     -22.670  -0.059  18.841  0.00  0.00    +0.000 C 
ATOM     30  C   UNL     1     -24.263   0.686  16.866  0.00  0.00    +0.000 C 
ATOM     31  C   UNL     1     -22.104   3.923  16.656  0.00  0.00    +0.000 C 
ATOM     32  C   UNL     1     -23.670   3.187  18.482  0.00  0.00    +0.000 C 
ATOM     33  C   UNL     1     -23.820  -0.003  17.871  0.00  0.00    +0.000 C 
ATOM     34  C   UNL     1     -19.637  -0.736  19.722  0.00  0.00    +0.000 C 
ATOM     35  C   UNL     1     -25.355   0.063  16.038  0.00  0.00    +0.000 C 
BRANCH  26  36
ATOM     36  O   UNL     1     -20.737   0.652  21.278  0.00  0.00    +0.000 OA
ATOM     37  H   UNL     1     -21.329   1.424  21.264  0.00  0.00    +0.000 HD
ENDBRANCH  26  36
ENDBRANCH  21  25
ENDBRANCH   3  20
TORSDOF 5
ENDMDL
MODEL 6
REMARK VINA RESULT:      -6.0     21.280     23.562
REMARK  Name = 342374_SipholenolA.pdbqt.pdb
REMARK  5 active torsions:
REMARK  status: ('A' for Active; 'I' for Inactive)
REMARK    1  A    between atoms: C_3  and  C_20
REMARK    2  A    between atoms: C_4  and  O_16
REMARK    3  A    between atoms: C_13  and  O_18
REMARK    4  A    between atoms: C_21  and  C_25
REMARK    5  A    between atoms: C_26  and  O_36
REMARK                            x       y       z     vdW  Elec       q    Type
REMARK                         _______ _______ _______ _____ _____    ______ ____
ROOT
ATOM      1  O   UNL     1      -9.392   0.541  -3.097  0.00  0.00    +0.000 OA
ATOM      2  C   UNL     1      -7.510  -1.148  -2.445  0.00  0.00    +0.000 C 
ATOM      3  C   UNL     1      -6.182  -1.289  -1.696  0.00  0.00    +0.000 C 
ATOM      4  C   UNL     1      -5.118  -0.214  -1.836  0.00  0.00    +0.000 C 
ATOM      5  C   UNL     1      -8.096   0.322  -2.616  0.00  0.00    +0.000 C 
ATOM      6  C   UNL     1      -8.592  -1.804  -1.693  0.00  0.00    +0.000 C 
ATOM      7  C   UNL     1      -5.743   1.004  -2.312  0.00  0.00    +0.000 C 
ATOM      8  C   UNL     1      -7.141   1.355  -2.692  0.00  0.00    +0.000 C 
ATOM      9  C   UNL     1      -7.375  -1.773  -3.860  0.00  0.00    +0.000 C 
ATOM     10  C   UNL     1     -10.033  -1.612  -1.292  0.00  0.00    +0.000 C 
ATOM     11  C   UNL     1     -10.482   0.750  -2.141  0.00  0.00    +0.000 C 
ATOM     12  C   UNL     1      -4.385   0.013  -0.505  0.00  0.00    +0.000 C 
ATOM     13  C   UNL     1     -10.974  -0.580  -1.496  0.00  0.00    +0.000 C 
ATOM     14  C   UNL     1     -10.077   1.730  -1.000  0.00  0.00    +0.000 C 
ATOM     15  C   UNL     1     -11.681   1.345  -2.936  0.00  0.00    +0.000 C 
ENDROOT
BRANCH   4  16
ATOM     16  O   UNL     1      -4.133  -0.634  -2.747  0.00  0.00    +0.000 OA
ATOM     17  H   UNL     1      -4.617  -1.310  -3.253  0.00  0.00    +0.000 HD
ENDBRANCH   4  16
BRANCH  13  18
ATOM     18  O   UNL     1     -12.299  -0.793  -1.127  0.00  0.00    +0.000 OA
ATOM     19  H   UNL     1     -12.841  -1.079  -1.892  0.00  0.00    +0.000 HD
ENDBRANCH  13  18
BRANCH   3  20
ATOM     20  C   UNL     1      -5.853  -2.537  -1.057  0.00  0.00    +0.000 C 
ATOM     21  C   UNL     1      -5.489  -3.867  -0.389  0.00  0.00    +0.000 C 
BRANCH  21  25
ATOM     22  C   UNL     1      -2.708  -5.596   1.091  0.00  0.00    +0.000 C 
ATOM     23  C   UNL     1      -4.170  -5.200   1.431  0.00  0.00    +0.000 C 
ATOM     24  C   UNL     1      -2.288  -6.869   0.416  0.00  0.00    +0.000 C 
ATOM     25  C   UNL     1      -5.143  -5.114   0.231  0.00  0.00    +0.000 C 
ATOM     26  C   UNL     1      -0.802  -7.168   0.578  0.00  0.00    +0.000 C 
ATOM     27  C   UNL     1      -1.521  -5.064   1.679  0.00  0.00    +0.000 C 
ATOM     28  C   UNL     1      -0.396  -6.014   1.372  0.00  0.00    +0.000 C 
ATOM     29  C   UNL     1      -3.277  -7.578  -0.290  0.00  0.00    +0.000 C 
ATOM     30  C   UNL     1      -5.613  -6.344  -0.407  0.00  0.00    +0.000 C 
ATOM     31  C   UNL     1      -4.132  -3.794   2.141  0.00  0.00    +0.000 C 
ATOM     32  C   UNL     1      -4.718  -6.216   2.491  0.00  0.00    +0.000 C 
ATOM     33  C   UNL     1      -4.720  -7.266  -0.585  0.00  0.00    +0.000 C 
ATOM     34  C   UNL     1      -0.091  -7.324  -0.759  0.00  0.00    +0.000 C 
ATOM     35  C   UNL     1      -6.865  -6.433  -1.239  0.00  0.00    +0.000 C 
BRANCH  26  36
ATOM     36  O   UNL     1      -0.619  -8.363   1.291  0.00  0.00    +0.000 OA
ATOM     37  H   UNL     1      -0.706  -9.019   0.577  0.00  0.00    +0.000 HD
ENDBRANCH  26  36
ENDBRANCH  21  25
ENDBRANCH   3  20
TORSDOF 5
ENDMDL
MODEL 7
REMARK VINA RESULT:      -5.9      5.506      9.104
REMARK  Name = 342374_SipholenolA.pdbqt.pdb
REMARK  5 active torsions:
REMARK  status: ('A' for Active; 'I' for Inactive)
REMARK    1  A    between atoms: C_3  and  C_20
REMARK    2  A    between atoms: C_4  and  O_16
REMARK    3  A    between atoms: C_13  and  O_18
REMARK    4  A    between atoms: C_21  and  C_25
REMARK    5  A    between atoms: C_26  and  O_36
REMARK                            x       y       z     vdW  Elec       q    Type
REMARK                         _______ _______ _______ _____ _____    ______ ____
ROOT
ATOM      1  O   UNL     1     -16.970   2.329  24.765  0.00  0.00    +0.000 OA
ATOM      2  C   UNL     1     -14.835   0.847  25.024  0.00  0.00    +0.000 C 
ATOM      3  C   UNL     1     -14.124  -0.143  25.951  0.00  0.00    +0.000 C 
ATOM      4  C   UNL     1     -14.078   0.122  27.446  0.00  0.00    +0.000 C 
ATOM      5  C   UNL     1     -16.135   1.570  25.593  0.00  0.00    +0.000 C 
ATOM      6  C   UNL     1     -15.385   0.145  23.853  0.00  0.00    +0.000 C 
ATOM      7  C   UNL     1     -15.129   1.058  27.789  0.00  0.00    +0.000 C 
ATOM      8  C   UNL     1     -16.156   1.782  26.985  0.00  0.00    +0.000 C 
ATOM      9  C   UNL     1     -13.836   1.949  24.578  0.00  0.00    +0.000 C 
ATOM     10  C   UNL     1     -16.610   0.099  22.974  0.00  0.00    +0.000 C 
ATOM     11  C   UNL     1     -18.168   1.704  24.197  0.00  0.00    +0.000 C 
ATOM     12  C   UNL     1     -14.209  -1.186  28.242  0.00  0.00    +0.000 C 
ATOM     13  C   UNL     1     -17.844   0.784  22.983  0.00  0.00    +0.000 C 
ATOM     14  C   UNL     1     -18.947   0.868  25.255  0.00  0.00    +0.000 C 
ATOM     15  C   UNL     1     -19.078   2.854  23.672  0.00  0.00    +0.000 C 
ENDROOT
BRANCH   4  16
ATOM     16  O   UNL     1     -12.826   0.657  27.797  0.00  0.00    +0.000 OA
ATOM     17  H   UNL     1     -12.855   1.520  27.346  0.00  0.00    +0.000 HD
ENDBRANCH   4  16
BRANCH  13  18
ATOM     18  O   UNL     1     -18.713   0.622  21.908  0.00  0.00    +0.000 OA
ATOM     19  H   UNL     1     -19.109   1.476  21.636  0.00  0.00    +0.000 HD
ENDBRANCH  13  18
BRANCH   3  20
ATOM     20  C   UNL     1     -13.306  -1.186  25.387  0.00  0.00    +0.000 C 
ATOM     21  C   UNL     1     -12.443  -2.305  24.798  0.00  0.00    +0.000 C 
BRANCH  21  25
ATOM     22  C   UNL     1     -10.068  -2.967  22.183  0.00  0.00    +0.000 C 
ATOM     23  C   UNL     1     -10.204  -3.118  23.722  0.00  0.00    +0.000 C 
ATOM     24  C   UNL     1     -10.473  -4.000  21.171  0.00  0.00    +0.000 C 
ATOM     25  C   UNL     1     -11.637  -3.360  24.253  0.00  0.00    +0.000 C 
ATOM     26  C   UNL     1      -9.861  -3.758  19.796  0.00  0.00    +0.000 C 
ATOM     27  C   UNL     1      -9.214  -2.061  21.486  0.00  0.00    +0.000 C 
ATOM     28  C   UNL     1      -9.094  -2.548  20.068  0.00  0.00    +0.000 C 
ATOM     29  C   UNL     1     -11.367  -5.000  21.596  0.00  0.00    +0.000 C 
ATOM     30  C   UNL     1     -12.267  -4.666  24.059  0.00  0.00    +0.000 C 
ATOM     31  C   UNL     1      -9.647  -1.801  24.382  0.00  0.00    +0.000 C 
ATOM     32  C   UNL     1      -9.258  -4.279  24.185  0.00  0.00    +0.000 C 
ATOM     33  C   UNL     1     -12.094  -5.212  22.896  0.00  0.00    +0.000 C 
ATOM     34  C   UNL     1     -10.914  -3.631  18.704  0.00  0.00    +0.000 C 
ATOM     35  C   UNL     1     -13.414  -5.177  24.891  0.00  0.00    +0.000 C 
BRANCH  26  36
ATOM     36  O   UNL     1      -9.018  -4.823  19.442  0.00  0.00    +0.000 OA
ATOM     37  H   UNL     1      -8.260  -4.341  19.067  0.00  0.00    +0.000 HD
ENDBRANCH  26  36
ENDBRANCH  21  25
ENDBRANCH   3  20
TORSDOF 5
ENDMDL
MODEL 8
REMARK VINA RESULT:      -5.8     17.199     20.669
REMARK  Name = 342374_SipholenolA.pdbqt.pdb
REMARK  5 active torsions:
REMARK  status: ('A' for Active; 'I' for Inactive)
REMARK    1  A    between atoms: C_3  and  C_20
REMARK    2  A    between atoms: C_4  and  O_16
REMARK    3  A    between atoms: C_13  and  O_18
REMARK    4  A    between atoms: C_21  and  C_25
REMARK    5  A    between atoms: C_26  and  O_36
REMARK                            x       y       z     vdW  Elec       q    Type
REMARK                         _______ _______ _______ _____ _____    ______ ____
ROOT
ATOM      1  O   UNL     1     -23.910  -6.508  14.053  0.00  0.00    +0.000 OA
ATOM      2  C   UNL     1     -23.195  -4.998  12.046  0.00  0.00    +0.000 C 
ATOM      3  C   UNL     1     -23.668  -4.410  10.713  0.00  0.00    +0.000 C 
ATOM      4  C   UNL     1     -24.444  -5.278   9.737  0.00  0.00    +0.000 C 
ATOM      5  C   UNL     1     -24.145  -6.067  12.746  0.00  0.00    +0.000 C 
ATOM      6  C   UNL     1     -23.136  -3.948  13.074  0.00  0.00    +0.000 C 
ATOM      7  C   UNL     1     -25.000  -6.407  10.455  0.00  0.00    +0.000 C 
ATOM      8  C   UNL     1     -24.925  -6.854  11.876  0.00  0.00    +0.000 C 
ATOM      9  C   UNL     1     -21.800  -5.653  11.857  0.00  0.00    +0.000 C 
ATOM     10  C   UNL     1     -23.457  -3.702  14.528  0.00  0.00    +0.000 C 
ATOM     11  C   UNL     1     -24.632  -5.875  15.159  0.00  0.00    +0.000 C 
ATOM     12  C   UNL     1     -25.539  -4.467   9.029  0.00  0.00    +0.000 C 
ATOM     13  C   UNL     1     -24.035  -4.489  15.547  0.00  0.00    +0.000 C 
ATOM     14  C   UNL     1     -26.144  -5.687  14.837  0.00  0.00    +0.000 C 
ATOM     15  C   UNL     1     -24.476  -6.804  16.399  0.00  0.00    +0.000 C 
ENDROOT
BRANCH   4  16
ATOM     16  O   UNL     1     -23.588  -5.732   8.719  0.00  0.00    +0.000 OA
ATOM     17  H   UNL     1     -23.129  -4.909   8.474  0.00  0.00    +0.000 HD
ENDBRANCH   4  16
BRANCH  13  18
ATOM     18  O   UNL     1     -24.038  -4.006  16.852  0.00  0.00    +0.000 OA
ATOM     19  H   UNL     1     -24.949  -3.951  17.211  0.00  0.00    +0.000 HD
ENDBRANCH  13  18
BRANCH   3  20
ATOM     20  C   UNL     1     -23.179  -3.124  10.288  0.00  0.00    +0.000 C 
ATOM     21  C   UNL     1     -22.663  -1.759   9.821  0.00  0.00    +0.000 C 
BRANCH  21  25
ATOM     22  C   UNL     1     -22.779   1.737  10.646  0.00  0.00    +0.000 C 
ATOM     23  C   UNL     1     -21.735   0.624  10.358  0.00  0.00    +0.000 C 
ATOM     24  C   UNL     1     -23.394   2.638   9.614  0.00  0.00    +0.000 C 
ATOM     25  C   UNL     1     -22.183  -0.483   9.374  0.00  0.00    +0.000 C 
ATOM     26  C   UNL     1     -24.054   3.872  10.218  0.00  0.00    +0.000 C 
ATOM     27  C   UNL     1     -23.036   2.362  11.903  0.00  0.00    +0.000 C 
ATOM     28  C   UNL     1     -23.789   3.635  11.633  0.00  0.00    +0.000 C 
ATOM     29  C   UNL     1     -23.321   2.221   8.272  0.00  0.00    +0.000 C 
ATOM     30  C   UNL     1     -22.274  -0.184   7.944  0.00  0.00    +0.000 C 
ATOM     31  C   UNL     1     -21.367  -0.052  11.732  0.00  0.00    +0.000 C 
ATOM     32  C   UNL     1     -20.425   1.307   9.835  0.00  0.00    +0.000 C 
ATOM     33  C   UNL     1     -22.795   0.962   7.638  0.00  0.00    +0.000 C 
ATOM     34  C   UNL     1     -25.524   3.990   9.840  0.00  0.00    +0.000 C 
ATOM     35  C   UNL     1     -22.240  -1.232   6.864  0.00  0.00    +0.000 C 
BRANCH  26  36
ATOM     36  O   UNL     1     -23.413   5.037   9.771  0.00  0.00    +0.000 OA
ATOM     37  H   UNL     1     -22.595   5.012  10.299  0.00  0.00    +0.000 HD
ENDBRANCH  26  36
ENDBRANCH  21  25
ENDBRANCH   3  20
TORSDOF 5
ENDMDL
MODEL 9
REMARK VINA RESULT:      -5.7     19.391     23.733
REMARK  Name = 342374_SipholenolA.pdbqt.pdb
REMARK  5 active torsions:
REMARK  status: ('A' for Active; 'I' for Inactive)
REMARK    1  A    between atoms: C_3  and  C_20
REMARK    2  A    between atoms: C_4  and  O_16
REMARK    3  A    between atoms: C_13  and  O_18
REMARK    4  A    between atoms: C_21  and  C_25
REMARK    5  A    between atoms: C_26  and  O_36
REMARK                            x       y       z     vdW  Elec       q    Type
REMARK                         _______ _______ _______ _____ _____    ______ ____
ROOT
ATOM      1  O   UNL     1       2.670 -20.903  12.958  0.00  0.00    +0.000 OA
ATOM      2  C   UNL     1       3.125 -18.549  13.994  0.00  0.00    +0.000 C 
ATOM      3  C   UNL     1       4.205 -17.663  14.620  0.00  0.00    +0.000 C 
ATOM      4  C   UNL     1       5.177 -18.253  15.628  0.00  0.00    +0.000 C 
ATOM      5  C   UNL     1       3.505 -20.068  13.710  0.00  0.00    +0.000 C 
ATOM      6  C   UNL     1       2.798 -18.075  12.640  0.00  0.00    +0.000 C 
ATOM      7  C   UNL     1       5.191 -19.695  15.475  0.00  0.00    +0.000 C 
ATOM      8  C   UNL     1       4.448 -20.636  14.589  0.00  0.00    +0.000 C 
ATOM      9  C   UNL     1       1.859 -18.537  14.895  0.00  0.00    +0.000 C 
ATOM     10  C   UNL     1       2.502 -18.586  11.251  0.00  0.00    +0.000 C 
ATOM     11  C   UNL     1       2.941 -21.082  11.529  0.00  0.00    +0.000 C 
ATOM     12  C   UNL     1       6.581 -17.656  15.454  0.00  0.00    +0.000 C 
ATOM     13  C   UNL     1       2.461 -19.872  10.673  0.00  0.00    +0.000 C 
ATOM     14  C   UNL     1       4.455 -21.314  11.248  0.00  0.00    +0.000 C 
ATOM     15  C   UNL     1       2.129 -22.326  11.063  0.00  0.00    +0.000 C 
ENDROOT
BRANCH   4  16
ATOM     16  O   UNL     1       4.777 -17.914  16.932  0.00  0.00    +0.000 OA
ATOM     17  H   UNL     1       4.550 -16.973  16.823  0.00  0.00    +0.000 HD
ENDBRANCH   4  16
BRANCH  13  18
ATOM     18  O   UNL     1       1.983 -20.013   9.374  0.00  0.00    +0.000 OA
ATOM     19  H   UNL     1       1.014 -19.870   9.332  0.00  0.00    +0.000 HD
ENDBRANCH  13  18
BRANCH   3  20
ATOM     20  C   UNL     1       4.151 -16.235  14.437  0.00  0.00    +0.000 C 
ATOM     21  C   UNL     1       4.107 -14.715  14.251  0.00  0.00    +0.000 C 
BRANCH  21  25
ATOM     22  C   UNL     1       5.716 -12.056  12.446  0.00  0.00    +0.000 C 
ATOM     23  C   UNL     1       4.290 -12.614  12.709  0.00  0.00    +0.000 C 
ATOM     24  C   UNL     1       6.409 -11.018  13.281  0.00  0.00    +0.000 C 
ATOM     25  C   UNL     1       4.073 -13.291  14.083  0.00  0.00    +0.000 C 
ATOM     26  C   UNL     1       7.598 -10.380  12.571  0.00  0.00    +0.000 C 
ATOM     27  C   UNL     1       6.439 -12.106  11.217  0.00  0.00    +0.000 C 
ATOM     28  C   UNL     1       7.552 -11.097  11.302  0.00  0.00    +0.000 C 
ATOM     29  C   UNL     1       5.915 -10.804  14.580  0.00  0.00    +0.000 C 
ATOM     30  C   UNL     1       3.983 -12.466  15.288  0.00  0.00    +0.000 C 
ATOM     31  C   UNL     1       3.975 -13.667  11.581  0.00  0.00    +0.000 C 
ATOM     32  C   UNL     1       3.266 -11.443  12.520  0.00  0.00    +0.000 C 
ATOM     33  C   UNL     1       4.831 -11.489  15.369  0.00  0.00    +0.000 C 
ATOM     34  C   UNL     1       8.892 -10.528  13.358  0.00  0.00    +0.000 C 
ATOM     35  C   UNL     1       3.335 -12.918  16.569  0.00  0.00    +0.000 C 
BRANCH  26  36
ATOM     36  O   UNL     1       7.376  -9.007  12.385  0.00  0.00    +0.000 OA
ATOM     37  H   UNL     1       8.037  -8.629  12.992  0.00  0.00    +0.000 HD
ENDBRANCH  26  36
ENDBRANCH  21  25
ENDBRANCH   3  20
TORSDOF 5
ENDMDL
