REMARK  Name = 342374_SipholenolA.pdbqt.pdb
REMARK  5 active torsions:
REMARK  status: ('A' for Active; 'I' for Inactive)
REMARK    1  A    between atoms: C_3  and  C_20
REMARK    2  A    between atoms: C_4  and  O_16
REMARK    3  A    between atoms: C_13  and  O_18
REMARK    4  A    between atoms: C_21  and  C_25
REMARK    5  A    between atoms: C_26  and  O_36
REMARK                            x       y       z     vdW  Elec       q    Type
REMARK                         _______ _______ _______ _____ _____    ______ ____
ROOT
ATOM      1  O   UNL     1       5.329   0.547  -0.548  0.00  0.00    +0.000 OA
ATOM      2  C   UNL     1       3.007  -0.629  -0.763  0.00  0.00    +0.000 C 
ATOM      3  C   UNL     1       1.967  -1.457  -0.003  0.00  0.00    +0.000 C 
ATOM      4  C   UNL     1       2.418  -2.593   0.899  0.00  0.00    +0.000 C 
ATOM      5  C   UNL     1       4.397  -0.362  -0.034  0.00  0.00    +0.000 C 
ATOM      6  C   UNL     1       2.518   0.744  -0.964  0.00  0.00    +0.000 C 
ATOM      7  C   UNL     1       3.814  -2.397   1.237  0.00  0.00    +0.000 C 
ATOM      8  C   UNL     1       4.823  -1.367   0.856  0.00  0.00    +0.000 C 
ATOM      9  C   UNL     1       3.309  -1.304  -2.129  0.00  0.00    +0.000 C 
ATOM     10  C   UNL     1       2.983   2.179  -0.924  0.00  0.00    +0.000 C 
ATOM     11  C   UNL     1       5.354   1.915  -0.024  0.00  0.00    +0.000 C 
ATOM     12  C   UNL     1       1.542  -2.678   2.158  0.00  0.00    +0.000 C 
ATOM     13  C   UNL     1       4.210   2.799  -0.605  0.00  0.00    +0.000 C 
ATOM     14  C   UNL     1       5.259   1.946   1.530  0.00  0.00    +0.000 C 
ATOM     15  C   UNL     1       6.701   2.553  -0.475  0.00  0.00    +0.000 C 
ENDROOT
BRANCH   4  16
ATOM     16  O   UNL     1       2.254  -3.822   0.237  0.00  0.00    +0.000 OA
ATOM     17  H   UNL     1       1.680  -4.300   0.862  0.00  0.00    +0.000 HD
ENDBRANCH   4  16
BRANCH  13  18
ATOM     18  O   UNL     1       4.355   4.164  -0.832  0.00  0.00    +0.000 OA
ATOM     19  H   UNL     1       5.273   4.460  -0.657  0.00  0.00    +0.000 HD
ENDBRANCH  13  18
BRANCH   3  20
ATOM     20  C   UNL     1       0.570  -1.315  -0.324  0.00  0.00    +0.000 C 
ATOM     21  C   UNL     1      -0.919  -1.176  -0.654  0.00  0.00    +0.000 C 
BRANCH  21  25
ATOM     22  C   UNL     1      -3.702   1.061  -0.242  0.00  0.00    +0.000 C 
ATOM     23  C   UNL     1      -2.959   0.293  -1.369  0.00  0.00    +0.000 C 
ATOM     24  C   UNL     1      -4.862   0.531   0.550  0.00  0.00    +0.000 C 
ATOM     25  C   UNL     1      -2.316  -1.053  -0.958  0.00  0.00    +0.000 C 
ATOM     26  C   UNL     1      -5.632   1.624   1.282  0.00  0.00    +0.000 C 
ATOM     27  C   UNL     1      -3.704   2.472  -0.029  0.00  0.00    +0.000 C 
ATOM     28  C   UNL     1      -4.863   2.794   0.874  0.00  0.00    +0.000 C 
ATOM     29  C   UNL     1      -5.058  -0.862   0.548  0.00  0.00    +0.000 C 
ATOM     30  C   UNL     1      -3.170  -2.216  -0.714  0.00  0.00    +0.000 C 
ATOM     31  C   UNL     1      -1.825   1.236  -1.922  0.00  0.00    +0.000 C 
ATOM     32  C   UNL     1      -3.963   0.068  -2.551  0.00  0.00    +0.000 C 
ATOM     33  C   UNL     1      -4.260  -1.989  -0.051  0.00  0.00    +0.000 C 
ATOM     34  C   UNL     1      -5.703   1.380   2.783  0.00  0.00    +0.000 C 
ATOM     35  C   UNL     1      -2.684  -3.640  -0.766  0.00  0.00    +0.000 C 
BRANCH  26  36
ATOM     36  O   UNL     1      -6.951   1.694   0.807  0.00  0.00    +0.000 OA
ATOM     37  H   UNL     1      -7.447   1.725   1.644  0.00  0.00    +0.000 HD
ENDBRANCH  26  36
ENDBRANCH  21  25
ENDBRANCH   3  20
TORSDOF 5
