MODEL 1
REMARK VINA RESULT:      -4.1      0.000      0.000
REMARK  Name = 43806_Diaminocyclohexane.pdbqt.pdb
REMARK  2 active torsions:
REMARK  status: ('A' for Active; 'I' for Inactive)
REMARK    1  A    between atoms: C_1  and  N_7
REMARK    2  A    between atoms: C_2  and  N_10
REMARK                            x       y       z     vdW  Elec       q    Type
REMARK                         _______ _______ _______ _____ _____    ______ ____
ROOT
ATOM      1  C   UNL     1      -8.674  -5.040  19.006  0.00  0.00    +0.000 A 
ATOM      2  C   UNL     1      -9.358  -4.746  17.727  0.00  0.00    +0.000 A 
ATOM      3  C   UNL     1      -8.888  -4.078  20.046  0.00  0.00    +0.000 A 
ATOM      4  C   UNL     1     -10.162  -3.560  17.724  0.00  0.00    +0.000 A 
ATOM      5  C   UNL     1      -9.721  -2.787  20.111  0.00  0.00    +0.000 A 
ATOM      6  C   UNL     1     -10.445  -2.495  18.796  0.00  0.00    +0.000 A 
ENDROOT
BRANCH   1   7
ATOM      7  N   UNL     1      -7.927  -6.222  19.219  0.00  0.00    +0.000 N 
ATOM      8  H   UNL     1      -7.388  -6.512  18.409  0.00  0.00    +0.000 HD
ATOM      9  H   UNL     1      -8.456  -6.987  19.626  0.00  0.00    +0.000 HD
ENDBRANCH   1   7
BRANCH   2  10
ATOM     10  N   UNL     1      -9.174  -5.531  16.564  0.00  0.00    +0.000 N 
ATOM     11  H   UNL     1      -9.206  -4.994  15.703  0.00  0.00    +0.000 HD
ATOM     12  H   UNL     1      -9.754  -6.363  16.521  0.00  0.00    +0.000 HD
ENDBRANCH   2  10
TORSDOF 2
ENDMDL
MODEL 2
REMARK VINA RESULT:      -4.1      2.070      2.893
REMARK  Name = 43806_Diaminocyclohexane.pdbqt.pdb
REMARK  2 active torsions:
REMARK  status: ('A' for Active; 'I' for Inactive)
REMARK    1  A    between atoms: C_1  and  N_7
REMARK    2  A    between atoms: C_2  and  N_10
REMARK                            x       y       z     vdW  Elec       q    Type
REMARK                         _______ _______ _______ _____ _____    ______ ____
ROOT
ATOM      1  C   UNL     1      -8.847  -4.703  19.941  0.00  0.00    +0.000 A 
ATOM      2  C   UNL     1      -9.806  -3.828  19.233  0.00  0.00    +0.000 A 
ATOM      3  C   UNL     1      -8.218  -5.702  19.129  0.00  0.00    +0.000 A 
ATOM      4  C   UNL     1      -9.944  -4.085  17.830  0.00  0.00    +0.000 A 
ATOM      5  C   UNL     1      -8.323  -6.041  17.633  0.00  0.00    +0.000 A 
ATOM      6  C   UNL     1      -9.300  -5.122  16.896  0.00  0.00    +0.000 A 
ENDROOT
BRANCH   1   7
ATOM      7  N   UNL     1      -8.509  -4.523  21.303  0.00  0.00    +0.000 N 
ATOM      8  H   UNL     1      -8.136  -3.602  21.509  0.00  0.00    +0.000 HD
ATOM      9  H   UNL     1      -7.943  -5.267  21.699  0.00  0.00    +0.000 HD
ENDBRANCH   1   7
BRANCH   2  10
ATOM     10  N   UNL     1     -10.593  -2.860  19.899  0.00  0.00    +0.000 N 
ATOM     11  H   UNL     1     -11.237  -3.256  20.577  0.00  0.00    +0.000 HD
ATOM     12  H   UNL     1     -11.045  -2.189  19.286  0.00  0.00    +0.000 HD
ENDBRANCH   2  10
TORSDOF 2
ENDMDL
MODEL 3
REMARK VINA RESULT:      -3.8     15.187     15.684
REMARK  Name = 43806_Diaminocyclohexane.pdbqt.pdb
REMARK  2 active torsions:
REMARK  status: ('A' for Active; 'I' for Inactive)
REMARK    1  A    between atoms: C_1  and  N_7
REMARK    2  A    between atoms: C_2  and  N_10
REMARK                            x       y       z     vdW  Elec       q    Type
REMARK                         _______ _______ _______ _____ _____    ______ ____
ROOT
ATOM      1  C   UNL     1       4.325 -10.751  13.013  0.00  0.00    +0.000 A 
ATOM      2  C   UNL     1       3.338 -11.409  12.129  0.00  0.00    +0.000 A 
ATOM      3  C   UNL     1       4.349  -9.321  12.943  0.00  0.00    +0.000 A 
ATOM      4  C   UNL     1       2.525 -10.518  11.355  0.00  0.00    +0.000 A 
ATOM      5  C   UNL     1       3.521  -8.307  12.135  0.00  0.00    +0.000 A 
ATOM      6  C   UNL     1       2.486  -8.987  11.237  0.00  0.00    +0.000 A 
ENDROOT
BRANCH   1   7
ATOM      7  N   UNL     1       5.135 -11.471  13.923  0.00  0.00    +0.000 N 
ATOM      8  H   UNL     1       6.073 -11.650  13.576  0.00  0.00    +0.000 HD
ATOM      9  H   UNL     1       4.700 -12.304  14.307  0.00  0.00    +0.000 HD
ENDBRANCH   1   7
BRANCH   2  10
ATOM     10  N   UNL     1       3.251 -12.815  11.992  0.00  0.00    +0.000 N 
ATOM     11  H   UNL     1       3.689 -13.324  12.753  0.00  0.00    +0.000 HD
ATOM     12  H   UNL     1       3.527 -13.167  11.082  0.00  0.00    +0.000 HD
ENDBRANCH   2  10
TORSDOF 2
ENDMDL
MODEL 4
REMARK VINA RESULT:      -3.8      2.332      3.568
REMARK  Name = 43806_Diaminocyclohexane.pdbqt.pdb
REMARK  2 active torsions:
REMARK  status: ('A' for Active; 'I' for Inactive)
REMARK    1  A    between atoms: C_1  and  N_7
REMARK    2  A    between atoms: C_2  and  N_10
REMARK                            x       y       z     vdW  Elec       q    Type
REMARK                         _______ _______ _______ _____ _____    ______ ____
ROOT
ATOM      1  C   UNL     1      -9.652  -3.254  19.999  0.00  0.00    +0.000 A 
ATOM      2  C   UNL     1      -8.684  -4.265  20.477  0.00  0.00    +0.000 A 
ATOM      3  C   UNL     1     -10.052  -3.392  18.631  0.00  0.00    +0.000 A 
ATOM      4  C   UNL     1      -8.312  -5.257  19.512  0.00  0.00    +0.000 A 
ATOM      5  C   UNL     1      -9.690  -4.415  17.541  0.00  0.00    +0.000 A 
ATOM      6  C   UNL     1      -8.705  -5.473  18.042  0.00  0.00    +0.000 A 
ENDROOT
BRANCH   1   7
ATOM      7  N   UNL     1     -10.208  -2.267  20.847  0.00  0.00    +0.000 N 
ATOM      8  H   UNL     1     -10.596  -2.643  21.706  0.00  0.00    +0.000 HD
ATOM      9  H   UNL     1     -10.842  -1.623  20.385  0.00  0.00    +0.000 HD
ENDBRANCH   1   7
BRANCH   2  10
ATOM     10  N   UNL     1      -8.102  -4.218  21.766  0.00  0.00    +0.000 N 
ATOM     11  H   UNL     1      -7.130  -3.928  21.762  0.00  0.00    +0.000 HD
ATOM     12  H   UNL     1      -8.254  -5.049  22.328  0.00  0.00    +0.000 HD
ENDBRANCH   2  10
TORSDOF 2
ENDMDL
MODEL 5
REMARK VINA RESULT:      -3.8     15.189     15.807
REMARK  Name = 43806_Diaminocyclohexane.pdbqt.pdb
REMARK  2 active torsions:
REMARK  status: ('A' for Active; 'I' for Inactive)
REMARK    1  A    between atoms: C_1  and  N_7
REMARK    2  A    between atoms: C_2  and  N_10
REMARK                            x       y       z     vdW  Elec       q    Type
REMARK                         _______ _______ _______ _____ _____    ______ ____
ROOT
ATOM      1  C   UNL     1       3.347 -11.423  12.157  0.00  0.00    +0.000 A 
ATOM      2  C   UNL     1       4.331 -10.768  13.047  0.00  0.00    +0.000 A 
ATOM      3  C   UNL     1       2.538 -10.531  11.380  0.00  0.00    +0.000 A 
ATOM      4  C   UNL     1       4.355  -9.336  12.978  0.00  0.00    +0.000 A 
ATOM      5  C   UNL     1       2.501  -8.999  11.264  0.00  0.00    +0.000 A 
ATOM      6  C   UNL     1       3.534  -8.322  12.168  0.00  0.00    +0.000 A 
ENDROOT
BRANCH   1   7
ATOM      7  N   UNL     1       3.259 -12.828  12.019  0.00  0.00    +0.000 N 
ATOM      8  H   UNL     1       4.073 -13.244  11.577  0.00  0.00    +0.000 HD
ATOM      9  H   UNL     1       2.388 -13.158  11.613  0.00  0.00    +0.000 HD
ENDBRANCH   1   7
BRANCH   2  10
ATOM     10  N   UNL     1       5.136 -11.489  13.959  0.00  0.00    +0.000 N 
ATOM     11  H   UNL     1       5.455 -10.933  14.746  0.00  0.00    +0.000 HD
ATOM     12  H   UNL     1       5.888 -12.018  13.530  0.00  0.00    +0.000 HD
ENDBRANCH   2  10
TORSDOF 2
ENDMDL
MODEL 6
REMARK VINA RESULT:      -3.8      2.372      3.051
REMARK  Name = 43806_Diaminocyclohexane.pdbqt.pdb
REMARK  2 active torsions:
REMARK  status: ('A' for Active; 'I' for Inactive)
REMARK    1  A    between atoms: C_1  and  N_7
REMARK    2  A    between atoms: C_2  and  N_10
REMARK                            x       y       z     vdW  Elec       q    Type
REMARK                         _______ _______ _______ _____ _____    ______ ____
ROOT
ATOM      1  C   UNL     1      -8.689  -4.177  20.592  0.00  0.00    +0.000 A 
ATOM      2  C   UNL     1      -9.657  -3.140  20.172  0.00  0.00    +0.000 A 
ATOM      3  C   UNL     1      -8.361  -5.147  19.590  0.00  0.00    +0.000 A 
ATOM      4  C   UNL     1     -10.102  -3.236  18.813  0.00  0.00    +0.000 A 
ATOM      5  C   UNL     1      -8.803  -5.318  18.127  0.00  0.00    +0.000 A 
ATOM      6  C   UNL     1      -9.788  -4.233  17.687  0.00  0.00    +0.000 A 
ENDROOT
BRANCH   1   7
ATOM      7  N   UNL     1      -8.067  -4.172  21.863  0.00  0.00    +0.000 N 
ATOM      8  H   UNL     1      -8.469  -4.842  22.512  0.00  0.00    +0.000 HD
ATOM      9  H   UNL     1      -7.958  -3.251  22.275  0.00  0.00    +0.000 HD
ENDBRANCH   1   7
BRANCH   2  10
ATOM     10  N   UNL     1     -10.172  -2.169  21.063  0.00  0.00    +0.000 N 
ATOM     11  H   UNL     1     -11.175  -2.037  20.984  0.00  0.00    +0.000 HD
ATOM     12  H   UNL     1      -9.667  -1.289  21.066  0.00  0.00    +0.000 HD
ENDBRANCH   2  10
TORSDOF 2
ENDMDL
MODEL 7
REMARK VINA RESULT:      -3.7      2.016      2.650
REMARK  Name = 43806_Diaminocyclohexane.pdbqt.pdb
REMARK  2 active torsions:
REMARK  status: ('A' for Active; 'I' for Inactive)
REMARK    1  A    between atoms: C_1  and  N_7
REMARK    2  A    between atoms: C_2  and  N_10
REMARK                            x       y       z     vdW  Elec       q    Type
REMARK                         _______ _______ _______ _____ _____    ______ ____
ROOT
ATOM      1  C   UNL     1      -9.101  -4.006  20.359  0.00  0.00    +0.000 A 
ATOM      2  C   UNL     1      -9.912  -2.966  19.688  0.00  0.00    +0.000 A 
ATOM      3  C   UNL     1      -8.115  -3.515  21.275  0.00  0.00    +0.000 A 
ATOM      4  C   UNL     1      -9.615  -1.619  20.076  0.00  0.00    +0.000 A 
ATOM      5  C   UNL     1      -7.736  -2.096  21.729  0.00  0.00    +0.000 A 
ATOM      6  C   UNL     1      -8.589  -1.022  21.051  0.00  0.00    +0.000 A 
ENDROOT
BRANCH   1   7
ATOM      7  N   UNL     1      -9.331  -5.391  20.175  0.00  0.00    +0.000 N 
ATOM      8  H   UNL     1      -8.479  -5.942  20.152  0.00  0.00    +0.000 HD
ATOM      9  H   UNL     1      -9.958  -5.616  19.410  0.00  0.00    +0.000 HD
ENDBRANCH   1   7
BRANCH   2  10
ATOM     10  N   UNL     1     -10.856  -3.266  18.678  0.00  0.00    +0.000 N 
ATOM     11  H   UNL     1     -11.621  -2.600  18.628  0.00  0.00    +0.000 HD
ATOM     12  H   UNL     1     -11.181  -4.227  18.677  0.00  0.00    +0.000 HD
ENDBRANCH   2  10
TORSDOF 2
ENDMDL
MODEL 8
REMARK VINA RESULT:      -3.6     15.416     16.300
REMARK  Name = 43806_Diaminocyclohexane.pdbqt.pdb
REMARK  2 active torsions:
REMARK  status: ('A' for Active; 'I' for Inactive)
REMARK    1  A    between atoms: C_1  and  N_7
REMARK    2  A    between atoms: C_2  and  N_10
REMARK                            x       y       z     vdW  Elec       q    Type
REMARK                         _______ _______ _______ _____ _____    ______ ____
ROOT
ATOM      1  C   UNL     1       4.982 -10.579  12.187  0.00  0.00    +0.000 A 
ATOM      2  C   UNL     1       5.085  -9.103  12.198  0.00  0.00    +0.000 A 
ATOM      3  C   UNL     1       3.692 -11.097  11.842  0.00  0.00    +0.000 A 
ATOM      4  C   UNL     1       3.888  -8.406  11.831  0.00  0.00    +0.000 A 
ATOM      5  C   UNL     1       2.370 -10.416  11.450  0.00  0.00    +0.000 A 
ATOM      6  C   UNL     1       2.483  -8.891  11.441  0.00  0.00    +0.000 A 
ENDROOT
BRANCH   1   7
ATOM      7  N   UNL     1       6.092 -11.424  12.420  0.00  0.00    +0.000 N 
ATOM      8  H   UNL     1       6.805 -11.364  11.700  0.00  0.00    +0.000 HD
ATOM      9  H   UNL     1       5.850 -12.384  12.646  0.00  0.00    +0.000 HD
ENDBRANCH   1   7
BRANCH   2  10
ATOM     10  N   UNL     1       6.252  -8.421  12.617  0.00  0.00    +0.000 N 
ATOM     11  H   UNL     1       6.934  -9.024  13.065  0.00  0.00    +0.000 HD
ATOM     12  H   UNL     1       6.077  -7.574  13.148  0.00  0.00    +0.000 HD
ENDBRANCH   2  10
TORSDOF 2
ENDMDL
MODEL 9
REMARK VINA RESULT:      -3.6     15.417     16.325
REMARK  Name = 43806_Diaminocyclohexane.pdbqt.pdb
REMARK  2 active torsions:
REMARK  status: ('A' for Active; 'I' for Inactive)
REMARK    1  A    between atoms: C_1  and  N_7
REMARK    2  A    between atoms: C_2  and  N_10
REMARK                            x       y       z     vdW  Elec       q    Type
REMARK                         _______ _______ _______ _____ _____    ______ ____
ROOT
ATOM      1  C   UNL     1       5.099  -9.254  12.197  0.00  0.00    +0.000 A 
ATOM      2  C   UNL     1       4.894 -10.719  12.202  0.00  0.00    +0.000 A 
ATOM      3  C   UNL     1       3.957  -8.480  11.813  0.00  0.00    +0.000 A 
ATOM      4  C   UNL     1       3.573 -11.151  11.853  0.00  0.00    +0.000 A 
ATOM      5  C   UNL     1       2.523  -8.871  11.418  0.00  0.00    +0.000 A 
ATOM      6  C   UNL     1       2.305 -10.385  11.444  0.00  0.00    +0.000 A 
ENDROOT
BRANCH   1   7
ATOM      7  N   UNL     1       6.307  -8.650  12.617  0.00  0.00    +0.000 N 
ATOM      8  H   UNL     1       6.250  -8.228  13.539  0.00  0.00    +0.000 HD
ATOM      9  H   UNL     1       6.728  -8.029  11.933  0.00  0.00    +0.000 HD
ENDBRANCH   1   7
BRANCH   2  10
ATOM     10  N   UNL     1       5.941 -11.637  12.453  0.00  0.00    +0.000 N 
ATOM     11  H   UNL     1       6.428 -11.937  11.614  0.00  0.00    +0.000 HD
ATOM     12  H   UNL     1       5.684 -12.417  13.049  0.00  0.00    +0.000 HD
ENDBRANCH   2  10
TORSDOF 2
ENDMDL
