MODEL 1
REMARK VINA RESULT:      -6.9      0.000      0.000
REMARK  Name = 44234954_SipholenolL.pdbqt.pdb
REMARK  5 active torsions:
REMARK  status: ('A' for Active; 'I' for Inactive)
REMARK    1  A    between atoms: C_3  and  C_20
REMARK    2  A    between atoms: C_4  and  O_16
REMARK    3  A    between atoms: C_13  and  O_18
REMARK    4  A    between atoms: C_21  and  C_25
REMARK    5  A    between atoms: C_26  and  O_36
REMARK                            x       y       z     vdW  Elec       q    Type
REMARK                         _______ _______ _______ _____ _____    ______ ____
ROOT
ATOM      1  O   UNL     1      -1.808   2.148  23.386  0.00  0.00    +0.000 OA
ATOM      2  C   UNL     1      -4.244   2.097  22.462  0.00  0.00    +0.000 C 
ATOM      3  C   UNL     1      -5.714   2.123  22.887  0.00  0.00    +0.000 C 
ATOM      4  C   UNL     1      -6.180   3.145  23.908  0.00  0.00    +0.000 C 
ATOM      5  C   UNL     1      -3.173   2.352  23.612  0.00  0.00    +0.000 C 
ATOM      6  C   UNL     1      -3.849   0.756  22.004  0.00  0.00    +0.000 C 
ATOM      7  C   UNL     1      -5.045   3.535  24.722  0.00  0.00    +0.000 C 
ATOM      8  C   UNL     1      -3.592   3.198  24.659  0.00  0.00    +0.000 C 
ATOM      9  C   UNL     1      -4.006   3.134  21.334  0.00  0.00    +0.000 C 
ATOM     10  C   UNL     1      -2.724  -0.240  22.125  0.00  0.00    +0.000 C 
ATOM     11  C   UNL     1      -1.177   0.890  23.818  0.00  0.00    +0.000 C 
ATOM     12  C   UNL     1      -6.914   4.313  23.255  0.00  0.00    +0.000 C 
ATOM     13  C   UNL     1      -1.511  -0.294  22.849  0.00  0.00    +0.000 C 
ATOM     14  C   UNL     1       0.353   1.155  23.780  0.00  0.00    +0.000 C 
ATOM     15  C   UNL     1      -1.631   0.500  25.259  0.00  0.00    +0.000 C 
ENDROOT
BRANCH   4  16
ATOM     16  O   UNL     1      -7.139   2.540  24.752  0.00  0.00    +0.000 OA
ATOM     17  H   UNL     1      -6.687   1.703  24.969  0.00  0.00    +0.000 HD
ENDBRANCH   4  16
BRANCH  13  18
ATOM     18  O   UNL     1      -0.778  -1.475  22.850  0.00  0.00    +0.000 OA
ATOM     19  H   UNL     1      -0.838  -1.949  23.698  0.00  0.00    +0.000 HD
ENDBRANCH  13  18
BRANCH   3  20
ATOM     20  C   UNL     1      -6.670   1.233  22.287  0.00  0.00    +0.000 C 
ATOM     21  C   UNL     1      -7.665   0.258  21.649  0.00  0.00    +0.000 C 
BRANCH  21  25
ATOM     22  C   UNL     1      -8.606  -2.146  21.588  0.00  0.00    +0.000 A 
ATOM     23  C   UNL     1      -9.631  -3.164  20.954  0.00  0.00    +0.000 A 
ATOM     24  C   UNL     1      -7.594  -2.582  22.728  0.00  0.00    +0.000 C 
ATOM     25  C   UNL     1      -8.567  -0.690  21.073  0.00  0.00    +0.000 A 
ATOM     26  C   UNL     1      -9.859  -4.646  21.328  0.00  0.00    +0.000 C 
ATOM     27  C   UNL     1      -7.869  -4.005  22.952  0.00  0.00    +0.000 C 
ATOM     28  C   UNL     1      -8.867  -4.951  22.341  0.00  0.00    +0.000 C 
ATOM     29  C   UNL     1     -10.359  -2.546  19.894  0.00  0.00    +0.000 A 
ATOM     30  C   UNL     1      -9.432  -0.202  19.964  0.00  0.00    +0.000 A 
ATOM     31  C   UNL     1      -7.896  -1.792  24.023  0.00  0.00    +0.000 C 
ATOM     32  C   UNL     1      -6.141  -2.418  22.234  0.00  0.00    +0.000 C 
ATOM     33  C   UNL     1     -10.212  -1.113  19.476  0.00  0.00    +0.000 A 
ATOM     34  C   UNL     1     -11.289  -4.889  21.788  0.00  0.00    +0.000 C 
ATOM     35  C   UNL     1      -9.555   1.218  19.495  0.00  0.00    +0.000 C 
BRANCH  26  36
ATOM     36  O   UNL     1      -9.645  -5.454  20.199  0.00  0.00    +0.000 OA
ATOM     37  H   UNL     1      -8.824  -5.915  20.454  0.00  0.00    +0.000 HD
ENDBRANCH  26  36
ENDBRANCH  21  25
ENDBRANCH   3  20
TORSDOF 5
ENDMDL
MODEL 2
REMARK VINA RESULT:      -6.4     22.107     25.564
REMARK  Name = 44234954_SipholenolL.pdbqt.pdb
REMARK  5 active torsions:
REMARK  status: ('A' for Active; 'I' for Inactive)
REMARK    1  A    between atoms: C_3  and  C_20
REMARK    2  A    between atoms: C_4  and  O_16
REMARK    3  A    between atoms: C_13  and  O_18
REMARK    4  A    between atoms: C_21  and  C_25
REMARK    5  A    between atoms: C_26  and  O_36
REMARK                            x       y       z     vdW  Elec       q    Type
REMARK                         _______ _______ _______ _____ _____    ______ ____
ROOT
ATOM      1  O   UNL     1     -10.585  -4.827  -3.304  0.00  0.00    +0.000 OA
ATOM      2  C   UNL     1      -8.691  -6.517  -2.718  0.00  0.00    +0.000 C 
ATOM      3  C   UNL     1      -8.133  -7.386  -1.588  0.00  0.00    +0.000 C 
ATOM      4  C   UNL     1      -9.078  -8.244  -0.768  0.00  0.00    +0.000 C 
ATOM      5  C   UNL     1     -10.084  -5.801  -2.435  0.00  0.00    +0.000 C 
ATOM      6  C   UNL     1      -7.825  -5.355  -2.968  0.00  0.00    +0.000 C 
ATOM      7  C   UNL     1     -10.403  -7.654  -0.823  0.00  0.00    +0.000 C 
ATOM      8  C   UNL     1     -10.961  -6.492  -1.576  0.00  0.00    +0.000 C 
ATOM      9  C   UNL     1      -8.830  -7.363  -4.010  0.00  0.00    +0.000 C 
ATOM     10  C   UNL     1      -7.899  -3.872  -3.233  0.00  0.00    +0.000 C 
ATOM     11  C   UNL     1     -10.399  -3.401  -2.987  0.00  0.00    +0.000 C 
ATOM     12  C   UNL     1      -9.029  -9.711  -1.185  0.00  0.00    +0.000 C 
ATOM     13  C   UNL     1      -8.941  -2.919  -3.293  0.00  0.00    +0.000 C 
ATOM     14  C   UNL     1     -11.386  -2.635  -3.909  0.00  0.00    +0.000 C 
ATOM     15  C   UNL     1     -10.715  -3.114  -1.486  0.00  0.00    +0.000 C 
ENDROOT
BRANCH   4  16
ATOM     16  O   UNL     1      -8.649  -8.234   0.579  0.00  0.00    +0.000 OA
ATOM     17  H   UNL     1      -9.084  -7.424   0.902  0.00  0.00    +0.000 HD
ENDBRANCH   4  16
BRANCH  13  18
ATOM     18  O   UNL     1      -8.618  -1.572  -3.397  0.00  0.00    +0.000 OA
ATOM     19  H   UNL     1      -7.736  -1.430  -3.784  0.00  0.00    +0.000 HD
ENDBRANCH  13  18
BRANCH   3  20
ATOM     20  C   UNL     1      -6.719  -7.446  -1.334  0.00  0.00    +0.000 C 
ATOM     21  C   UNL     1      -5.207  -7.511  -1.099  0.00  0.00    +0.000 C 
BRANCH  21  25
ATOM     22  C   UNL     1      -3.093  -6.611   0.079  0.00  0.00    +0.000 A 
ATOM     23  C   UNL     1      -1.529  -6.700   0.270  0.00  0.00    +0.000 A 
ATOM     24  C   UNL     1      -3.972  -5.561   0.878  0.00  0.00    +0.000 C 
ATOM     25  C   UNL     1      -3.788  -7.554  -0.927  0.00  0.00    +0.000 A 
ATOM     26  C   UNL     1      -0.637  -5.881   1.230  0.00  0.00    +0.000 C 
ATOM     27  C   UNL     1      -3.015  -4.818   1.703  0.00  0.00    +0.000 C 
ATOM     28  C   UNL     1      -1.525  -4.934   1.877  0.00  0.00    +0.000 C 
ATOM     29  C   UNL     1      -0.970  -7.659  -0.626  0.00  0.00    +0.000 A 
ATOM     30  C   UNL     1      -3.042  -8.529  -1.770  0.00  0.00    +0.000 A 
ATOM     31  C   UNL     1      -4.968  -6.308   1.797  0.00  0.00    +0.000 C 
ATOM     32  C   UNL     1      -4.656  -4.589  -0.106  0.00  0.00    +0.000 C 
ATOM     33  C   UNL     1      -1.762  -8.506  -1.578  0.00  0.00    +0.000 A 
ATOM     34  C   UNL     1       0.102  -6.784   2.208  0.00  0.00    +0.000 C 
ATOM     35  C   UNL     1      -3.645  -9.569  -2.668  0.00  0.00    +0.000 C 
BRANCH  26  36
ATOM     36  O   UNL     1       0.336  -5.188   0.492  0.00  0.00    +0.000 OA
ATOM     37  H   UNL     1       1.152  -5.607   0.821  0.00  0.00    +0.000 HD
ENDBRANCH  26  36
ENDBRANCH  21  25
ENDBRANCH   3  20
TORSDOF 5
ENDMDL
MODEL 3
REMARK VINA RESULT:      -6.2     20.069     23.942
REMARK  Name = 44234954_SipholenolL.pdbqt.pdb
REMARK  5 active torsions:
REMARK  status: ('A' for Active; 'I' for Inactive)
REMARK    1  A    between atoms: C_3  and  C_20
REMARK    2  A    between atoms: C_4  and  O_16
REMARK    3  A    between atoms: C_13  and  O_18
REMARK    4  A    between atoms: C_21  and  C_25
REMARK    5  A    between atoms: C_26  and  O_36
REMARK                            x       y       z     vdW  Elec       q    Type
REMARK                         _______ _______ _______ _____ _____    ______ ____
ROOT
ATOM      1  O   UNL     1     -12.945 -18.060  11.623  0.00  0.00    +0.000 OA
ATOM      2  C   UNL     1     -13.135 -17.745   9.042  0.00  0.00    +0.000 C 
ATOM      3  C   UNL     1     -12.307 -17.568   7.768  0.00  0.00    +0.000 C 
ATOM      4  C   UNL     1     -11.119 -18.478   7.514  0.00  0.00    +0.000 C 
ATOM      5  C   UNL     1     -12.323 -18.080  10.370  0.00  0.00    +0.000 C 
ATOM      6  C   UNL     1     -13.791 -16.486   9.427  0.00  0.00    +0.000 C 
ATOM      7  C   UNL     1     -10.634 -18.970   8.791  0.00  0.00    +0.000 C 
ATOM      8  C   UNL     1     -11.137 -18.820  10.188  0.00  0.00    +0.000 C 
ATOM      9  C   UNL     1     -14.199 -18.853   8.827  0.00  0.00    +0.000 C 
ATOM     10  C   UNL     1     -14.076 -15.634  10.638  0.00  0.00    +0.000 C 
ATOM     11  C   UNL     1     -12.812 -16.872  12.483  0.00  0.00    +0.000 C 
ATOM     12  C   UNL     1     -11.441 -19.573   6.502  0.00  0.00    +0.000 C 
ATOM     13  C   UNL     1     -13.735 -15.700  12.008  0.00  0.00    +0.000 C 
ATOM     14  C   UNL     1     -13.264 -17.328  13.897  0.00  0.00    +0.000 C 
ATOM     15  C   UNL     1     -11.336 -16.365  12.515  0.00  0.00    +0.000 C 
ENDROOT
BRANCH   4  16
ATOM     16  O   UNL     1     -10.087 -17.720   6.916  0.00  0.00    +0.000 OA
ATOM     17  H   UNL     1      -9.517 -17.546   7.689  0.00  0.00    +0.000 HD
ENDBRANCH   4  16
BRANCH  13  18
ATOM     18  O   UNL     1     -14.036 -14.621  12.831  0.00  0.00    +0.000 OA
ATOM     19  H   UNL     1     -14.777 -14.089  12.490  0.00  0.00    +0.000 HD
ENDBRANCH  13  18
BRANCH   3  20
ATOM     20  C   UNL     1     -12.678 -16.593   6.778  0.00  0.00    +0.000 C 
ATOM     21  C   UNL     1     -13.102 -15.573   5.717  0.00  0.00    +0.000 C 
BRANCH  21  25
ATOM     22  C   UNL     1     -12.614 -14.221   3.573  0.00  0.00    +0.000 A 
ATOM     23  C   UNL     1     -13.141 -13.209   2.482  0.00  0.00    +0.000 A 
ATOM     24  C   UNL     1     -11.142 -14.807   3.525  0.00  0.00    +0.000 C 
ATOM     25  C   UNL     1     -13.546 -14.638   4.732  0.00  0.00    +0.000 A 
ATOM     26  C   UNL     1     -12.397 -12.679   1.235  0.00  0.00    +0.000 C 
ATOM     27  C   UNL     1     -10.530 -14.194   2.342  0.00  0.00    +0.000 C 
ATOM     28  C   UNL     1     -11.061 -13.239   1.307  0.00  0.00    +0.000 C 
ATOM     29  C   UNL     1     -14.458 -12.768   2.804  0.00  0.00    +0.000 A 
ATOM     30  C   UNL     1     -14.922 -14.093   4.898  0.00  0.00    +0.000 A 
ATOM     31  C   UNL     1     -11.198 -16.342   3.335  0.00  0.00    +0.000 C 
ATOM     32  C   UNL     1     -10.361 -14.372   4.783  0.00  0.00    +0.000 C 
ATOM     33  C   UNL     1     -15.256 -13.241   3.983  0.00  0.00    +0.000 A 
ATOM     34  C   UNL     1     -13.136 -13.038  -0.046  0.00  0.00    +0.000 C 
ATOM     35  C   UNL     1     -15.937 -14.541   5.909  0.00  0.00    +0.000 C 
BRANCH  26  36
ATOM     36  O   UNL     1     -12.325 -11.277   1.291  0.00  0.00    +0.000 OA
ATOM     37  H   UNL     1     -12.477 -11.047   0.356  0.00  0.00    +0.000 HD
ENDBRANCH  26  36
ENDBRANCH  21  25
ENDBRANCH   3  20
TORSDOF 5
ENDMDL
MODEL 4
REMARK VINA RESULT:      -5.9     22.343     25.848
REMARK  Name = 44234954_SipholenolL.pdbqt.pdb
REMARK  5 active torsions:
REMARK  status: ('A' for Active; 'I' for Inactive)
REMARK    1  A    between atoms: C_3  and  C_20
REMARK    2  A    between atoms: C_4  and  O_16
REMARK    3  A    between atoms: C_13  and  O_18
REMARK    4  A    between atoms: C_21  and  C_25
REMARK    5  A    between atoms: C_26  and  O_36
REMARK                            x       y       z     vdW  Elec       q    Type
REMARK                         _______ _______ _______ _____ _____    ______ ____
ROOT
ATOM      1  O   UNL     1     -10.463  -4.537  -3.962  0.00  0.00    +0.000 OA
ATOM      2  C   UNL     1      -8.740  -6.152  -2.860  0.00  0.00    +0.000 C 
ATOM      3  C   UNL     1      -8.508  -7.044  -1.638  0.00  0.00    +0.000 C 
ATOM      4  C   UNL     1      -9.603  -7.991  -1.184  0.00  0.00    +0.000 C 
ATOM      5  C   UNL     1     -10.195  -5.525  -3.008  0.00  0.00    +0.000 C 
ATOM      6  C   UNL     1      -7.917  -4.935  -2.790  0.00  0.00    +0.000 C 
ATOM      7  C   UNL     1     -10.880  -7.469  -1.635  0.00  0.00    +0.000 C 
ATOM      8  C   UNL     1     -11.250  -6.303  -2.490  0.00  0.00    +0.000 C 
ATOM      9  C   UNL     1      -8.413  -6.940  -4.155  0.00  0.00    +0.000 C 
ATOM     10  C   UNL     1      -8.002  -3.447  -3.020  0.00  0.00    +0.000 C 
ATOM     11  C   UNL     1     -10.479  -3.120  -3.559  0.00  0.00    +0.000 C 
ATOM     12  C   UNL     1      -9.330  -9.431  -1.608  0.00  0.00    +0.000 C 
ATOM     13  C   UNL     1      -9.033  -2.548  -3.376  0.00  0.00    +0.000 C 
ATOM     14  C   UNL     1     -11.177  -2.363  -4.721  0.00  0.00    +0.000 C 
ATOM     15  C   UNL     1     -11.267  -2.925  -2.226  0.00  0.00    +0.000 C 
ENDROOT
BRANCH   4  16
ATOM     16  O   UNL     1      -9.618  -8.024   0.229  0.00  0.00    +0.000 OA
ATOM     17  H   UNL     1     -10.365  -7.427   0.417  0.00  0.00    +0.000 HD
ENDBRANCH   4  16
BRANCH  13  18
ATOM     18  O   UNL     1      -8.783  -1.182  -3.332  0.00  0.00    +0.000 OA
ATOM     19  H   UNL     1      -9.457  -0.665  -3.808  0.00  0.00    +0.000 HD
ENDBRANCH  13  18
BRANCH   3  20
ATOM     20  C   UNL     1      -7.243  -7.042  -0.955  0.00  0.00    +0.000 C 
ATOM     21  C   UNL     1      -5.879  -7.042  -0.258  0.00  0.00    +0.000 C 
BRANCH  21  25
ATOM     22  C   UNL     1      -3.324  -6.760  -0.502  0.00  0.00    +0.000 A 
ATOM     23  C   UNL     1      -1.911  -6.720   0.199  0.00  0.00    +0.000 A 
ATOM     24  C   UNL     1      -3.485  -6.555  -2.066  0.00  0.00    +0.000 C 
ATOM     25  C   UNL     1      -4.585  -7.027   0.349  0.00  0.00    +0.000 A 
ATOM     26  C   UNL     1      -0.533  -6.447  -0.447  0.00  0.00    +0.000 C 
ATOM     27  C   UNL     1      -2.120  -6.362  -2.565  0.00  0.00    +0.000 C 
ATOM     28  C   UNL     1      -0.786  -6.314  -1.869  0.00  0.00    +0.000 C 
ATOM     29  C   UNL     1      -2.032  -7.020   1.587  0.00  0.00    +0.000 A 
ATOM     30  C   UNL     1      -4.529  -7.294   1.813  0.00  0.00    +0.000 A 
ATOM     31  C   UNL     1      -4.316  -5.279  -2.342  0.00  0.00    +0.000 C 
ATOM     32  C   UNL     1      -4.083  -7.827  -2.705  0.00  0.00    +0.000 C 
ATOM     33  C   UNL     1      -3.328  -7.282   2.297  0.00  0.00    +0.000 A 
ATOM     34  C   UNL     1       0.135  -5.224   0.166  0.00  0.00    +0.000 C 
ATOM     35  C   UNL     1      -5.706  -7.428   2.735  0.00  0.00    +0.000 C 
BRANCH  26  36
ATOM     36  O   UNL     1       0.318  -7.540  -0.219  0.00  0.00    +0.000 OA
ATOM     37  H   UNL     1      -0.303  -8.284  -0.324  0.00  0.00    +0.000 HD
ENDBRANCH  26  36
ENDBRANCH  21  25
ENDBRANCH   3  20
TORSDOF 5
ENDMDL
MODEL 5
REMARK VINA RESULT:      -5.7     19.850     23.833
REMARK  Name = 44234954_SipholenolL.pdbqt.pdb
REMARK  5 active torsions:
REMARK  status: ('A' for Active; 'I' for Inactive)
REMARK    1  A    between atoms: C_3  and  C_20
REMARK    2  A    between atoms: C_4  and  O_16
REMARK    3  A    between atoms: C_13  and  O_18
REMARK    4  A    between atoms: C_21  and  C_25
REMARK    5  A    between atoms: C_26  and  O_36
REMARK                            x       y       z     vdW  Elec       q    Type
REMARK                         _______ _______ _______ _____ _____    ______ ____
ROOT
ATOM      1  O   UNL     1     -27.344 -10.608  15.413  0.00  0.00    +0.000 OA
ATOM      2  C   UNL     1     -26.458  -9.322  13.328  0.00  0.00    +0.000 C 
ATOM      3  C   UNL     1     -25.730  -9.507  11.995  0.00  0.00    +0.000 C 
ATOM      4  C   UNL     1     -26.156 -10.622  11.058  0.00  0.00    +0.000 C 
ATOM      5  C   UNL     1     -26.865 -10.652  14.101  0.00  0.00    +0.000 C 
ATOM      6  C   UNL     1     -25.586  -8.677  14.322  0.00  0.00    +0.000 C 
ATOM      7  C   UNL     1     -26.791 -11.666  11.841  0.00  0.00    +0.000 C 
ATOM      8  C   UNL     1     -27.153 -11.766  13.286  0.00  0.00    +0.000 C 
ATOM      9  C   UNL     1     -27.737  -8.471  13.113  0.00  0.00    +0.000 C 
ATOM     10  C   UNL     1     -25.190  -8.775  15.773  0.00  0.00    +0.000 C 
ATOM     11  C   UNL     1     -26.427 -10.878  16.534  0.00  0.00    +0.000 C 
ATOM     12  C   UNL     1     -27.005 -10.105   9.900  0.00  0.00    +0.000 C 
ATOM     13  C   UNL     1     -25.497  -9.656  16.836  0.00  0.00    +0.000 C 
ATOM     14  C   UNL     1     -27.338 -11.134  17.766  0.00  0.00    +0.000 C 
ATOM     15  C   UNL     1     -25.536 -12.125  16.241  0.00  0.00    +0.000 C 
ENDROOT
BRANCH   4  16
ATOM     16  O   UNL     1     -25.005 -11.169  10.449  0.00  0.00    +0.000 OA
ATOM     17  H   UNL     1     -25.407 -11.664   9.711  0.00  0.00    +0.000 HD
ENDBRANCH   4  16
BRANCH  13  18
ATOM     18  O   UNL     1     -24.799  -9.540  18.031  0.00  0.00    +0.000 OA
ATOM     19  H   UNL     1     -25.068  -8.758  18.545  0.00  0.00    +0.000 HD
ENDBRANCH  13  18
BRANCH   3  20
ATOM     20  C   UNL     1     -24.689  -8.601  11.591  0.00  0.00    +0.000 C 
ATOM     21  C   UNL     1     -23.595  -7.632  11.130  0.00  0.00    +0.000 C 
BRANCH  21  25
ATOM     22  C   UNL     1     -22.360  -6.532   9.148  0.00  0.00    +0.000 A 
ATOM     23  C   UNL     1     -21.281  -5.489   8.659  0.00  0.00    +0.000 A 
ATOM     24  C   UNL     1     -23.185  -7.419   8.126  0.00  0.00    +0.000 C 
ATOM     25  C   UNL     1     -22.606  -6.713  10.662  0.00  0.00    +0.000 A 
ATOM     26  C   UNL     1     -20.892  -5.129   7.207  0.00  0.00    +0.000 C 
ATOM     27  C   UNL     1     -22.692  -7.027   6.802  0.00  0.00    +0.000 C 
ATOM     28  C   UNL     1     -21.669  -6.015   6.362  0.00  0.00    +0.000 C 
ATOM     29  C   UNL     1     -20.622  -4.890   9.773  0.00  0.00    +0.000 A 
ATOM     30  C   UNL     1     -21.837  -5.973  11.700  0.00  0.00    +0.000 A 
ATOM     31  C   UNL     1     -24.690  -7.074   8.234  0.00  0.00    +0.000 C 
ATOM     32  C   UNL     1     -22.880  -8.914   8.360  0.00  0.00    +0.000 C 
ATOM     33  C   UNL     1     -20.946  -5.170  11.212  0.00  0.00    +0.000 A 
ATOM     34  C   UNL     1     -21.131  -3.653   6.918  0.00  0.00    +0.000 C 
ATOM     35  C   UNL     1     -22.101  -5.987  13.178  0.00  0.00    +0.000 C 
BRANCH  26  36
ATOM     36  O   UNL     1     -19.523  -5.371   7.013  0.00  0.00    +0.000 OA
ATOM     37  H   UNL     1     -19.526  -5.740   6.111  0.00  0.00    +0.000 HD
ENDBRANCH  26  36
ENDBRANCH  21  25
ENDBRANCH   3  20
TORSDOF 5
ENDMDL
MODEL 6
REMARK VINA RESULT:      -5.7     20.141     24.150
REMARK  Name = 44234954_SipholenolL.pdbqt.pdb
REMARK  5 active torsions:
REMARK  status: ('A' for Active; 'I' for Inactive)
REMARK    1  A    between atoms: C_3  and  C_20
REMARK    2  A    between atoms: C_4  and  O_16
REMARK    3  A    between atoms: C_13  and  O_18
REMARK    4  A    between atoms: C_21  and  C_25
REMARK    5  A    between atoms: C_26  and  O_36
REMARK                            x       y       z     vdW  Elec       q    Type
REMARK                         _______ _______ _______ _____ _____    ______ ____
ROOT
ATOM      1  O   UNL     1     -12.689 -17.420  12.036  0.00  0.00    +0.000 OA
ATOM      2  C   UNL     1     -12.210 -17.708   9.491  0.00  0.00    +0.000 C 
ATOM      3  C   UNL     1     -11.580 -17.018   8.279  0.00  0.00    +0.000 C 
ATOM      4  C   UNL     1     -10.208 -16.382   8.409  0.00  0.00    +0.000 C 
ATOM      5  C   UNL     1     -11.992 -16.998  10.899  0.00  0.00    +0.000 C 
ATOM      6  C   UNL     1     -13.678 -17.702   9.399  0.00  0.00    +0.000 C 
ATOM      7  C   UNL     1      -9.989 -16.038   9.802  0.00  0.00    +0.000 C 
ATOM      8  C   UNL     1     -10.786 -16.282  11.041  0.00  0.00    +0.000 C 
ATOM      9  C   UNL     1     -11.691 -19.166   9.593  0.00  0.00    +0.000 C 
ATOM     10  C   UNL     1     -14.905 -17.461  10.242  0.00  0.00    +0.000 C 
ATOM     11  C   UNL     1     -13.897 -16.693  12.462  0.00  0.00    +0.000 C 
ATOM     12  C   UNL     1      -9.113 -17.251   7.799  0.00  0.00    +0.000 C 
ATOM     13  C   UNL     1     -15.136 -17.050  11.575  0.00  0.00    +0.000 C 
ATOM     14  C   UNL     1     -14.171 -17.156  13.919  0.00  0.00    +0.000 C 
ATOM     15  C   UNL     1     -13.671 -15.150  12.410  0.00  0.00    +0.000 C 
ENDROOT
BRANCH   4  16
ATOM     16  O   UNL     1     -10.188 -15.187   7.655  0.00  0.00    +0.000 OA
ATOM     17  H   UNL     1      -9.525 -14.670   8.150  0.00  0.00    +0.000 HD
ENDBRANCH   4  16
BRANCH  13  18
ATOM     18  O   UNL     1     -16.436 -16.763  11.976  0.00  0.00    +0.000 OA
ATOM     19  H   UNL     1     -16.805 -15.989  11.516  0.00  0.00    +0.000 HD
ENDBRANCH  13  18
BRANCH   3  20
ATOM     20  C   UNL     1     -12.243 -17.019   7.004  0.00  0.00    +0.000 C 
ATOM     21  C   UNL     1     -12.976 -17.000   5.658  0.00  0.00    +0.000 C 
BRANCH  21  25
ATOM     22  C   UNL     1     -14.311 -15.615   3.936  0.00  0.00    +0.000 A 
ATOM     23  C   UNL     1     -15.064 -15.573   2.550  0.00  0.00    +0.000 A 
ATOM     24  C   UNL     1     -14.196 -14.333   4.862  0.00  0.00    +0.000 C 
ATOM     25  C   UNL     1     -13.686 -16.942   4.419  0.00  0.00    +0.000 A 
ATOM     26  C   UNL     1     -15.735 -14.360   1.866  0.00  0.00    +0.000 C 
ATOM     27  C   UNL     1     -14.909 -13.277   4.136  0.00  0.00    +0.000 C 
ATOM     28  C   UNL     1     -15.609 -13.261   2.804  0.00  0.00    +0.000 C 
ATOM     29  C   UNL     1     -15.101 -16.871   1.961  0.00  0.00    +0.000 A 
ATOM     30  C   UNL     1     -13.796 -18.213   3.651  0.00  0.00    +0.000 A 
ATOM     31  C   UNL     1     -12.709 -13.933   5.016  0.00  0.00    +0.000 C 
ATOM     32  C   UNL     1     -14.904 -14.590   6.209  0.00  0.00    +0.000 C 
ATOM     33  C   UNL     1     -14.464 -18.096   2.548  0.00  0.00    +0.000 A 
ATOM     34  C   UNL     1     -15.109 -14.072   0.508  0.00  0.00    +0.000 C 
ATOM     35  C   UNL     1     -13.110 -19.508   3.977  0.00  0.00    +0.000 C 
BRANCH  26  36
ATOM     36  O   UNL     1     -17.094 -14.637   1.644  0.00  0.00    +0.000 OA
ATOM     37  H   UNL     1     -17.332 -13.919   1.030  0.00  0.00    +0.000 HD
ENDBRANCH  26  36
ENDBRANCH  21  25
ENDBRANCH   3  20
TORSDOF 5
ENDMDL
MODEL 7
REMARK VINA RESULT:      -5.7     18.630     20.104
REMARK  Name = 44234954_SipholenolL.pdbqt.pdb
REMARK  5 active torsions:
REMARK  status: ('A' for Active; 'I' for Inactive)
REMARK    1  A    between atoms: C_3  and  C_20
REMARK    2  A    between atoms: C_4  and  O_16
REMARK    3  A    between atoms: C_13  and  O_18
REMARK    4  A    between atoms: C_21  and  C_25
REMARK    5  A    between atoms: C_26  and  O_36
REMARK                            x       y       z     vdW  Elec       q    Type
REMARK                         _______ _______ _______ _____ _____    ______ ____
ROOT
ATOM      1  O   UNL     1       0.169   2.958   6.084  0.00  0.00    +0.000 OA
ATOM      2  C   UNL     1      -0.478   1.817   3.832  0.00  0.00    +0.000 C 
ATOM      3  C   UNL     1      -1.390   1.952   2.610  0.00  0.00    +0.000 C 
ATOM      4  C   UNL     1      -1.497   3.289   1.901  0.00  0.00    +0.000 C 
ATOM      5  C   UNL     1      -0.460   3.050   4.838  0.00  0.00    +0.000 C 
ATOM      6  C   UNL     1      -0.940   0.739   4.720  0.00  0.00    +0.000 C 
ATOM      7  C   UNL     1      -1.167   4.340   2.845  0.00  0.00    +0.000 C 
ATOM      8  C   UNL     1      -0.680   4.315   4.256  0.00  0.00    +0.000 C 
ATOM      9  C   UNL     1       0.977   1.539   3.373  0.00  0.00    +0.000 C 
ATOM     10  C   UNL     1      -1.157   0.435   6.181  0.00  0.00    +0.000 C 
ATOM     11  C   UNL     1      -0.633   2.679   7.287  0.00  0.00    +0.000 C 
ATOM     12  C   UNL     1      -0.678   3.323   0.614  0.00  0.00    +0.000 C 
ATOM     13  C   UNL     1      -1.038   1.170   7.382  0.00  0.00    +0.000 C 
ATOM     14  C   UNL     1       0.282   3.032   8.490  0.00  0.00    +0.000 C 
ATOM     15  C   UNL     1      -1.930   3.547   7.310  0.00  0.00    +0.000 C 
ENDROOT
BRANCH   4  16
ATOM     16  O   UNL     1      -2.835   3.477   1.485  0.00  0.00    +0.000 OA
ATOM     17  H   UNL     1      -2.951   4.427   1.672  0.00  0.00    +0.000 HD
ENDBRANCH   4  16
BRANCH  13  18
ATOM     18  O   UNL     1      -1.495   0.604   8.567  0.00  0.00    +0.000 OA
ATOM     19  H   UNL     1      -1.195   1.094   9.353  0.00  0.00    +0.000 HD
ENDBRANCH  13  18
BRANCH   3  20
ATOM     20  C   UNL     1      -2.096   0.814   2.089  0.00  0.00    +0.000 C 
ATOM     21  C   UNL     1      -2.874  -0.395   1.559  0.00  0.00    +0.000 C 
BRANCH  21  25
ATOM     22  C   UNL     1      -3.109  -2.946   1.240  0.00  0.00    +0.000 A 
ATOM     23  C   UNL     1      -3.990  -4.155   0.737  0.00  0.00    +0.000 A 
ATOM     24  C   UNL     1      -1.676  -3.169   1.879  0.00  0.00    +0.000 C 
ATOM     25  C   UNL     1      -3.642  -1.505   1.087  0.00  0.00    +0.000 A 
ATOM     26  C   UNL     1      -3.669  -5.665   0.812  0.00  0.00    +0.000 C 
ATOM     27  C   UNL     1      -1.467  -4.620   1.845  0.00  0.00    +0.000 C 
ATOM     28  C   UNL     1      -2.334  -5.755   1.371  0.00  0.00    +0.000 C 
ATOM     29  C   UNL     1      -5.187  -3.680   0.125  0.00  0.00    +0.000 A 
ATOM     30  C   UNL     1      -4.947  -1.190   0.442  0.00  0.00    +0.000 A 
ATOM     31  C   UNL     1      -1.681  -2.688   3.350  0.00  0.00    +0.000 C 
ATOM     32  C   UNL     1      -0.599  -2.481   1.013  0.00  0.00    +0.000 C 
ATOM     33  C   UNL     1      -5.583  -2.236   0.023  0.00  0.00    +0.000 A 
ATOM     34  C   UNL     1      -4.717  -6.415   1.622  0.00  0.00    +0.000 C 
ATOM     35  C   UNL     1      -5.599   0.160   0.374  0.00  0.00    +0.000 C 
BRANCH  26  36
ATOM     36  O   UNL     1      -3.677  -6.212  -0.482  0.00  0.00    +0.000 OA
ATOM     37  H   UNL     1      -3.776  -7.161  -0.281  0.00  0.00    +0.000 HD
ENDBRANCH  26  36
ENDBRANCH  21  25
ENDBRANCH   3  20
TORSDOF 5
ENDMDL
MODEL 8
REMARK VINA RESULT:      -5.5     26.055     28.089
REMARK  Name = 44234954_SipholenolL.pdbqt.pdb
REMARK  5 active torsions:
REMARK  status: ('A' for Active; 'I' for Inactive)
REMARK    1  A    between atoms: C_3  and  C_20
REMARK    2  A    between atoms: C_4  and  O_16
REMARK    3  A    between atoms: C_13  and  O_18
REMARK    4  A    between atoms: C_21  and  C_25
REMARK    5  A    between atoms: C_26  and  O_36
REMARK                            x       y       z     vdW  Elec       q    Type
REMARK                         _______ _______ _______ _____ _____    ______ ____
ROOT
ATOM      1  O   UNL     1       4.015  -9.537  -5.523  0.00  0.00    +0.000 OA
ATOM      2  C   UNL     1       1.758 -10.155  -4.377  0.00  0.00    +0.000 C 
ATOM      3  C   UNL     1       0.271 -10.395  -4.652  0.00  0.00    +0.000 C 
ATOM      4  C   UNL     1      -0.141 -11.276  -5.818  0.00  0.00    +0.000 C 
ATOM      5  C   UNL     1       2.690  -9.964  -5.653  0.00  0.00    +0.000 C 
ATOM      6  C   UNL     1       1.968  -8.875  -3.683  0.00  0.00    +0.000 C 
ATOM      7  C   UNL     1       0.923 -11.265  -6.803  0.00  0.00    +0.000 C 
ATOM      8  C   UNL     1       2.288 -10.661  -6.811  0.00  0.00    +0.000 C 
ATOM      9  C   UNL     1       2.328 -11.320  -3.526  0.00  0.00    +0.000 C 
ATOM     10  C   UNL     1       2.871  -7.668  -3.697  0.00  0.00    +0.000 C 
ATOM     11  C   UNL     1       4.348  -8.118  -5.735  0.00  0.00    +0.000 C 
ATOM     12  C   UNL     1      -0.559 -12.670  -5.362  0.00  0.00    +0.000 C 
ATOM     13  C   UNL     1       3.945  -7.233  -4.508  0.00  0.00    +0.000 C 
ATOM     14  C   UNL     1       5.891  -8.072  -5.904  0.00  0.00    +0.000 C 
ATOM     15  C   UNL     1       3.639  -7.560  -7.008  0.00  0.00    +0.000 C 
ENDROOT
BRANCH   4  16
ATOM     16  O   UNL     1      -1.298 -10.726  -6.415  0.00  0.00    +0.000 OA
ATOM     17  H   UNL     1      -1.358  -9.874  -5.944  0.00  0.00    +0.000 HD
ENDBRANCH   4  16
BRANCH  13  18
ATOM     18  O   UNL     1       4.450  -5.951  -4.327  0.00  0.00    +0.000 OA
ATOM     19  H   UNL     1       5.325  -5.835  -4.739  0.00  0.00    +0.000 HD
ENDBRANCH  13  18
BRANCH   3  20
ATOM     20  C   UNL     1      -0.736  -9.848  -3.785  0.00  0.00    +0.000 C 
ATOM     21  C   UNL     1      -1.813  -9.296  -2.845  0.00  0.00    +0.000 C 
BRANCH  21  25
ATOM     22  C   UNL     1      -2.502  -7.641  -0.987  0.00  0.00    +0.000 A 
ATOM     23  C   UNL     1      -3.629  -7.118  -0.015  0.00  0.00    +0.000 A 
ATOM     24  C   UNL     1      -1.050  -7.004  -1.001  0.00  0.00    +0.000 C 
ATOM     25  C   UNL     1      -2.808  -8.820  -1.936  0.00  0.00    +0.000 A 
ATOM     26  C   UNL     1      -3.552  -5.946   0.992  0.00  0.00    +0.000 C 
ATOM     27  C   UNL     1      -1.088  -5.954   0.022  0.00  0.00    +0.000 C 
ATOM     28  C   UNL     1      -2.185  -5.464   0.928  0.00  0.00    +0.000 C 
ATOM     29  C   UNL     1      -4.805  -7.914  -0.137  0.00  0.00    +0.000 A 
ATOM     30  C   UNL     1      -4.120  -9.525  -1.952  0.00  0.00    +0.000 A 
ATOM     31  C   UNL     1      -0.776  -6.363  -2.382  0.00  0.00    +0.000 C 
ATOM     32  C   UNL     1      -0.004  -8.066  -0.599  0.00  0.00    +0.000 C 
ATOM     33  C   UNL     1      -4.970  -9.057  -1.096  0.00  0.00    +0.000 A 
ATOM     34  C   UNL     1      -4.587  -4.876   0.678  0.00  0.00    +0.000 C 
ATOM     35  C   UNL     1      -4.546 -10.583  -2.928  0.00  0.00    +0.000 C 
BRANCH  26  36
ATOM     36  O   UNL     1      -3.826  -6.419   2.286  0.00  0.00    +0.000 OA
ATOM     37  H   UNL     1      -2.971  -6.825   2.519  0.00  0.00    +0.000 HD
ENDBRANCH  26  36
ENDBRANCH  21  25
ENDBRANCH   3  20
TORSDOF 5
ENDMDL
MODEL 9
REMARK VINA RESULT:      -5.5     18.651     21.864
REMARK  Name = 44234954_SipholenolL.pdbqt.pdb
REMARK  5 active torsions:
REMARK  status: ('A' for Active; 'I' for Inactive)
REMARK    1  A    between atoms: C_3  and  C_20
REMARK    2  A    between atoms: C_4  and  O_16
REMARK    3  A    between atoms: C_13  and  O_18
REMARK    4  A    between atoms: C_21  and  C_25
REMARK    5  A    between atoms: C_26  and  O_36
REMARK                            x       y       z     vdW  Elec       q    Type
REMARK                         _______ _______ _______ _____ _____    ______ ____
ROOT
ATOM      1  O   UNL     1     -15.495  12.055   8.716  0.00  0.00    +0.000 OA
ATOM      2  C   UNL     1     -15.088  10.683   6.538  0.00  0.00    +0.000 C 
ATOM      3  C   UNL     1     -15.492   9.402   5.806  0.00  0.00    +0.000 C 
ATOM      4  C   UNL     1     -16.960   9.033   5.698  0.00  0.00    +0.000 C 
ATOM      5  C   UNL     1     -15.907  11.030   7.857  0.00  0.00    +0.000 C 
ATOM      6  C   UNL     1     -13.723  10.576   7.077  0.00  0.00    +0.000 C 
ATOM      7  C   UNL     1     -17.674   9.655   6.798  0.00  0.00    +0.000 C 
ATOM      8  C   UNL     1     -17.250  10.602   7.871  0.00  0.00    +0.000 C 
ATOM      9  C   UNL     1     -15.182  11.892   5.571  0.00  0.00    +0.000 C 
ATOM     10  C   UNL     1     -12.925  10.885   8.318  0.00  0.00    +0.000 C 
ATOM     11  C   UNL     1     -14.725  11.725   9.927  0.00  0.00    +0.000 C 
ATOM     12  C   UNL     1     -17.532   9.353   4.320  0.00  0.00    +0.000 C 
ATOM     13  C   UNL     1     -13.229  11.402   9.599  0.00  0.00    +0.000 C 
ATOM     14  C   UNL     1     -14.782  12.996  10.817  0.00  0.00    +0.000 C 
ATOM     15  C   UNL     1     -15.348  10.504  10.673  0.00  0.00    +0.000 C 
ENDROOT
BRANCH   4  16
ATOM     16  O   UNL     1     -17.088   7.632   5.828  0.00  0.00    +0.000 OA
ATOM     17  H   UNL     1     -16.444   7.456   6.540  0.00  0.00    +0.000 HD
ENDBRANCH   4  16
BRANCH  13  18
ATOM     18  O   UNL     1     -12.245  11.395  10.580  0.00  0.00    +0.000 OA
ATOM     19  H   UNL     1     -11.956  12.292  10.824  0.00  0.00    +0.000 HD
ENDBRANCH  13  18
BRANCH   3  20
ATOM     20  C   UNL     1     -14.505   8.576   5.166  0.00  0.00    +0.000 C 
ATOM     21  C   UNL     1     -13.455   7.716   4.454  0.00  0.00    +0.000 C 
BRANCH  21  25
ATOM     22  C   UNL     1     -11.859   7.476   2.439  0.00  0.00    +0.000 A 
ATOM     23  C   UNL     1     -10.751   6.625   1.706  0.00  0.00    +0.000 A 
ATOM     24  C   UNL     1     -12.383   8.849   1.846  0.00  0.00    +0.000 C 
ATOM     25  C   UNL     1     -12.469   6.951   3.758  0.00  0.00    +0.000 A 
ATOM     26  C   UNL     1      -9.993   6.966   0.403  0.00  0.00    +0.000 C 
ATOM     27  C   UNL     1     -11.636   9.032   0.598  0.00  0.00    +0.000 C 
ATOM     28  C   UNL     1     -10.570   8.209  -0.073  0.00  0.00    +0.000 C 
ATOM     29  C   UNL     1     -10.524   5.398   2.396  0.00  0.00    +0.000 A 
ATOM     30  C   UNL     1     -12.088   5.644   4.360  0.00  0.00    +0.000 A 
ATOM     31  C   UNL     1     -12.042  10.002   2.821  0.00  0.00    +0.000 C 
ATOM     32  C   UNL     1     -13.890   8.744   1.525  0.00  0.00    +0.000 C 
ATOM     33  C   UNL     1     -11.203   4.995   3.672  0.00  0.00    +0.000 A 
ATOM     34  C   UNL     1      -8.491   7.047   0.639  0.00  0.00    +0.000 C 
ATOM     35  C   UNL     1     -12.526   5.123   5.697  0.00  0.00    +0.000 C 
BRANCH  26  36
ATOM     36  O   UNL     1     -10.207   5.952  -0.545  0.00  0.00    +0.000 OA
ATOM     37  H   UNL     1     -11.161   6.060  -0.719  0.00  0.00    +0.000 HD
ENDBRANCH  26  36
ENDBRANCH  21  25
ENDBRANCH   3  20
TORSDOF 5
ENDMDL
