MODEL 1
REMARK VINA RESULT:      -5.2      0.000      0.000
REMARK  Name = 442793_6gingerol.pdbqt.pdb
REMARK  7 active torsions:
REMARK  status: ('A' for Active; 'I' for Inactive)
REMARK    1  A    between atoms: C_1  and  C_3
REMARK    2  A    between atoms: C_5  and  O_6
REMARK    3  A    between atoms: C_5  and  C_8
REMARK    4  A    between atoms: C_9  and  C_10
REMARK    5  A    between atoms: C_13  and  C_14
REMARK    6  A    between atoms: C_17  and  O_20
REMARK    7  A    between atoms: C_19  and  O_22
REMARK                            x       y       z     vdW  Elec       q    Type
REMARK                         _______ _______ _______ _____ _____    ______ ____
ROOT
ATOM      1  C   UNL     1       5.559  -5.741  12.487  0.00  0.00    +0.000 C 
ATOM      2  C   UNL     1       5.020  -7.169  12.336  0.00  0.00    +0.000 C 
ENDROOT
BRANCH   2   3
ATOM      3  C   UNL     1       4.520  -8.495  12.199  0.00  0.00    +0.000 A 
ATOM      4  C   UNL     1       5.371  -9.581  12.400  0.00  0.00    +0.000 A 
ATOM      5  C   UNL     1       3.186  -8.703  11.863  0.00  0.00    +0.000 A 
ATOM      6  C   UNL     1       4.896 -10.889  12.268  0.00  0.00    +0.000 A 
ATOM      7  C   UNL     1       2.699 -10.001  11.729  0.00  0.00    +0.000 A 
ATOM      8  C   UNL     1       3.553 -11.084  11.930  0.00  0.00    +0.000 A 
BRANCH   6   9
ATOM      9  O   UNL     1       5.664 -12.014  12.448  0.00  0.00    +0.000 OA
ATOM     10  C   UNL     1       6.486 -12.365  11.367  0.00  0.00    +0.000 C 
ENDBRANCH   6   9
BRANCH   8  11
ATOM     11  O   UNL     1       3.069 -12.356  11.797  0.00  0.00    +0.000 OA
ATOM     12  H   UNL     1       2.971 -12.748  12.685  0.00  0.00    +0.000 HD
ENDBRANCH   8  11
ENDBRANCH   2   3
BRANCH   1  14
ATOM     13  O   UNL     1       6.231  -3.919  13.742  0.00  0.00    +0.000 OA
ATOM     14  C   UNL     1       6.066  -4.400  12.631  0.00  0.00    +0.000 C 
ATOM     15  C   UNL     1       6.373  -3.630  11.458  0.00  0.00    +0.000 C 
ATOM     16  C   UNL     1       6.674  -2.868  10.308  0.00  0.00    +0.000 C 
BRANCH  16  17
ATOM     17  O   UNL     1       6.722  -3.531   9.106  0.00  0.00    +0.000 OA
ATOM     18  H   UNL     1       6.230  -3.059   8.412  0.00  0.00    +0.000 HD
ENDBRANCH  16  17
BRANCH  16  19
ATOM     19  C   UNL     1       6.923  -1.474  10.333  0.00  0.00    +0.000 C 
ATOM     20  C   UNL     1       7.200   0.033  10.366  0.00  0.00    +0.000 C 
BRANCH  20  21
ATOM     21  C   UNL     1       7.481   1.538  10.405  0.00  0.00    +0.000 C 
ATOM     22  C   UNL     1       7.765   3.043  10.442  0.00  0.00    +0.000 C 
ATOM     23  C   UNL     1       8.054   4.547  10.477  0.00  0.00    +0.000 C 
ENDBRANCH  20  21
ENDBRANCH  16  19
ENDBRANCH   1  14
TORSDOF 7
ENDMDL
MODEL 2
REMARK VINA RESULT:      -5.2     15.238     16.195
REMARK  Name = 442793_6gingerol.pdbqt.pdb
REMARK  7 active torsions:
REMARK  status: ('A' for Active; 'I' for Inactive)
REMARK    1  A    between atoms: C_1  and  C_3
REMARK    2  A    between atoms: C_5  and  O_6
REMARK    3  A    between atoms: C_5  and  C_8
REMARK    4  A    between atoms: C_9  and  C_10
REMARK    5  A    between atoms: C_13  and  C_14
REMARK    6  A    between atoms: C_17  and  O_20
REMARK    7  A    between atoms: C_19  and  O_22
REMARK                            x       y       z     vdW  Elec       q    Type
REMARK                         _______ _______ _______ _____ _____    ______ ____
ROOT
ATOM      1  C   UNL     1      -5.237  -1.335  22.748  0.00  0.00    +0.000 C 
ATOM      2  C   UNL     1      -6.567  -1.827  22.164  0.00  0.00    +0.000 C 
ENDROOT
BRANCH   2   3
ATOM      3  C   UNL     1      -7.801  -2.286  21.621  0.00  0.00    +0.000 A 
ATOM      4  C   UNL     1      -7.947  -3.625  21.265  0.00  0.00    +0.000 A 
ATOM      5  C   UNL     1      -8.857  -1.396  21.448  0.00  0.00    +0.000 A 
ATOM      6  C   UNL     1      -9.151  -4.091  20.730  0.00  0.00    +0.000 A 
ATOM      7  C   UNL     1     -10.063  -1.846  20.916  0.00  0.00    +0.000 A 
ATOM      8  C   UNL     1     -10.204  -3.187  20.561  0.00  0.00    +0.000 A 
BRANCH   6   9
ATOM      9  O   UNL     1      -9.380  -5.391  20.352  0.00  0.00    +0.000 OA
ATOM     10  C   UNL     1      -8.579  -5.867  19.302  0.00  0.00    +0.000 C 
ENDBRANCH   6   9
BRANCH   8  11
ATOM     11  O   UNL     1     -11.391  -3.622  20.039  0.00  0.00    +0.000 OA
ATOM     12  H   UNL     1     -11.335  -3.592  19.066  0.00  0.00    +0.000 HD
ENDBRANCH   8  11
ENDBRANCH   2   3
BRANCH   1  14
ATOM     13  O   UNL     1      -3.676  -1.157  24.445  0.00  0.00    +0.000 OA
ATOM     14  C   UNL     1      -3.986  -0.876  23.297  0.00  0.00    +0.000 C 
ATOM     15  C   UNL     1      -3.106  -0.084  22.484  0.00  0.00    +0.000 C 
ATOM     16  C   UNL     1      -2.238   0.697  21.689  0.00  0.00    +0.000 C 
BRANCH  16  17
ATOM     17  O   UNL     1      -2.502   0.763  20.343  0.00  0.00    +0.000 OA
ATOM     18  H   UNL     1      -2.727   1.667  20.062  0.00  0.00    +0.000 HD
ENDBRANCH  16  17
BRANCH  16  19
ATOM     19  C   UNL     1      -1.127   1.407  22.206  0.00  0.00    +0.000 C 
ATOM     20  C   UNL     1       0.081   2.171  22.759  0.00  0.00    +0.000 C 
BRANCH  20  21
ATOM     21  C   UNL     1       1.292   2.931  23.307  0.00  0.00    +0.000 C 
ATOM     22  C   UNL     1       2.505   3.689  23.856  0.00  0.00    +0.000 C 
ATOM     23  C   UNL     1       3.722   4.443  24.401  0.00  0.00    +0.000 C 
ENDBRANCH  20  21
ENDBRANCH  16  19
ENDBRANCH   1  14
TORSDOF 7
ENDMDL
MODEL 3
REMARK VINA RESULT:      -5.2     17.454     18.237
REMARK  Name = 442793_6gingerol.pdbqt.pdb
REMARK  7 active torsions:
REMARK  status: ('A' for Active; 'I' for Inactive)
REMARK    1  A    between atoms: C_1  and  C_3
REMARK    2  A    between atoms: C_5  and  O_6
REMARK    3  A    between atoms: C_5  and  C_8
REMARK    4  A    between atoms: C_9  and  C_10
REMARK    5  A    between atoms: C_13  and  C_14
REMARK    6  A    between atoms: C_17  and  O_20
REMARK    7  A    between atoms: C_19  and  O_22
REMARK                            x       y       z     vdW  Elec       q    Type
REMARK                         _______ _______ _______ _____ _____    ______ ____
ROOT
ATOM      1  C   UNL     1      -9.581   1.507  19.999  0.00  0.00    +0.000 C 
ATOM      2  C   UNL     1      -9.491  -0.023  20.045  0.00  0.00    +0.000 C 
ENDROOT
BRANCH   2   3
ATOM      3  C   UNL     1      -9.407  -1.444  20.086  0.00  0.00    +0.000 A 
ATOM      4  C   UNL     1      -8.571  -2.063  21.014  0.00  0.00    +0.000 A 
ATOM      5  C   UNL     1     -10.159  -2.210  19.199  0.00  0.00    +0.000 A 
ATOM      6  C   UNL     1      -8.477  -3.457  21.065  0.00  0.00    +0.000 A 
ATOM      7  C   UNL     1     -10.075  -3.599  19.240  0.00  0.00    +0.000 A 
ATOM      8  C   UNL     1      -9.237  -4.215  20.169  0.00  0.00    +0.000 A 
BRANCH   6   9
ATOM      9  O   UNL     1      -7.679  -4.147  21.945  0.00  0.00    +0.000 OA
ATOM     10  C   UNL     1      -8.030  -4.032  23.299  0.00  0.00    +0.000 C 
ENDBRANCH   6   9
BRANCH   8  11
ATOM     11  O   UNL     1      -9.160  -5.579  20.203  0.00  0.00    +0.000 OA
ATOM     12  H   UNL     1      -8.612  -5.842  20.967  0.00  0.00    +0.000 HD
ENDBRANCH   8  11
ENDBRANCH   2   3
BRANCH   1  14
ATOM     13  O   UNL     1     -10.338   3.551  20.771  0.00  0.00    +0.000 OA
ATOM     14  C   UNL     1      -9.663   2.945  19.952  0.00  0.00    +0.000 C 
ATOM     15  C   UNL     1      -8.948   3.662  18.933  0.00  0.00    +0.000 C 
ATOM     16  C   UNL     1      -8.249   4.370  17.932  0.00  0.00    +0.000 C 
BRANCH  16  17
ATOM     17  O   UNL     1      -7.308   3.679  17.208  0.00  0.00    +0.000 OA
ATOM     18  H   UNL     1      -7.225   4.022  16.302  0.00  0.00    +0.000 HD
ENDBRANCH  16  17
BRANCH  16  19
ATOM     19  C   UNL     1      -8.469   5.739  17.641  0.00  0.00    +0.000 C 
ATOM     20  C   UNL     1      -8.702   7.218  17.317  0.00  0.00    +0.000 C 
BRANCH  20  21
ATOM     21  C   UNL     1      -8.932   8.697  16.988  0.00  0.00    +0.000 C 
ATOM     22  C   UNL     1      -9.163  10.175  16.658  0.00  0.00    +0.000 C 
ATOM     23  C   UNL     1      -9.400  11.651  16.325  0.00  0.00    +0.000 C 
ENDBRANCH  20  21
ENDBRANCH  16  19
ENDBRANCH   1  14
TORSDOF 7
ENDMDL
MODEL 4
REMARK VINA RESULT:      -5.0     26.937     30.251
REMARK  Name = 442793_6gingerol.pdbqt.pdb
REMARK  7 active torsions:
REMARK  status: ('A' for Active; 'I' for Inactive)
REMARK    1  A    between atoms: C_1  and  C_3
REMARK    2  A    between atoms: C_5  and  O_6
REMARK    3  A    between atoms: C_5  and  C_8
REMARK    4  A    between atoms: C_9  and  C_10
REMARK    5  A    between atoms: C_13  and  C_14
REMARK    6  A    between atoms: C_17  and  O_20
REMARK    7  A    between atoms: C_19  and  O_22
REMARK                            x       y       z     vdW  Elec       q    Type
REMARK                         _______ _______ _______ _____ _____    ______ ____
ROOT
ATOM      1  C   UNL     1     -23.580  -2.948  12.895  0.00  0.00    +0.000 C 
ATOM      2  C   UNL     1     -22.858  -1.859  12.091  0.00  0.00    +0.000 C 
ENDROOT
BRANCH   2   3
ATOM      3  C   UNL     1     -22.186  -0.849  11.345  0.00  0.00    +0.000 A 
ATOM      4  C   UNL     1     -21.440   0.123  12.009  0.00  0.00    +0.000 A 
ATOM      5  C   UNL     1     -22.275  -0.837   9.956  0.00  0.00    +0.000 A 
ATOM      6  C   UNL     1     -20.776   1.121  11.291  0.00  0.00    +0.000 A 
ATOM      7  C   UNL     1     -21.617   0.151   9.228  0.00  0.00    +0.000 A 
ATOM      8  C   UNL     1     -20.873   1.123   9.896  0.00  0.00    +0.000 A 
BRANCH   6   9
ATOM      9  O   UNL     1     -20.022   2.117  11.864  0.00  0.00    +0.000 OA
ATOM     10  C   UNL     1     -18.748   1.732  12.308  0.00  0.00    +0.000 C 
ENDBRANCH   6   9
BRANCH   8  11
ATOM     11  O   UNL     1     -20.230   2.090   9.175  0.00  0.00    +0.000 OA
ATOM     12  H   UNL     1     -19.898   1.694   8.348  0.00  0.00    +0.000 HD
ENDBRANCH   8  11
ENDBRANCH   2   3
BRANCH   1  14
ATOM     13  O   UNL     1     -25.435  -3.847  13.942  0.00  0.00    +0.000 OA
ATOM     14  C   UNL     1     -24.256  -3.973  13.649  0.00  0.00    +0.000 C 
ATOM     15  C   UNL     1     -23.531  -5.144  14.057  0.00  0.00    +0.000 C 
ATOM     16  C   UNL     1     -22.822  -6.296  14.463  0.00  0.00    +0.000 C 
BRANCH  16  17
ATOM     17  O   UNL     1     -21.591  -6.513  13.894  0.00  0.00    +0.000 OA
ATOM     18  H   UNL     1     -20.970  -6.924  14.521  0.00  0.00    +0.000 HD
ENDBRANCH  16  17
BRANCH  16  19
ATOM     19  C   UNL     1     -23.311  -7.223  15.415  0.00  0.00    +0.000 C 
ATOM     20  C   UNL     1     -23.846  -8.231  16.439  0.00  0.00    +0.000 C 
BRANCH  20  21
ATOM     21  C   UNL     1     -24.385  -9.239  17.457  0.00  0.00    +0.000 C 
ATOM     22  C   UNL     1     -24.925 -10.249  18.475  0.00  0.00    +0.000 C 
ATOM     23  C   UNL     1     -25.465 -11.264  19.488  0.00  0.00    +0.000 C 
ENDBRANCH  20  21
ENDBRANCH  16  19
ENDBRANCH   1  14
TORSDOF 7
ENDMDL
MODEL 5
REMARK VINA RESULT:      -4.9      8.460     14.298
REMARK  Name = 442793_6gingerol.pdbqt.pdb
REMARK  7 active torsions:
REMARK  status: ('A' for Active; 'I' for Inactive)
REMARK    1  A    between atoms: C_1  and  C_3
REMARK    2  A    between atoms: C_5  and  O_6
REMARK    3  A    between atoms: C_5  and  C_8
REMARK    4  A    between atoms: C_9  and  C_10
REMARK    5  A    between atoms: C_13  and  C_14
REMARK    6  A    between atoms: C_17  and  O_20
REMARK    7  A    between atoms: C_19  and  O_22
REMARK                            x       y       z     vdW  Elec       q    Type
REMARK                         _______ _______ _______ _____ _____    ______ ____
ROOT
ATOM      1  C   UNL     1       1.986 -13.624  17.809  0.00  0.00    +0.000 C 
ATOM      2  C   UNL     1       2.625 -13.506  16.420  0.00  0.00    +0.000 C 
ENDROOT
BRANCH   2   3
ATOM      3  C   UNL     1       3.220 -13.399  15.131  0.00  0.00    +0.000 A 
ATOM      4  C   UNL     1       4.104 -12.356  14.859  0.00  0.00    +0.000 A 
ATOM      5  C   UNL     1       2.918 -14.336  14.147  0.00  0.00    +0.000 A 
ATOM      6  C   UNL     1       4.695 -12.237  13.598  0.00  0.00    +0.000 A 
ATOM      7  C   UNL     1       3.501 -14.230  12.886  0.00  0.00    +0.000 A 
ATOM      8  C   UNL     1       4.383 -13.184  12.619  0.00  0.00    +0.000 A 
BRANCH   6   9
ATOM      9  O   UNL     1       5.574 -11.242  13.246  0.00  0.00    +0.000 OA
ATOM     10  C   UNL     1       5.173  -9.937  13.571  0.00  0.00    +0.000 C 
ENDBRANCH   6   9
BRANCH   8  11
ATOM     11  O   UNL     1       4.952 -13.086  11.379  0.00  0.00    +0.000 OA
ATOM     12  H   UNL     1       4.872 -13.948  10.929  0.00  0.00    +0.000 HD
ENDBRANCH   8  11
ENDBRANCH   2   3
BRANCH   1  14
ATOM     13  O   UNL     1       2.063 -13.577  20.120  0.00  0.00    +0.000 OA
ATOM     14  C   UNL     1       1.387 -13.737  19.115  0.00  0.00    +0.000 C 
ATOM     15  C   UNL     1      -0.013 -14.041  19.227  0.00  0.00    +0.000 C 
ATOM     16  C   UNL     1      -1.387 -14.342  19.342  0.00  0.00    +0.000 C 
BRANCH  16  17
ATOM     17  O   UNL     1      -2.151 -14.252  18.204  0.00  0.00    +0.000 OA
ATOM     18  H   UNL     1      -2.638 -13.411  18.160  0.00  0.00    +0.000 HD
ENDBRANCH  16  17
BRANCH  16  19
ATOM     19  C   UNL     1      -2.007 -14.728  20.556  0.00  0.00    +0.000 C 
ATOM     20  C   UNL     1      -2.669 -15.146  21.873  0.00  0.00    +0.000 C 
BRANCH  20  21
ATOM     21  C   UNL     1      -3.324 -15.565  23.192  0.00  0.00    +0.000 C 
ATOM     22  C   UNL     1      -3.978 -15.986  24.512  0.00  0.00    +0.000 C 
ATOM     23  C   UNL     1      -4.626 -16.411  25.834  0.00  0.00    +0.000 C 
ENDBRANCH  20  21
ENDBRANCH  16  19
ENDBRANCH   1  14
TORSDOF 7
ENDMDL
MODEL 6
REMARK VINA RESULT:      -4.8     11.389     14.998
REMARK  Name = 442793_6gingerol.pdbqt.pdb
REMARK  7 active torsions:
REMARK  status: ('A' for Active; 'I' for Inactive)
REMARK    1  A    between atoms: C_1  and  C_3
REMARK    2  A    between atoms: C_5  and  O_6
REMARK    3  A    between atoms: C_5  and  C_8
REMARK    4  A    between atoms: C_9  and  C_10
REMARK    5  A    between atoms: C_13  and  C_14
REMARK    6  A    between atoms: C_17  and  O_20
REMARK    7  A    between atoms: C_19  and  O_22
REMARK                            x       y       z     vdW  Elec       q    Type
REMARK                         _______ _______ _______ _____ _____    ______ ____
ROOT
ATOM      1  C   UNL     1      -2.937  -1.640   3.988  0.00  0.00    +0.000 C 
ATOM      2  C   UNL     1      -1.880  -0.935   4.848  0.00  0.00    +0.000 C 
ENDROOT
BRANCH   2   3
ATOM      3  C   UNL     1      -0.901  -0.279   5.646  0.00  0.00    +0.000 A 
ATOM      4  C   UNL     1       0.448  -0.595   5.489  0.00  0.00    +0.000 A 
ATOM      5  C   UNL     1      -1.293   0.676   6.580  0.00  0.00    +0.000 A 
ATOM      6  C   UNL     1       1.421   0.040   6.266  0.00  0.00    +0.000 A 
ATOM      7  C   UNL     1      -0.334   1.317   7.361  0.00  0.00    +0.000 A 
ATOM      8  C   UNL     1       1.014   0.997   7.201  0.00  0.00    +0.000 A 
BRANCH   6   9
ATOM      9  O   UNL     1       2.768  -0.211   6.177  0.00  0.00    +0.000 OA
ATOM     10  C   UNL     1       3.226  -0.623   4.917  0.00  0.00    +0.000 C 
ENDBRANCH   6   9
BRANCH   8  11
ATOM     11  O   UNL     1       1.950   1.630   7.971  0.00  0.00    +0.000 OA
ATOM     12  H   UNL     1       1.938   2.582   7.757  0.00  0.00    +0.000 HD
ENDBRANCH   8  11
ENDBRANCH   2   3
BRANCH   1  14
ATOM     13  O   UNL     1      -5.062  -1.843   3.099  0.00  0.00    +0.000 OA
ATOM     14  C   UNL     1      -3.932  -2.301   3.182  0.00  0.00    +0.000 C 
ATOM     15  C   UNL     1      -3.586  -3.504   2.478  0.00  0.00    +0.000 C 
ATOM     16  C   UNL     1      -3.252  -4.688   1.785  0.00  0.00    +0.000 C 
BRANCH  16  17
ATOM     17  O   UNL     1      -1.920  -5.014   1.697  0.00  0.00    +0.000 OA
ATOM     18  H   UNL     1      -1.370  -4.237   1.499  0.00  0.00    +0.000 HD
ENDBRANCH  16  17
BRANCH  16  19
ATOM     19  C   UNL     1      -4.209  -5.545   1.188  0.00  0.00    +0.000 C 
ATOM     20  C   UNL     1      -5.239  -6.479   0.544  0.00  0.00    +0.000 C 
BRANCH  20  21
ATOM     21  C   UNL     1      -6.264  -7.418  -0.099  0.00  0.00    +0.000 C 
ATOM     22  C   UNL     1      -7.289  -8.359  -0.741  0.00  0.00    +0.000 C 
ATOM     23  C   UNL     1      -8.311  -9.305  -1.378  0.00  0.00    +0.000 C 
ENDBRANCH  20  21
ENDBRANCH  16  19
ENDBRANCH   1  14
TORSDOF 7
ENDMDL
MODEL 7
REMARK VINA RESULT:      -4.8     11.617     15.351
REMARK  Name = 442793_6gingerol.pdbqt.pdb
REMARK  7 active torsions:
REMARK  status: ('A' for Active; 'I' for Inactive)
REMARK    1  A    between atoms: C_1  and  C_3
REMARK    2  A    between atoms: C_5  and  O_6
REMARK    3  A    between atoms: C_5  and  C_8
REMARK    4  A    between atoms: C_9  and  C_10
REMARK    5  A    between atoms: C_13  and  C_14
REMARK    6  A    between atoms: C_17  and  O_20
REMARK    7  A    between atoms: C_19  and  O_22
REMARK                            x       y       z     vdW  Elec       q    Type
REMARK                         _______ _______ _______ _____ _____    ______ ____
ROOT
ATOM      1  C   UNL     1      -2.989  -1.641   4.003  0.00  0.00    +0.000 C 
ATOM      2  C   UNL     1      -1.928  -0.933   4.856  0.00  0.00    +0.000 C 
ENDROOT
BRANCH   2   3
ATOM      3  C   UNL     1      -0.942  -0.277   5.646  0.00  0.00    +0.000 A 
ATOM      4  C   UNL     1      -1.333   0.610   6.648  0.00  0.00    +0.000 A 
ATOM      5  C   UNL     1       0.408  -0.524   5.416  0.00  0.00    +0.000 A 
ATOM      6  C   UNL     1      -0.377   1.262   7.431  0.00  0.00    +0.000 A 
ATOM      7  C   UNL     1       1.372   0.119   6.189  0.00  0.00    +0.000 A 
ATOM      8  C   UNL     1       0.976   1.006   7.190  0.00  0.00    +0.000 A 
BRANCH   6   9
ATOM      9  O   UNL     1      -0.674   2.150   8.436  0.00  0.00    +0.000 OA
ATOM     10  C   UNL     1      -1.640   3.118   8.123  0.00  0.00    +0.000 C 
ENDBRANCH   6   9
BRANCH   8  11
ATOM     11  O   UNL     1       1.927   1.634   7.945  0.00  0.00    +0.000 OA
ATOM     12  H   UNL     1       2.581   0.972   8.238  0.00  0.00    +0.000 HD
ENDBRANCH   8  11
ENDBRANCH   2   3
BRANCH   1  14
ATOM     13  O   UNL     1      -5.115  -1.857   3.121  0.00  0.00    +0.000 OA
ATOM     14  C   UNL     1      -3.983  -2.307   3.199  0.00  0.00    +0.000 C 
ATOM     15  C   UNL     1      -3.632  -3.508   2.493  0.00  0.00    +0.000 C 
ATOM     16  C   UNL     1      -3.293  -4.689   1.798  0.00  0.00    +0.000 C 
BRANCH  16  17
ATOM     17  O   UNL     1      -1.959  -5.007   1.705  0.00  0.00    +0.000 OA
ATOM     18  H   UNL     1      -1.475  -4.373   1.148  0.00  0.00    +0.000 HD
ENDBRANCH  16  17
BRANCH  16  19
ATOM     19  C   UNL     1      -4.247  -5.551   1.204  0.00  0.00    +0.000 C 
ATOM     20  C   UNL     1      -5.271  -6.489   0.556  0.00  0.00    +0.000 C 
BRANCH  20  21
ATOM     21  C   UNL     1      -6.291  -7.428  -0.094  0.00  0.00    +0.000 C 
ATOM     22  C   UNL     1      -7.312  -8.367  -0.746  0.00  0.00    +0.000 C 
ATOM     23  C   UNL     1      -8.335  -9.299  -1.402  0.00  0.00    +0.000 C 
ENDBRANCH  20  21
ENDBRANCH  16  19
ENDBRANCH   1  14
TORSDOF 7
ENDMDL
MODEL 8
REMARK VINA RESULT:      -4.7      3.537      4.105
REMARK  Name = 442793_6gingerol.pdbqt.pdb
REMARK  7 active torsions:
REMARK  status: ('A' for Active; 'I' for Inactive)
REMARK    1  A    between atoms: C_1  and  C_3
REMARK    2  A    between atoms: C_5  and  O_6
REMARK    3  A    between atoms: C_5  and  C_8
REMARK    4  A    between atoms: C_9  and  C_10
REMARK    5  A    between atoms: C_13  and  C_14
REMARK    6  A    between atoms: C_17  and  O_20
REMARK    7  A    between atoms: C_19  and  O_22
REMARK                            x       y       z     vdW  Elec       q    Type
REMARK                         _______ _______ _______ _____ _____    ______ ____
ROOT
ATOM      1  C   UNL     1       5.843  -5.698  13.179  0.00  0.00    +0.000 C 
ATOM      2  C   UNL     1       5.172  -7.023  12.793  0.00  0.00    +0.000 C 
ENDROOT
BRANCH   2   3
ATOM      3  C   UNL     1       4.551  -8.253  12.437  0.00  0.00    +0.000 A 
ATOM      4  C   UNL     1       5.302  -9.427  12.411  0.00  0.00    +0.000 A 
ATOM      5  C   UNL     1       3.197  -8.280  12.116  0.00  0.00    +0.000 A 
ATOM      6  C   UNL     1       4.707 -10.643  12.062  0.00  0.00    +0.000 A 
ATOM      7  C   UNL     1       2.591  -9.485  11.767  0.00  0.00    +0.000 A 
ATOM      8  C   UNL     1       3.346 -10.656  11.742  0.00  0.00    +0.000 A 
BRANCH   6   9
ATOM      9  O   UNL     1       5.372 -11.844  12.010  0.00  0.00    +0.000 OA
ATOM     10  C   UNL     1       6.611 -11.823  11.351  0.00  0.00    +0.000 C 
ENDBRANCH   6   9
BRANCH   8  11
ATOM     11  O   UNL     1       2.745 -11.836  11.399  0.00  0.00    +0.000 OA
ATOM     12  H   UNL     1       3.334 -12.321  10.791  0.00  0.00    +0.000 HD
ENDBRANCH   8  11
ENDBRANCH   2   3
BRANCH   1  14
ATOM     13  O   UNL     1       7.529  -4.123  13.024  0.00  0.00    +0.000 OA
ATOM     14  C   UNL     1       6.475  -4.455  13.544  0.00  0.00    +0.000 C 
ATOM     15  C   UNL     1       5.856  -3.610  14.526  0.00  0.00    +0.000 C 
ATOM     16  C   UNL     1       5.253  -2.776  15.493  0.00  0.00    +0.000 C 
BRANCH  16  17
ATOM     17  O   UNL     1       3.957  -3.058  15.850  0.00  0.00    +0.000 OA
ATOM     18  H   UNL     1       3.790  -2.863  16.789  0.00  0.00    +0.000 HD
ENDBRANCH  16  17
BRANCH  16  19
ATOM     19  C   UNL     1       5.911  -1.681  16.105  0.00  0.00    +0.000 C 
ATOM     20  C   UNL     1       6.628  -0.495  16.759  0.00  0.00    +0.000 C 
BRANCH  20  21
ATOM     21  C   UNL     1       7.350   0.690  17.408  0.00  0.00    +0.000 C 
ATOM     22  C   UNL     1       8.072   1.874  18.059  0.00  0.00    +0.000 C 
ATOM     23  C   UNL     1       8.799   3.053  18.713  0.00  0.00    +0.000 C 
ENDBRANCH  20  21
ENDBRANCH  16  19
ENDBRANCH   1  14
TORSDOF 7
ENDMDL
MODEL 9
REMARK VINA RESULT:      -4.6     20.259     22.526
REMARK  Name = 442793_6gingerol.pdbqt.pdb
REMARK  7 active torsions:
REMARK  status: ('A' for Active; 'I' for Inactive)
REMARK    1  A    between atoms: C_1  and  C_3
REMARK    2  A    between atoms: C_5  and  O_6
REMARK    3  A    between atoms: C_5  and  C_8
REMARK    4  A    between atoms: C_9  and  C_10
REMARK    5  A    between atoms: C_13  and  C_14
REMARK    6  A    between atoms: C_17  and  O_20
REMARK    7  A    between atoms: C_19  and  O_22
REMARK                            x       y       z     vdW  Elec       q    Type
REMARK                         _______ _______ _______ _____ _____    ______ ____
ROOT
ATOM      1  C   UNL     1     -10.575   5.665   6.220  0.00  0.00    +0.000 C 
ATOM      2  C   UNL     1      -9.176   5.609   6.846  0.00  0.00    +0.000 C 
ENDROOT
BRANCH   2   3
ATOM      3  C   UNL     1      -7.877   5.555   7.426  0.00  0.00    +0.000 A 
ATOM      4  C   UNL     1      -7.664   6.079   8.700  0.00  0.00    +0.000 A 
ATOM      5  C   UNL     1      -6.825   4.979   6.719  0.00  0.00    +0.000 A 
ATOM      6  C   UNL     1      -6.394   6.034   9.282  0.00  0.00    +0.000 A 
ATOM      7  C   UNL     1      -5.554   4.927   7.287  0.00  0.00    +0.000 A 
ATOM      8  C   UNL     1      -5.345   5.453   8.562  0.00  0.00    +0.000 A 
BRANCH   6   9
ATOM      9  O   UNL     1      -6.096   6.526  10.529  0.00  0.00    +0.000 OA
ATOM     10  C   UNL     1      -6.075   7.925  10.639  0.00  0.00    +0.000 C 
ENDBRANCH   6   9
BRANCH   8  11
ATOM     11  O   UNL     1      -4.095   5.399   9.114  0.00  0.00    +0.000 OA
ATOM     12  H   UNL     1      -3.577   4.717   8.647  0.00  0.00    +0.000 HD
ENDBRANCH   8  11
ENDBRANCH   2   3
BRANCH   1  14
ATOM     13  O   UNL     1     -12.150   5.039   4.647  0.00  0.00    +0.000 OA
ATOM     14  C   UNL     1     -11.890   5.714   5.630  0.00  0.00    +0.000 C 
ATOM     15  C   UNL     1     -12.891   6.567   6.207  0.00  0.00    +0.000 C 
ATOM     16  C   UNL     1     -13.879   7.406   6.769  0.00  0.00    +0.000 C 
BRANCH  16  17
ATOM     17  O   UNL     1     -13.625   7.936   8.011  0.00  0.00    +0.000 OA
ATOM     18  H   UNL     1     -12.730   8.315   8.067  0.00  0.00    +0.000 HD
ENDBRANCH  16  17
BRANCH  16  19
ATOM     19  C   UNL     1     -15.099   7.723   6.124  0.00  0.00    +0.000 C 
ATOM     20  C   UNL     1     -16.418   8.075   5.429  0.00  0.00    +0.000 C 
BRANCH  20  21
ATOM     21  C   UNL     1     -17.737   8.433   4.738  0.00  0.00    +0.000 C 
ATOM     22  C   UNL     1     -19.057   8.789   4.045  0.00  0.00    +0.000 C 
ATOM     23  C   UNL     1     -20.375   9.140   3.348  0.00  0.00    +0.000 C 
ENDBRANCH  20  21
ENDBRANCH  16  19
ENDBRANCH   1  14
TORSDOF 7
ENDMDL
