MODEL 1
REMARK VINA RESULT:      -7.2      0.000      0.000
REMARK  Name = 44423609_SipholenoneA.pdbqt.pdb
REMARK  4 active torsions:
REMARK  status: ('A' for Active; 'I' for Inactive)
REMARK    1  A    between atoms: C_3  and  C_19
REMARK    2  A    between atoms: C_5  and  O_17
REMARK    3  A    between atoms: C_20  and  C_24
REMARK    4  A    between atoms: C_25  and  O_35
REMARK                            x       y       z     vdW  Elec       q    Type
REMARK                         _______ _______ _______ _____ _____    ______ ____
ROOT
ATOM      1  O   UNL     1      -5.207   4.469  22.363  0.00  0.00    +0.000 OA
ATOM      2  O   UNL     1      -2.138   2.410  22.173  0.00  0.00    +0.000 OA
ATOM      3  C   UNL     1      -8.105   2.200  20.925  0.00  0.00    +0.000 C 
ATOM      4  C   UNL     1      -7.019   2.661  21.896  0.00  0.00    +0.000 C 
ATOM      5  C   UNL     1      -8.995   3.221  20.236  0.00  0.00    +0.000 C 
ATOM      6  C   UNL     1      -6.331   4.064  21.634  0.00  0.00    +0.000 C 
ATOM      7  C   UNL     1      -8.389   4.533  20.361  0.00  0.00    +0.000 C 
ATOM      8  C   UNL     1      -7.131   5.029  20.990  0.00  0.00    +0.000 C 
ATOM      9  C   UNL     1      -5.853   1.763  21.834  0.00  0.00    +0.000 C 
ATOM     10  C   UNL     1      -7.588   2.673  23.342  0.00  0.00    +0.000 C 
ATOM     11  C   UNL     1      -9.225   2.845  18.768  0.00  0.00    +0.000 C 
ATOM     12  C   UNL     1      -4.342   1.805  21.905  0.00  0.00    +0.000 C 
ATOM     13  C   UNL     1      -3.864   4.280  21.805  0.00  0.00    +0.000 C 
ATOM     14  C   UNL     1      -3.290   2.790  22.003  0.00  0.00    +0.000 C 
ATOM     15  C   UNL     1      -2.966   5.305  22.571  0.00  0.00    +0.000 C 
ATOM     16  C   UNL     1      -3.850   4.636  20.272  0.00  0.00    +0.000 C 
ENDROOT
BRANCH   5  17
ATOM     17  O   UNL     1     -10.265   3.224  20.837  0.00  0.00    +0.000 OA
ATOM     18  H   UNL     1     -10.812   3.592  20.119  0.00  0.00    +0.000 HD
ENDBRANCH   5  17
BRANCH   3  19
ATOM     19  C   UNL     1      -8.449   0.803  20.866  0.00  0.00    +0.000 C 
ATOM     20  C   UNL     1      -8.803  -0.685  20.802  0.00  0.00    +0.000 C 
BRANCH  20  24
ATOM     21  C   UNL     1      -9.626  -3.590  22.817  0.00  0.00    +0.000 C 
ATOM     22  C   UNL     1      -8.599  -3.106  21.763  0.00  0.00    +0.000 C 
ATOM     23  C   UNL     1     -10.872  -4.388  22.529  0.00  0.00    +0.000 C 
ATOM     24  C   UNL     1      -9.131  -2.080  20.732  0.00  0.00    +0.000 C 
ATOM     25  C   UNL     1     -11.635  -4.735  23.808  0.00  0.00    +0.000 C 
ATOM     26  C   UNL     1      -9.561  -3.436  24.231  0.00  0.00    +0.000 C 
ATOM     27  C   UNL     1     -10.761  -4.134  24.808  0.00  0.00    +0.000 C 
ATOM     28  C   UNL     1     -11.398  -4.223  21.231  0.00  0.00    +0.000 C 
ATOM     29  C   UNL     1     -10.074  -2.512  19.699  0.00  0.00    +0.000 C 
ATOM     30  C   UNL     1      -7.380  -2.467  22.533  0.00  0.00    +0.000 C 
ATOM     31  C   UNL     1      -8.027  -4.359  21.018  0.00  0.00    +0.000 C 
ATOM     32  C   UNL     1     -10.965  -3.381  20.060  0.00  0.00    +0.000 C 
ATOM     33  C   UNL     1     -11.879  -6.228  23.941  0.00  0.00    +0.000 C 
ATOM     34  C   UNL     1     -10.352  -1.736  18.438  0.00  0.00    +0.000 C 
BRANCH  25  35
ATOM     35  O   UNL     1     -12.894  -4.107  23.816  0.00  0.00    +0.000 OA
ATOM     36  H   UNL     1     -12.787  -3.480  23.079  0.00  0.00    +0.000 HD
ENDBRANCH  25  35
ENDBRANCH  20  24
ENDBRANCH   3  19
TORSDOF 4
ENDMDL
MODEL 2
REMARK VINA RESULT:      -6.8      2.791      8.815
REMARK  Name = 44423609_SipholenoneA.pdbqt.pdb
REMARK  4 active torsions:
REMARK  status: ('A' for Active; 'I' for Inactive)
REMARK    1  A    between atoms: C_3  and  C_19
REMARK    2  A    between atoms: C_5  and  O_17
REMARK    3  A    between atoms: C_20  and  C_24
REMARK    4  A    between atoms: C_25  and  O_35
REMARK                            x       y       z     vdW  Elec       q    Type
REMARK                         _______ _______ _______ _____ _____    ______ ____
ROOT
ATOM      1  O   UNL     1     -12.231  -2.105  24.639  0.00  0.00    +0.000 OA
ATOM      2  O   UNL     1     -13.587   1.020  26.083  0.00  0.00    +0.000 OA
ATOM      3  C   UNL     1      -9.526  -0.970  21.991  0.00  0.00    +0.000 C 
ATOM      4  C   UNL     1     -10.160  -1.177  23.366  0.00  0.00    +0.000 C 
ATOM      5  C   UNL     1      -9.663  -2.038  20.919  0.00  0.00    +0.000 C 
ATOM      6  C   UNL     1     -11.494  -2.028  23.452  0.00  0.00    +0.000 C 
ATOM      7  C   UNL     1     -10.724  -2.952  21.299  0.00  0.00    +0.000 C 
ATOM      8  C   UNL     1     -11.650  -3.023  22.466  0.00  0.00    +0.000 C 
ATOM      9  C   UNL     1     -10.612   0.107  23.928  0.00  0.00    +0.000 C 
ATOM     10  C   UNL     1      -9.120  -1.824  24.324  0.00  0.00    +0.000 C 
ATOM     11  C   UNL     1      -9.927  -1.407  19.548  0.00  0.00    +0.000 C 
ATOM     12  C   UNL     1     -11.740   0.688  24.753  0.00  0.00    +0.000 C 
ATOM     13  C   UNL     1     -13.385  -1.222  24.843  0.00  0.00    +0.000 C 
ATOM     14  C   UNL     1     -12.984   0.253  25.344  0.00  0.00    +0.000 C 
ATOM     15  C   UNL     1     -14.248  -1.940  25.931  0.00  0.00    +0.000 C 
ATOM     16  C   UNL     1     -14.228  -1.104  23.519  0.00  0.00    +0.000 C 
ENDROOT
BRANCH   5  17
ATOM     17  O   UNL     1      -8.452  -2.741  20.794  0.00  0.00    +0.000 OA
ATOM     18  H   UNL     1      -7.875  -2.055  20.412  0.00  0.00    +0.000 HD
ENDBRANCH   5  17
BRANCH   3  19
ATOM     19  C   UNL     1      -8.590   0.109  21.803  0.00  0.00    +0.000 C 
ATOM     20  C   UNL     1      -7.605   1.263  21.599  0.00  0.00    +0.000 C 
BRANCH  20  24
ATOM     21  C   UNL     1      -4.077   2.109  21.515  0.00  0.00    +0.000 C 
ATOM     22  C   UNL     1      -5.392   2.496  22.236  0.00  0.00    +0.000 C 
ATOM     23  C   UNL     1      -3.490   2.813  20.318  0.00  0.00    +0.000 C 
ATOM     24  C   UNL     1      -6.684   2.345  21.397  0.00  0.00    +0.000 C 
ATOM     25  C   UNL     1      -2.158   2.195  19.889  0.00  0.00    +0.000 C 
ATOM     26  C   UNL     1      -3.156   1.083  21.874  0.00  0.00    +0.000 C 
ATOM     27  C   UNL     1      -2.013   1.155  20.901  0.00  0.00    +0.000 C 
ATOM     28  C   UNL     1      -4.426   3.487  19.507  0.00  0.00    +0.000 C 
ATOM     29  C   UNL     1      -6.948   3.272  20.295  0.00  0.00    +0.000 C 
ATOM     30  C   UNL     1      -5.517   1.600  23.528  0.00  0.00    +0.000 C 
ATOM     31  C   UNL     1      -5.261   3.971  22.747  0.00  0.00    +0.000 C 
ATOM     32  C   UNL     1      -5.922   3.636  19.591  0.00  0.00    +0.000 C 
ATOM     33  C   UNL     1      -1.045   3.226  19.823  0.00  0.00    +0.000 C 
ATOM     34  C   UNL     1      -8.306   3.477  19.676  0.00  0.00    +0.000 C 
BRANCH  25  35
ATOM     35  O   UNL     1      -2.271   1.622  18.609  0.00  0.00    +0.000 OA
ATOM     36  H   UNL     1      -1.460   1.958  18.189  0.00  0.00    +0.000 HD
ENDBRANCH  25  35
ENDBRANCH  20  24
ENDBRANCH   3  19
TORSDOF 4
ENDMDL
MODEL 3
REMARK VINA RESULT:      -6.5     17.752     20.110
REMARK  Name = 44423609_SipholenoneA.pdbqt.pdb
REMARK  4 active torsions:
REMARK  status: ('A' for Active; 'I' for Inactive)
REMARK    1  A    between atoms: C_3  and  C_19
REMARK    2  A    between atoms: C_5  and  O_17
REMARK    3  A    between atoms: C_20  and  C_24
REMARK    4  A    between atoms: C_25  and  O_35
REMARK                            x       y       z     vdW  Elec       q    Type
REMARK                         _______ _______ _______ _____ _____    ______ ____
ROOT
ATOM      1  O   UNL     1     -22.904   3.819   9.267  0.00  0.00    +0.000 OA
ATOM      2  O   UNL     1     -24.273   4.032   5.835  0.00  0.00    +0.000 OA
ATOM      3  C   UNL     1     -22.657  -0.041  10.078  0.00  0.00    +0.000 C 
ATOM      4  C   UNL     1     -22.331   1.284   9.389  0.00  0.00    +0.000 C 
ATOM      5  C   UNL     1     -22.959  -0.072  11.566  0.00  0.00    +0.000 C 
ATOM      6  C   UNL     1     -23.005   2.603   9.952  0.00  0.00    +0.000 C 
ATOM      7  C   UNL     1     -23.244   1.277  12.017  0.00  0.00    +0.000 C 
ATOM      8  C   UNL     1     -23.302   2.599  11.329  0.00  0.00    +0.000 C 
ATOM      9  C   UNL     1     -22.829   1.285   8.004  0.00  0.00    +0.000 C 
ATOM     10  C   UNL     1     -20.791   1.501   9.386  0.00  0.00    +0.000 C 
ATOM     11  C   UNL     1     -24.121  -1.025  11.869  0.00  0.00    +0.000 C 
ATOM     12  C   UNL     1     -23.456   2.218   6.989  0.00  0.00    +0.000 C 
ATOM     13  C   UNL     1     -23.990   4.252   8.380  0.00  0.00    +0.000 C 
ATOM     14  C   UNL     1     -23.936   3.578   6.921  0.00  0.00    +0.000 C 
ATOM     15  C   UNL     1     -23.813   5.801   8.261  0.00  0.00    +0.000 C 
ATOM     16  C   UNL     1     -25.389   3.948   9.035  0.00  0.00    +0.000 C 
ENDROOT
BRANCH   5  17
ATOM     17  O   UNL     1     -21.851  -0.582  12.264  0.00  0.00    +0.000 OA
ATOM     18  H   UNL     1     -22.119  -1.511  12.391  0.00  0.00    +0.000 HD
ENDBRANCH   5  17
BRANCH   3  19
ATOM     19  C   UNL     1     -22.423  -1.276   9.374  0.00  0.00    +0.000 C 
ATOM     20  C   UNL     1     -22.183  -2.594   8.633  0.00  0.00    +0.000 C 
BRANCH  20  24
ATOM     21  C   UNL     1     -22.292  -6.201   9.022  0.00  0.00    +0.000 C 
ATOM     22  C   UNL     1     -21.316  -5.058   8.647  0.00  0.00    +0.000 C 
ATOM     23  C   UNL     1     -23.069  -7.049   8.048  0.00  0.00    +0.000 C 
ATOM     24  C   UNL     1     -21.956  -3.834   7.948  0.00  0.00    +0.000 C 
ATOM     25  C   UNL     1     -23.904  -8.115   8.759  0.00  0.00    +0.000 C 
ATOM     26  C   UNL     1     -22.586  -6.704  10.322  0.00  0.00    +0.000 C 
ATOM     27  C   UNL     1     -23.541  -7.852  10.146  0.00  0.00    +0.000 C 
ATOM     28  C   UNL     1     -23.334  -6.436   6.805  0.00  0.00    +0.000 C 
ATOM     29  C   UNL     1     -22.437  -3.953   6.570  0.00  0.00    +0.000 C 
ATOM     30  C   UNL     1     -20.606  -4.575   9.970  0.00  0.00    +0.000 C 
ATOM     31  C   UNL     1     -20.183  -5.652   7.743  0.00  0.00    +0.000 C 
ATOM     32  C   UNL     1     -23.003  -5.075   6.253  0.00  0.00    +0.000 C 
ATOM     33  C   UNL     1     -23.607  -9.512   8.242  0.00  0.00    +0.000 C 
ATOM     34  C   UNL     1     -22.708  -2.776   5.670  0.00  0.00    +0.000 C 
BRANCH  25  35
ATOM     35  O   UNL     1     -25.276  -7.881   8.559  0.00  0.00    +0.000 OA
ATOM     36  H   UNL     1     -25.282  -7.632   7.618  0.00  0.00    +0.000 HD
ENDBRANCH  25  35
ENDBRANCH  20  24
ENDBRANCH   3  19
TORSDOF 4
ENDMDL
MODEL 4
REMARK VINA RESULT:      -5.9     17.721     21.716
REMARK  Name = 44423609_SipholenoneA.pdbqt.pdb
REMARK  4 active torsions:
REMARK  status: ('A' for Active; 'I' for Inactive)
REMARK    1  A    between atoms: C_3  and  C_19
REMARK    2  A    between atoms: C_5  and  O_17
REMARK    3  A    between atoms: C_20  and  C_24
REMARK    4  A    between atoms: C_25  and  O_35
REMARK                            x       y       z     vdW  Elec       q    Type
REMARK                         _______ _______ _______ _____ _____    ______ ____
ROOT
ATOM      1  O   UNL     1     -15.411   9.365   6.188  0.00  0.00    +0.000 OA
ATOM      2  O   UNL     1     -17.605  10.193   3.325  0.00  0.00    +0.000 OA
ATOM      3  C   UNL     1     -12.587   7.021   4.724  0.00  0.00    +0.000 C 
ATOM      4  C   UNL     1     -13.389   8.303   4.941  0.00  0.00    +0.000 C 
ATOM      5  C   UNL     1     -12.318   6.083   5.888  0.00  0.00    +0.000 C 
ATOM      6  C   UNL     1     -14.514   8.298   6.057  0.00  0.00    +0.000 C 
ATOM      7  C   UNL     1     -13.217   6.414   6.977  0.00  0.00    +0.000 C 
ATOM      8  C   UNL     1     -14.294   7.433   7.146  0.00  0.00    +0.000 C 
ATOM      9  C   UNL     1     -14.184   8.627   3.745  0.00  0.00    +0.000 C 
ATOM     10  C   UNL     1     -12.417   9.476   5.251  0.00  0.00    +0.000 C 
ATOM     11  C   UNL     1     -12.468   4.619   5.459  0.00  0.00    +0.000 C 
ATOM     12  C   UNL     1     -15.531   9.199   3.357  0.00  0.00    +0.000 C 
ATOM     13  C   UNL     1     -16.739   9.287   5.569  0.00  0.00    +0.000 C 
ATOM     14  C   UNL     1     -16.740   9.652   4.003  0.00  0.00    +0.000 C 
ATOM     15  C   UNL     1     -17.608  10.318   6.360  0.00  0.00    +0.000 C 
ATOM     16  C   UNL     1     -17.351   7.850   5.762  0.00  0.00    +0.000 C 
ENDROOT
BRANCH   5  17
ATOM     17  O   UNL     1     -10.985   6.224   6.312  0.00  0.00    +0.000 OA
ATOM     18  H   UNL     1     -11.076   6.076   7.271  0.00  0.00    +0.000 HD
ENDBRANCH   5  17
BRANCH   3  19
ATOM     19  C   UNL     1     -11.875   6.838   3.485  0.00  0.00    +0.000 C 
ATOM     20  C   UNL     1     -11.118   6.656   2.167  0.00  0.00    +0.000 C 
BRANCH  20  24
ATOM     21  C   UNL     1      -9.470   4.205   0.057  0.00  0.00    +0.000 C 
ATOM     22  C   UNL     1      -9.199   5.544   0.786  0.00  0.00    +0.000 C 
ATOM     23  C   UNL     1      -9.866   4.056  -1.390  0.00  0.00    +0.000 C 
ATOM     24  C   UNL     1     -10.418   6.489   0.926  0.00  0.00    +0.000 C 
ATOM     25  C   UNL     1     -10.009   2.588  -1.793  0.00  0.00    +0.000 C 
ATOM     26  C   UNL     1      -9.336   2.886   0.578  0.00  0.00    +0.000 C 
ATOM     27  C   UNL     1      -9.651   1.934  -0.541  0.00  0.00    +0.000 C 
ATOM     28  C   UNL     1     -10.533   5.169  -1.942  0.00  0.00    +0.000 C 
ATOM     29  C   UNL     1     -10.945   7.173  -0.256  0.00  0.00    +0.000 C 
ATOM     30  C   UNL     1      -8.648   5.208   2.226  0.00  0.00    +0.000 C 
ATOM     31  C   UNL     1      -8.036   6.286   0.044  0.00  0.00    +0.000 C 
ATOM     32  C   UNL     1     -10.950   6.494  -1.360  0.00  0.00    +0.000 C 
ATOM     33  C   UNL     1      -9.154   2.240  -2.999  0.00  0.00    +0.000 C 
ATOM     34  C   UNL     1     -11.842   8.382  -0.197  0.00  0.00    +0.000 C 
BRANCH  25  35
ATOM     35  O   UNL     1     -11.343   2.299  -2.134  0.00  0.00    +0.000 OA
ATOM     36  H   UNL     1     -11.313   1.327  -2.176  0.00  0.00    +0.000 HD
ENDBRANCH  25  35
ENDBRANCH  20  24
ENDBRANCH   3  19
TORSDOF 4
ENDMDL
MODEL 5
REMARK VINA RESULT:      -5.8     17.259     21.242
REMARK  Name = 44423609_SipholenoneA.pdbqt.pdb
REMARK  4 active torsions:
REMARK  status: ('A' for Active; 'I' for Inactive)
REMARK    1  A    between atoms: C_3  and  C_19
REMARK    2  A    between atoms: C_5  and  O_17
REMARK    3  A    between atoms: C_20  and  C_24
REMARK    4  A    between atoms: C_25  and  O_35
REMARK                            x       y       z     vdW  Elec       q    Type
REMARK                         _______ _______ _______ _____ _____    ______ ____
ROOT
ATOM      1  O   UNL     1       1.242 -17.319  19.175  0.00  0.00    +0.000 OA
ATOM      2  O   UNL     1       0.420 -13.984  20.550  0.00  0.00    +0.000 OA
ATOM      3  C   UNL     1       2.948 -16.640  15.676  0.00  0.00    +0.000 C 
ATOM      4  C   UNL     1       2.791 -16.645  17.196  0.00  0.00    +0.000 C 
ATOM      5  C   UNL     1       2.474 -17.828  14.855  0.00  0.00    +0.000 C 
ATOM      6  C   UNL     1       1.557 -17.423  17.815  0.00  0.00    +0.000 C 
ATOM      7  C   UNL     1       1.594 -18.641  15.672  0.00  0.00    +0.000 C 
ATOM      8  C   UNL     1       1.092 -18.526  17.072  0.00  0.00    +0.000 C 
ATOM      9  C   UNL     1       2.542 -15.283  17.697  0.00  0.00    +0.000 C 
ATOM     10  C   UNL     1       4.085 -17.210  17.848  0.00  0.00    +0.000 C 
ATOM     11  C   UNL     1       1.782 -17.364  13.569  0.00  0.00    +0.000 C 
ATOM     12  C   UNL     1       1.740 -14.557  18.755  0.00  0.00    +0.000 C 
ATOM     13  C   UNL     1       0.215 -16.371  19.619  0.00  0.00    +0.000 C 
ATOM     14  C   UNL     1       0.754 -14.862  19.765  0.00  0.00    +0.000 C 
ATOM     15  C   UNL     1      -0.251 -16.910  21.010  0.00  0.00    +0.000 C 
ATOM     16  C   UNL     1      -1.010 -16.385  18.630  0.00  0.00    +0.000 C 
ENDROOT
BRANCH   5  17
ATOM     17  O   UNL     1       3.580 -18.590  14.444  0.00  0.00    +0.000 OA
ATOM     18  H   UNL     1       3.512 -19.358  15.039  0.00  0.00    +0.000 HD
ENDBRANCH   5  17
BRANCH   3  19
ATOM     19  C   UNL     1       3.772 -15.633  15.057  0.00  0.00    +0.000 C 
ATOM     20  C   UNL     1       4.647 -14.570  14.390  0.00  0.00    +0.000 C 
BRANCH  20  24
ATOM     21  C   UNL     1       4.567 -11.429  12.571  0.00  0.00    +0.000 C 
ATOM     22  C   UNL     1       5.074 -12.887  12.437  0.00  0.00    +0.000 C 
ATOM     23  C   UNL     1       5.384 -10.254  13.044  0.00  0.00    +0.000 C 
ATOM     24  C   UNL     1       5.476 -13.580  13.762  0.00  0.00    +0.000 C 
ATOM     25  C   UNL     1       4.582  -8.952  13.011  0.00  0.00    +0.000 C 
ATOM     26  C   UNL     1       3.286 -10.917  12.219  0.00  0.00    +0.000 C 
ATOM     27  C   UNL     1       3.315  -9.437  12.478  0.00  0.00    +0.000 C 
ATOM     28  C   UNL     1       6.459 -10.581  13.897  0.00  0.00    +0.000 C 
ATOM     29  C   UNL     1       6.691 -13.160  14.462  0.00  0.00    +0.000 C 
ATOM     30  C   UNL     1       3.937 -13.733  11.745  0.00  0.00    +0.000 C 
ATOM     31  C   UNL     1       6.285 -12.901  11.444  0.00  0.00    +0.000 C 
ATOM     32  C   UNL     1       6.953 -11.891  14.451  0.00  0.00    +0.000 C 
ATOM     33  C   UNL     1       5.280  -7.871  12.203  0.00  0.00    +0.000 C 
ATOM     34  C   UNL     1       7.385 -13.989  15.512  0.00  0.00    +0.000 C 
BRANCH  25  35
ATOM     35  O   UNL     1       4.406  -8.449  14.313  0.00  0.00    +0.000 OA
ATOM     36  H   UNL     1       4.062  -9.238  14.767  0.00  0.00    +0.000 HD
ENDBRANCH  25  35
ENDBRANCH  20  24
ENDBRANCH   3  19
TORSDOF 4
ENDMDL
MODEL 6
REMARK VINA RESULT:      -5.7      3.181      9.207
REMARK  Name = 44423609_SipholenoneA.pdbqt.pdb
REMARK  4 active torsions:
REMARK  status: ('A' for Active; 'I' for Inactive)
REMARK    1  A    between atoms: C_3  and  C_19
REMARK    2  A    between atoms: C_5  and  O_17
REMARK    3  A    between atoms: C_20  and  C_24
REMARK    4  A    between atoms: C_25  and  O_35
REMARK                            x       y       z     vdW  Elec       q    Type
REMARK                         _______ _______ _______ _____ _____    ______ ____
ROOT
ATOM      1  O   UNL     1     -12.097  -1.458  24.605  0.00  0.00    +0.000 OA
ATOM      2  O   UNL     1     -14.260   1.481  25.221  0.00  0.00    +0.000 OA
ATOM      3  C   UNL     1      -9.880  -0.513  21.474  0.00  0.00    +0.000 C 
ATOM      4  C   UNL     1     -10.402  -0.450  22.909  0.00  0.00    +0.000 C 
ATOM      5  C   UNL     1      -9.727  -1.855  20.777  0.00  0.00    +0.000 C 
ATOM      6  C   UNL     1     -11.436  -1.556  23.376  0.00  0.00    +0.000 C 
ATOM      7  C   UNL     1     -10.476  -2.855  21.513  0.00  0.00    +0.000 C 
ATOM      8  C   UNL     1     -11.322  -2.809  22.741  0.00  0.00    +0.000 C 
ATOM      9  C   UNL     1     -11.190   0.776  23.120  0.00  0.00    +0.000 C 
ATOM     10  C   UNL     1      -9.203  -0.472  23.898  0.00  0.00    +0.000 C 
ATOM     11  C   UNL     1     -10.186  -1.768  19.317  0.00  0.00    +0.000 C 
ATOM     12  C   UNL     1     -12.421   1.260  23.857  0.00  0.00    +0.000 C 
ATOM     13  C   UNL     1     -13.451  -0.895  24.666  0.00  0.00    +0.000 C 
ATOM     14  C   UNL     1     -13.477   0.713  24.675  0.00  0.00    +0.000 C 
ATOM     15  C   UNL     1     -14.052  -1.448  25.999  0.00  0.00    +0.000 C 
ATOM     16  C   UNL     1     -14.318  -1.417  23.461  0.00  0.00    +0.000 C 
ENDROOT
BRANCH   5  17
ATOM     17  O   UNL     1      -8.369  -2.214  20.733  0.00  0.00    +0.000 OA
ATOM     18  H   UNL     1      -8.357  -2.810  19.962  0.00  0.00    +0.000 HD
ENDBRANCH   5  17
BRANCH   3  19
ATOM     19  C   UNL     1      -9.294   0.664  20.886  0.00  0.00    +0.000 C 
ATOM     20  C   UNL     1      -8.679   1.913  20.250  0.00  0.00    +0.000 C 
BRANCH  20  24
ATOM     21  C   UNL     1      -9.461   4.909  18.356  0.00  0.00    +0.000 C 
ATOM     22  C   UNL     1      -8.587   3.633  18.286  0.00  0.00    +0.000 C 
ATOM     23  C   UNL     1      -9.007   6.260  18.846  0.00  0.00    +0.000 C 
ATOM     24  C   UNL     1      -8.100   3.079  19.647  0.00  0.00    +0.000 C 
ATOM     25  C   UNL     1     -10.116   7.309  18.738  0.00  0.00    +0.000 C 
ATOM     26  C   UNL     1     -10.809   5.067  17.922  0.00  0.00    +0.000 C 
ATOM     27  C   UNL     1     -11.179   6.507  18.146  0.00  0.00    +0.000 C 
ATOM     28  C   UNL     1      -7.937   6.231  19.765  0.00  0.00    +0.000 C 
ATOM     29  C   UNL     1      -7.078   3.806  20.402  0.00  0.00    +0.000 C 
ATOM     30  C   UNL     1      -9.423   2.514  17.551  0.00  0.00    +0.000 C 
ATOM     31  C   UNL     1      -7.357   3.926  17.361  0.00  0.00    +0.000 C 
ATOM     32  C   UNL     1      -7.154   5.100  20.376  0.00  0.00    +0.000 C 
ATOM     33  C   UNL     1      -9.675   8.527  17.944  0.00  0.00    +0.000 C 
ATOM     34  C   UNL     1      -6.258   3.195  21.509  0.00  0.00    +0.000 C 
BRANCH  25  35
ATOM     35  O   UNL     1     -10.493   7.759  20.015  0.00  0.00    +0.000 OA
ATOM     36  H   UNL     1     -11.374   7.355  20.097  0.00  0.00    +0.000 HD
ENDBRANCH  25  35
ENDBRANCH  20  24
ENDBRANCH   3  19
TORSDOF 4
ENDMDL
MODEL 7
REMARK VINA RESULT:      -5.7     17.290     20.681
REMARK  Name = 44423609_SipholenoneA.pdbqt.pdb
REMARK  4 active torsions:
REMARK  status: ('A' for Active; 'I' for Inactive)
REMARK    1  A    between atoms: C_3  and  C_19
REMARK    2  A    between atoms: C_5  and  O_17
REMARK    3  A    between atoms: C_20  and  C_24
REMARK    4  A    between atoms: C_25  and  O_35
REMARK                            x       y       z     vdW  Elec       q    Type
REMARK                         _______ _______ _______ _____ _____    ______ ____
ROOT
ATOM      1  O   UNL     1       2.215 -13.334  21.546  0.00  0.00    +0.000 OA
ATOM      2  O   UNL     1       3.193 -10.264  19.726  0.00  0.00    +0.000 OA
ATOM      3  C   UNL     1       1.549 -16.058  18.762  0.00  0.00    +0.000 C 
ATOM      4  C   UNL     1       2.350 -15.085  19.626  0.00  0.00    +0.000 C 
ATOM      5  C   UNL     1       0.417 -16.867  19.374  0.00  0.00    +0.000 C 
ATOM      6  C   UNL     1       1.607 -14.371  20.830  0.00  0.00    +0.000 C 
ATOM      7  C   UNL     1       0.054 -16.278  20.648  0.00  0.00    +0.000 C 
ATOM      8  C   UNL     1       0.548 -15.095  21.413  0.00  0.00    +0.000 C 
ATOM      9  C   UNL     1       2.779 -13.920  18.833  0.00  0.00    +0.000 C 
ATOM     10  C   UNL     1       3.599 -15.809  20.200  0.00  0.00    +0.000 C 
ATOM     11  C   UNL     1      -0.783 -16.935  18.423  0.00  0.00    +0.000 C 
ATOM     12  C   UNL     1       2.977 -12.425  18.968  0.00  0.00    +0.000 C 
ATOM     13  C   UNL     1       1.921 -11.938  21.206  0.00  0.00    +0.000 C 
ATOM     14  C   UNL     1       2.768 -11.390  19.953  0.00  0.00    +0.000 C 
ATOM     15  C   UNL     1       2.286 -11.128  22.493  0.00  0.00    +0.000 C 
ATOM     16  C   UNL     1       0.386 -11.756  20.907  0.00  0.00    +0.000 C 
ENDROOT
BRANCH   5  17
ATOM     17  O   UNL     1       0.833 -18.195  19.565  0.00  0.00    +0.000 OA
ATOM     18  H   UNL     1       0.030 -18.683  19.307  0.00  0.00    +0.000 HD
ENDBRANCH   5  17
BRANCH   3  19
ATOM     19  C   UNL     1       2.033 -16.395  17.448  0.00  0.00    +0.000 C 
ATOM     20  C   UNL     1       2.556 -16.762  16.057  0.00  0.00    +0.000 C 
BRANCH  20  24
ATOM     21  C   UNL     1       2.776 -19.454  13.633  0.00  0.00    +0.000 C 
ATOM     22  C   UNL     1       3.673 -18.487  14.445  0.00  0.00    +0.000 C 
ATOM     23  C   UNL     1       2.313 -19.242  12.214  0.00  0.00    +0.000 C 
ATOM     24  C   UNL     1       3.055 -17.102  14.755  0.00  0.00    +0.000 C 
ATOM     25  C   UNL     1       1.477 -20.417  11.706  0.00  0.00    +0.000 C 
ATOM     26  C   UNL     1       2.283 -20.729  14.034  0.00  0.00    +0.000 C 
ATOM     27  C   UNL     1       1.519 -21.294  12.869  0.00  0.00    +0.000 C 
ATOM     28  C   UNL     1       2.239 -17.893  11.808  0.00  0.00    +0.000 C 
ATOM     29  C   UNL     1       2.880 -16.127  13.677  0.00  0.00    +0.000 C 
ATOM     30  C   UNL     1       4.041 -19.196  15.805  0.00  0.00    +0.000 C 
ATOM     31  C   UNL     1       5.026 -18.304  13.677  0.00  0.00    +0.000 C 
ATOM     32  C   UNL     1       2.520 -16.600  12.526  0.00  0.00    +0.000 C 
ATOM     33  C   UNL     1       2.027 -20.993  10.412  0.00  0.00    +0.000 C 
ATOM     34  C   UNL     1       2.668 -14.653  13.905  0.00  0.00    +0.000 C 
BRANCH  25  35
ATOM     35  O   UNL     1       0.156 -20.006  11.448  0.00  0.00    +0.000 OA
ATOM     36  H   UNL     1      -0.061 -19.562  12.286  0.00  0.00    +0.000 HD
ENDBRANCH  25  35
ENDBRANCH  20  24
ENDBRANCH   3  19
TORSDOF 4
ENDMDL
MODEL 8
REMARK VINA RESULT:      -5.6      3.765      5.450
REMARK  Name = 44423609_SipholenoneA.pdbqt.pdb
REMARK  4 active torsions:
REMARK  status: ('A' for Active; 'I' for Inactive)
REMARK    1  A    between atoms: C_3  and  C_19
REMARK    2  A    between atoms: C_5  and  O_17
REMARK    3  A    between atoms: C_20  and  C_24
REMARK    4  A    between atoms: C_25  and  O_35
REMARK                            x       y       z     vdW  Elec       q    Type
REMARK                         _______ _______ _______ _____ _____    ______ ____
ROOT
ATOM      1  O   UNL     1      -1.887   0.105  26.761  0.00  0.00    +0.000 OA
ATOM      2  O   UNL     1      -3.230  -2.785  28.643  0.00  0.00    +0.000 OA
ATOM      3  C   UNL     1      -3.911   0.202  23.369  0.00  0.00    +0.000 C 
ATOM      4  C   UNL     1      -3.666   0.307  24.874  0.00  0.00    +0.000 C 
ATOM      5  C   UNL     1      -2.864   0.705  22.389  0.00  0.00    +0.000 C 
ATOM      6  C   UNL     1      -2.173   0.205  25.395  0.00  0.00    +0.000 C 
ATOM      7  C   UNL     1      -1.607   0.878  23.092  0.00  0.00    +0.000 C 
ATOM      8  C   UNL     1      -1.180   0.658  24.504  0.00  0.00    +0.000 C 
ATOM      9  C   UNL     1      -4.287  -0.826  25.581  0.00  0.00    +0.000 C 
ATOM     10  C   UNL     1      -4.265   1.640  25.405  0.00  0.00    +0.000 C 
ATOM     11  C   UNL     1      -2.719  -0.255  21.203  0.00  0.00    +0.000 C 
ATOM     12  C   UNL     1      -4.036  -1.749  26.754  0.00  0.00    +0.000 C 
ATOM     13  C   UNL     1      -1.649  -1.211  27.366  0.00  0.00    +0.000 C 
ATOM     14  C   UNL     1      -3.000  -2.005  27.727  0.00  0.00    +0.000 C 
ATOM     15  C   UNL     1      -0.841  -0.910  28.670  0.00  0.00    +0.000 C 
ATOM     16  C   UNL     1      -0.768  -2.103  26.414  0.00  0.00    +0.000 C 
ENDROOT
BRANCH   5  17
ATOM     17  O   UNL     1      -3.277   1.932  21.843  0.00  0.00    +0.000 OA
ATOM     18  H   UNL     1      -2.896   2.561  22.482  0.00  0.00    +0.000 HD
ENDBRANCH   5  17
BRANCH   3  19
ATOM     19  C   UNL     1      -5.229  -0.129  22.892  0.00  0.00    +0.000 C 
ATOM     20  C   UNL     1      -6.625  -0.487  22.375  0.00  0.00    +0.000 C 
BRANCH  20  24
ATOM     21  C   UNL     1      -9.480  -2.662  22.915  0.00  0.00    +0.000 C 
ATOM     22  C   UNL     1      -8.448  -2.275  21.826  0.00  0.00    +0.000 C 
ATOM     23  C   UNL     1     -10.863  -2.082  23.062  0.00  0.00    +0.000 C 
ATOM     24  C   UNL     1      -7.931  -0.817  21.882  0.00  0.00    +0.000 C 
ATOM     25  C   UNL     1     -11.631  -2.724  24.218  0.00  0.00    +0.000 C 
ATOM     26  C   UNL     1      -9.351  -3.663  23.920  0.00  0.00    +0.000 C 
ATOM     27  C   UNL     1     -10.647  -3.694  24.682  0.00  0.00    +0.000 C 
ATOM     28  C   UNL     1     -11.020  -0.780  22.542  0.00  0.00    +0.000 C 
ATOM     29  C   UNL     1      -8.822   0.284  21.511  0.00  0.00    +0.000 C 
ATOM     30  C   UNL     1      -7.220  -3.256  21.953  0.00  0.00    +0.000 C 
ATOM     31  C   UNL     1      -9.080  -2.560  20.421  0.00  0.00    +0.000 C 
ATOM     32  C   UNL     1     -10.062   0.168  21.872  0.00  0.00    +0.000 C 
ATOM     33  C   UNL     1     -12.969  -3.288  23.772  0.00  0.00    +0.000 C 
ATOM     34  C   UNL     1      -8.344   1.667  21.152  0.00  0.00    +0.000 C 
BRANCH  25  35
ATOM     35  O   UNL     1     -11.894  -1.774  25.222  0.00  0.00    +0.000 OA
ATOM     36  H   UNL     1     -11.713  -2.300  26.020  0.00  0.00    +0.000 HD
ENDBRANCH  25  35
ENDBRANCH  20  24
ENDBRANCH   3  19
TORSDOF 4
ENDMDL
MODEL 9
REMARK VINA RESULT:      -5.6     16.982     20.511
REMARK  Name = 44423609_SipholenoneA.pdbqt.pdb
REMARK  4 active torsions:
REMARK  status: ('A' for Active; 'I' for Inactive)
REMARK    1  A    between atoms: C_3  and  C_19
REMARK    2  A    between atoms: C_5  and  O_17
REMARK    3  A    between atoms: C_20  and  C_24
REMARK    4  A    between atoms: C_25  and  O_35
REMARK                            x       y       z     vdW  Elec       q    Type
REMARK                         _______ _______ _______ _____ _____    ______ ____
ROOT
ATOM      1  O   UNL     1       2.012 -13.009  21.704  0.00  0.00    +0.000 OA
ATOM      2  O   UNL     1       3.478 -10.491  19.424  0.00  0.00    +0.000 OA
ATOM      3  C   UNL     1       0.681 -15.911  19.375  0.00  0.00    +0.000 C 
ATOM      4  C   UNL     1       1.701 -15.006  20.065  0.00  0.00    +0.000 C 
ATOM      5  C   UNL     1      -0.554 -16.379  20.125  0.00  0.00    +0.000 C 
ATOM      6  C   UNL     1       1.175 -13.993  21.165  0.00  0.00    +0.000 C 
ATOM      7  C   UNL     1      -0.728 -15.554  21.305  0.00  0.00    +0.000 C 
ATOM      8  C   UNL     1       0.027 -14.399  21.872  0.00  0.00    +0.000 C 
ATOM      9  C   UNL     1       2.309 -14.076  19.098  0.00  0.00    +0.000 C 
ATOM     10  C   UNL     1       2.812 -15.878  20.714  0.00  0.00    +0.000 C 
ATOM     11  C   UNL     1      -1.792 -16.338  19.222  0.00  0.00    +0.000 C 
ATOM     12  C   UNL     1       2.803 -12.649  19.002  0.00  0.00    +0.000 C 
ATOM     13  C   UNL     1       1.981 -11.645  21.165  0.00  0.00    +0.000 C 
ATOM     14  C   UNL     1       2.853 -11.464  19.826  0.00  0.00    +0.000 C 
ATOM     15  C   UNL     1       2.563 -10.752  22.308  0.00  0.00    +0.000 C 
ATOM     16  C   UNL     1       0.498 -11.202  20.877  0.00  0.00    +0.000 C 
ENDROOT
BRANCH   5  17
ATOM     17  O   UNL     1      -0.397 -17.723  20.503  0.00  0.00    +0.000 OA
ATOM     18  H   UNL     1       0.550 -17.861  20.321  0.00  0.00    +0.000 HD
ENDBRANCH   5  17
BRANCH   3  19
ATOM     19  C   UNL     1       1.022 -16.522  18.115  0.00  0.00    +0.000 C 
ATOM     20  C   UNL     1       1.395 -17.167  16.778  0.00  0.00    +0.000 C 
BRANCH  20  24
ATOM     21  C   UNL     1       4.105 -17.551  14.394  0.00  0.00    +0.000 C 
ATOM     22  C   UNL     1       2.646 -17.039  14.488  0.00  0.00    +0.000 C 
ATOM     23  C   UNL     1       4.527 -18.923  13.935  0.00  0.00    +0.000 C 
ATOM     24  C   UNL     1       1.748 -17.762  15.522  0.00  0.00    +0.000 C 
ATOM     25  C   UNL     1       6.049 -19.077  13.923  0.00  0.00    +0.000 C 
ATOM     26  C   UNL     1       5.302 -16.823  14.651  0.00  0.00    +0.000 C 
ATOM     27  C   UNL     1       6.452 -17.744  14.354  0.00  0.00    +0.000 C 
ATOM     28  C   UNL     1       3.562 -19.935  14.119  0.00  0.00    +0.000 C 
ATOM     29  C   UNL     1       1.311 -19.136  15.267  0.00  0.00    +0.000 C 
ATOM     30  C   UNL     1       2.694 -15.503  14.844  0.00  0.00    +0.000 C 
ATOM     31  C   UNL     1       1.996 -17.130  13.066  0.00  0.00    +0.000 C 
ATOM     32  C   UNL     1       2.175 -19.921  14.705  0.00  0.00    +0.000 C 
ATOM     33  C   UNL     1       6.566 -19.527  12.567  0.00  0.00    +0.000 C 
ATOM     34  C   UNL     1       0.153 -19.794  15.973  0.00  0.00    +0.000 C 
BRANCH  25  35
ATOM     35  O   UNL     1       6.454 -20.041  14.863  0.00  0.00    +0.000 OA
ATOM     36  H   UNL     1       6.936 -19.482  15.498  0.00  0.00    +0.000 HD
ENDBRANCH  25  35
ENDBRANCH  20  24
ENDBRANCH   3  19
TORSDOF 4
ENDMDL
