MODEL 1
REMARK VINA RESULT:      -5.6      0.000      0.000
REMARK  Name = 445154_Resveratrol.pdbqt.pdb
REMARK  5 active torsions:
REMARK  status: ('A' for Active; 'I' for Inactive)
REMARK    1  A    between atoms: C_1  and  C_11
REMARK    2  A    between atoms: C_4  and  O_7
REMARK    3  A    between atoms: C_5  and  O_9
REMARK    4  A    between atoms: C_12  and  C_13
REMARK    5  A    between atoms: C_18  and  O_19
REMARK                            x       y       z     vdW  Elec       q    Type
REMARK                         _______ _______ _______ _____ _____    ______ ____
ROOT
ATOM      1  C   UNL     1     -12.058  -2.994  22.743  0.00  0.00    +0.000 A 
ATOM      2  C   UNL     1     -12.007  -1.635  23.051  0.00  0.00    +0.000 A 
ATOM      3  C   UNL     1     -12.840  -3.858  23.509  0.00  0.00    +0.000 A 
ATOM      4  C   UNL     1     -13.569  -3.352  24.582  0.00  0.00    +0.000 A 
ATOM      5  C   UNL     1     -12.743  -1.150  24.127  0.00  0.00    +0.000 A 
ATOM      6  C   UNL     1     -13.529  -1.999  24.900  0.00  0.00    +0.000 A 
ENDROOT
BRANCH   4   7
ATOM      7  O   UNL     1     -14.344  -4.175  25.348  0.00  0.00    +0.000 OA
ATOM      8  H   UNL     1     -15.199  -4.292  24.898  0.00  0.00    +0.000 HD
ENDBRANCH   4   7
BRANCH   5   9
ATOM      9  O   UNL     1     -12.678   0.184  24.409  0.00  0.00    +0.000 OA
ATOM     10  H   UNL     1     -13.003   0.315  25.318  0.00  0.00    +0.000 HD
ENDBRANCH   5   9
BRANCH   1  11
ATOM     11  C   UNL     1     -11.307  -3.504  21.643  0.00  0.00    +0.000 C 
ATOM     12  C   UNL     1     -10.676  -3.934  20.716  0.00  0.00    +0.000 C 
BRANCH  12  13
ATOM     13  C   UNL     1      -9.925  -4.443  19.615  0.00  0.00    +0.000 A 
ATOM     14  C   UNL     1      -8.919  -5.383  19.836  0.00  0.00    +0.000 A 
ATOM     15  C   UNL     1     -10.200  -4.000  18.321  0.00  0.00    +0.000 A 
ATOM     16  C   UNL     1      -8.185  -5.882  18.763  0.00  0.00    +0.000 A 
ATOM     17  C   UNL     1      -9.468  -4.496  17.246  0.00  0.00    +0.000 A 
ATOM     18  C   UNL     1      -8.466  -5.433  17.476  0.00  0.00    +0.000 A 
BRANCH  18  19
ATOM     19  O   UNL     1      -7.763  -5.905  16.406  0.00  0.00    +0.000 OA
ATOM     20  H   UNL     1      -8.306  -6.574  15.954  0.00  0.00    +0.000 HD
ENDBRANCH  18  19
ENDBRANCH  12  13
ENDBRANCH   1  11
TORSDOF 5
ENDMDL
MODEL 2
REMARK VINA RESULT:      -5.4      2.194      2.970
REMARK  Name = 445154_Resveratrol.pdbqt.pdb
REMARK  5 active torsions:
REMARK  status: ('A' for Active; 'I' for Inactive)
REMARK    1  A    between atoms: C_1  and  C_11
REMARK    2  A    between atoms: C_4  and  O_7
REMARK    3  A    between atoms: C_5  and  O_9
REMARK    4  A    between atoms: C_12  and  C_13
REMARK    5  A    between atoms: C_18  and  O_19
REMARK                            x       y       z     vdW  Elec       q    Type
REMARK                         _______ _______ _______ _____ _____    ______ ____
ROOT
ATOM      1  C   UNL     1     -11.064  -5.200  23.338  0.00  0.00    +0.000 A 
ATOM      2  C   UNL     1     -12.435  -4.989  23.483  0.00  0.00    +0.000 A 
ATOM      3  C   UNL     1     -10.260  -5.392  24.461  0.00  0.00    +0.000 A 
ATOM      4  C   UNL     1     -10.838  -5.372  25.728  0.00  0.00    +0.000 A 
ATOM      5  C   UNL     1     -12.992  -4.972  24.758  0.00  0.00    +0.000 A 
ATOM      6  C   UNL     1     -12.204  -5.163  25.888  0.00  0.00    +0.000 A 
ENDROOT
BRANCH   4   7
ATOM      7  O   UNL     1     -10.076  -5.557  26.844  0.00  0.00    +0.000 OA
ATOM      8  H   UNL     1     -10.495  -5.078  27.581  0.00  0.00    +0.000 HD
ENDBRANCH   4   7
BRANCH   5   9
ATOM      9  O   UNL     1     -14.336  -4.763  24.876  0.00  0.00    +0.000 OA
ATOM     10  H   UNL     1     -14.782  -5.279  24.181  0.00  0.00    +0.000 HD
ENDBRANCH   5   9
BRANCH   1  11
ATOM     11  C   UNL     1     -10.481  -5.219  22.036  0.00  0.00    +0.000 C 
ATOM     12  C   UNL     1      -9.989  -5.235  20.940  0.00  0.00    +0.000 C 
BRANCH  12  13
ATOM     13  C   UNL     1      -9.405  -5.255  19.640  0.00  0.00    +0.000 A 
ATOM     14  C   UNL     1      -9.915  -4.431  18.637  0.00  0.00    +0.000 A 
ATOM     15  C   UNL     1      -8.327  -6.098  19.373  0.00  0.00    +0.000 A 
ATOM     16  C   UNL     1      -9.347  -4.448  17.366  0.00  0.00    +0.000 A 
ATOM     17  C   UNL     1      -7.756  -6.119  18.104  0.00  0.00    +0.000 A 
ATOM     18  C   UNL     1      -8.271  -5.294  17.110  0.00  0.00    +0.000 A 
BRANCH  18  19
ATOM     19  O   UNL     1      -7.695  -5.331  15.873  0.00  0.00    +0.000 OA
ATOM     20  H   UNL     1      -6.733  -5.424  15.988  0.00  0.00    +0.000 HD
ENDBRANCH  18  19
ENDBRANCH  12  13
ENDBRANCH   1  11
TORSDOF 5
ENDMDL
MODEL 3
REMARK VINA RESULT:      -5.3     18.869     19.993
REMARK  Name = 445154_Resveratrol.pdbqt.pdb
REMARK  5 active torsions:
REMARK  status: ('A' for Active; 'I' for Inactive)
REMARK    1  A    between atoms: C_1  and  C_11
REMARK    2  A    between atoms: C_4  and  O_7
REMARK    3  A    between atoms: C_5  and  O_9
REMARK    4  A    between atoms: C_12  and  C_13
REMARK    5  A    between atoms: C_18  and  O_19
REMARK                            x       y       z     vdW  Elec       q    Type
REMARK                         _______ _______ _______ _____ _____    ______ ____
ROOT
ATOM      1  C   UNL     1       2.656 -15.250  13.469  0.00  0.00    +0.000 A 
ATOM      2  C   UNL     1       2.245 -16.052  12.405  0.00  0.00    +0.000 A 
ATOM      3  C   UNL     1       2.703 -15.769  14.762  0.00  0.00    +0.000 A 
ATOM      4  C   UNL     1       2.337 -17.094  14.982  0.00  0.00    +0.000 A 
ATOM      5  C   UNL     1       1.883 -17.374  12.646  0.00  0.00    +0.000 A 
ATOM      6  C   UNL     1       1.925 -17.907  13.930  0.00  0.00    +0.000 A 
ENDROOT
BRANCH   4   7
ATOM      7  O   UNL     1       2.373 -17.629  16.237  0.00  0.00    +0.000 OA
ATOM      8  H   UNL     1       3.306 -17.739  16.493  0.00  0.00    +0.000 HD
ENDBRANCH   4   7
BRANCH   5   9
ATOM      9  O   UNL     1       1.484 -18.141  11.589  0.00  0.00    +0.000 OA
ATOM     10  H   UNL     1       2.266 -18.322  11.037  0.00  0.00    +0.000 HD
ENDBRANCH   5   9
BRANCH   1  11
ATOM     11  C   UNL     1       3.029 -13.893  13.235  0.00  0.00    +0.000 C 
ATOM     12  C   UNL     1       3.343 -12.751  13.038  0.00  0.00    +0.000 C 
BRANCH  12  13
ATOM     13  C   UNL     1       3.715 -11.394  12.804  0.00  0.00    +0.000 A 
ATOM     14  C   UNL     1       3.083 -10.664  11.797  0.00  0.00    +0.000 A 
ATOM     15  C   UNL     1       4.710 -10.801  13.581  0.00  0.00    +0.000 A 
ATOM     16  C   UNL     1       3.444  -9.340  11.567  0.00  0.00    +0.000 A 
ATOM     17  C   UNL     1       5.074  -9.477  13.354  0.00  0.00    +0.000 A 
ATOM     18  C   UNL     1       4.439  -8.757  12.348  0.00  0.00    +0.000 A 
BRANCH  18  19
ATOM     19  O   UNL     1       4.813  -7.460  12.143  0.00  0.00    +0.000 OA
ATOM     20  H   UNL     1       4.805  -7.288  11.186  0.00  0.00    +0.000 HD
ENDBRANCH  18  19
ENDBRANCH  12  13
ENDBRANCH   1  11
TORSDOF 5
ENDMDL
MODEL 4
REMARK VINA RESULT:      -5.3     18.868     19.998
REMARK  Name = 445154_Resveratrol.pdbqt.pdb
REMARK  5 active torsions:
REMARK  status: ('A' for Active; 'I' for Inactive)
REMARK    1  A    between atoms: C_1  and  C_11
REMARK    2  A    between atoms: C_4  and  O_7
REMARK    3  A    between atoms: C_5  and  O_9
REMARK    4  A    between atoms: C_12  and  C_13
REMARK    5  A    between atoms: C_18  and  O_19
REMARK                            x       y       z     vdW  Elec       q    Type
REMARK                         _______ _______ _______ _____ _____    ______ ____
ROOT
ATOM      1  C   UNL     1       2.659 -15.242  13.460  0.00  0.00    +0.000 A 
ATOM      2  C   UNL     1       2.705 -15.769  14.750  0.00  0.00    +0.000 A 
ATOM      3  C   UNL     1       2.249 -16.037  12.390  0.00  0.00    +0.000 A 
ATOM      4  C   UNL     1       1.885 -17.361  12.622  0.00  0.00    +0.000 A 
ATOM      5  C   UNL     1       2.338 -17.094  14.960  0.00  0.00    +0.000 A 
ATOM      6  C   UNL     1       1.926 -17.901  13.904  0.00  0.00    +0.000 A 
ENDROOT
BRANCH   4   7
ATOM      7  O   UNL     1       1.479 -18.163  11.595  0.00  0.00    +0.000 OA
ATOM      8  H   UNL     1       0.530 -18.349  11.712  0.00  0.00    +0.000 HD
ENDBRANCH   4   7
BRANCH   5   9
ATOM      9  O   UNL     1       2.390 -17.589  16.231  0.00  0.00    +0.000 OA
ATOM     10  H   UNL     1       1.556 -18.061  16.405  0.00  0.00    +0.000 HD
ENDBRANCH   5   9
BRANCH   1  11
ATOM     11  C   UNL     1       3.034 -13.885  13.231  0.00  0.00    +0.000 C 
ATOM     12  C   UNL     1       3.350 -12.742  13.038  0.00  0.00    +0.000 C 
BRANCH  12  13
ATOM     13  C   UNL     1       3.725 -11.385  12.809  0.00  0.00    +0.000 A 
ATOM     14  C   UNL     1       3.093 -10.650  11.807  0.00  0.00    +0.000 A 
ATOM     15  C   UNL     1       4.723 -10.798  13.586  0.00  0.00    +0.000 A 
ATOM     16  C   UNL     1       3.457  -9.325  11.581  0.00  0.00    +0.000 A 
ATOM     17  C   UNL     1       5.091  -9.474  13.364  0.00  0.00    +0.000 A 
ATOM     18  C   UNL     1       4.455  -8.748  12.362  0.00  0.00    +0.000 A 
BRANCH  18  19
ATOM     19  O   UNL     1       4.832  -7.452  12.162  0.00  0.00    +0.000 OA
ATOM     20  H   UNL     1       4.079  -6.971  11.775  0.00  0.00    +0.000 HD
ENDBRANCH  18  19
ENDBRANCH  12  13
ENDBRANCH   1  11
TORSDOF 5
ENDMDL
MODEL 5
REMARK VINA RESULT:      -5.3      5.175      7.571
REMARK  Name = 445154_Resveratrol.pdbqt.pdb
REMARK  5 active torsions:
REMARK  status: ('A' for Active; 'I' for Inactive)
REMARK    1  A    between atoms: C_1  and  C_11
REMARK    2  A    between atoms: C_4  and  O_7
REMARK    3  A    between atoms: C_5  and  O_9
REMARK    4  A    between atoms: C_12  and  C_13
REMARK    5  A    between atoms: C_18  and  O_19
REMARK                            x       y       z     vdW  Elec       q    Type
REMARK                         _______ _______ _______ _____ _____    ______ ____
ROOT
ATOM      1  C   UNL     1      -8.834  -1.729  20.824  0.00  0.00    +0.000 A 
ATOM      2  C   UNL     1      -8.138  -2.138  21.961  0.00  0.00    +0.000 A 
ATOM      3  C   UNL     1      -9.275  -2.670  19.895  0.00  0.00    +0.000 A 
ATOM      4  C   UNL     1      -9.015  -4.021  20.112  0.00  0.00    +0.000 A 
ATOM      5  C   UNL     1      -7.888  -3.493  22.159  0.00  0.00    +0.000 A 
ATOM      6  C   UNL     1      -8.323  -4.444  21.242  0.00  0.00    +0.000 A 
ENDROOT
BRANCH   4   7
ATOM      7  O   UNL     1      -9.436  -4.964  19.220  0.00  0.00    +0.000 OA
ATOM      8  H   UNL     1     -10.374  -4.797  19.021  0.00  0.00    +0.000 HD
ENDBRANCH   4   7
BRANCH   5   9
ATOM      9  O   UNL     1      -7.205  -3.870  23.280  0.00  0.00    +0.000 OA
ATOM     10  H   UNL     1      -6.275  -3.603  23.169  0.00  0.00    +0.000 HD
ENDBRANCH   5   9
BRANCH   1  11
ATOM     11  C   UNL     1      -9.095  -0.344  20.609  0.00  0.00    +0.000 C 
ATOM     12  C   UNL     1      -9.314   0.823  20.427  0.00  0.00    +0.000 C 
BRANCH  12  13
ATOM     13  C   UNL     1      -9.576   2.208  20.211  0.00  0.00    +0.000 A 
ATOM     14  C   UNL     1      -9.351   2.770  18.954  0.00  0.00    +0.000 A 
ATOM     15  C   UNL     1     -10.055   2.998  21.256  0.00  0.00    +0.000 A 
ATOM     16  C   UNL     1      -9.606   4.122  18.741  0.00  0.00    +0.000 A 
ATOM     17  C   UNL     1     -10.311   4.350  21.047  0.00  0.00    +0.000 A 
ATOM     18  C   UNL     1     -10.084   4.902  19.790  0.00  0.00    +0.000 A 
BRANCH  18  19
ATOM     19  O   UNL     1     -10.342   6.229  19.609  0.00  0.00    +0.000 OA
ATOM     20  H   UNL     1     -10.823   6.556  20.389  0.00  0.00    +0.000 HD
ENDBRANCH  18  19
ENDBRANCH  12  13
ENDBRANCH   1  11
TORSDOF 5
ENDMDL
MODEL 6
REMARK VINA RESULT:      -5.1     18.486     20.552
REMARK  Name = 445154_Resveratrol.pdbqt.pdb
REMARK  5 active torsions:
REMARK  status: ('A' for Active; 'I' for Inactive)
REMARK    1  A    between atoms: C_1  and  C_11
REMARK    2  A    between atoms: C_4  and  O_7
REMARK    3  A    between atoms: C_5  and  O_9
REMARK    4  A    between atoms: C_12  and  C_13
REMARK    5  A    between atoms: C_18  and  O_19
REMARK                            x       y       z     vdW  Elec       q    Type
REMARK                         _______ _______ _______ _____ _____    ______ ____
ROOT
ATOM      1  C   UNL     1       3.983 -11.833  12.118  0.00  0.00    +0.000 A 
ATOM      2  C   UNL     1       2.947 -10.919  11.929  0.00  0.00    +0.000 A 
ATOM      3  C   UNL     1       5.309 -11.400  12.125  0.00  0.00    +0.000 A 
ATOM      4  C   UNL     1       5.588 -10.048  11.943  0.00  0.00    +0.000 A 
ATOM      5  C   UNL     1       3.248  -9.573  11.748  0.00  0.00    +0.000 A 
ATOM      6  C   UNL     1       4.565  -9.125  11.754  0.00  0.00    +0.000 A 
ENDROOT
BRANCH   4   7
ATOM      7  O   UNL     1       6.875  -9.595  11.946  0.00  0.00    +0.000 OA
ATOM      8  H   UNL     1       7.277  -9.815  11.087  0.00  0.00    +0.000 HD
ENDBRANCH   4   7
BRANCH   5   9
ATOM      9  O   UNL     1       2.217  -8.697  11.565  0.00  0.00    +0.000 OA
ATOM     10  H   UNL     1       2.134  -8.158  12.373  0.00  0.00    +0.000 HD
ENDBRANCH   5   9
BRANCH   1  11
ATOM     11  C   UNL     1       3.689 -13.216  12.303  0.00  0.00    +0.000 C 
ATOM     12  C   UNL     1       3.440 -14.381  12.459  0.00  0.00    +0.000 C 
BRANCH  12  13
ATOM     13  C   UNL     1       3.146 -15.764  12.643  0.00  0.00    +0.000 A 
ATOM     14  C   UNL     1       3.771 -16.477  13.666  0.00  0.00    +0.000 A 
ATOM     15  C   UNL     1       2.235 -16.400  11.801  0.00  0.00    +0.000 A 
ATOM     16  C   UNL     1       3.485 -17.827  13.848  0.00  0.00    +0.000 A 
ATOM     17  C   UNL     1       1.946 -17.750  11.979  0.00  0.00    +0.000 A 
ATOM     18  C   UNL     1       2.575 -18.454  13.002  0.00  0.00    +0.000 A 
BRANCH  18  19
ATOM     19  O   UNL     1       2.276 -19.776  13.157  0.00  0.00    +0.000 OA
ATOM     20  H   UNL     1       3.026 -20.299  12.825  0.00  0.00    +0.000 HD
ENDBRANCH  18  19
ENDBRANCH  12  13
ENDBRANCH   1  11
TORSDOF 5
ENDMDL
MODEL 7
REMARK VINA RESULT:      -5.1      5.578      6.871
REMARK  Name = 445154_Resveratrol.pdbqt.pdb
REMARK  5 active torsions:
REMARK  status: ('A' for Active; 'I' for Inactive)
REMARK    1  A    between atoms: C_1  and  C_11
REMARK    2  A    between atoms: C_4  and  O_7
REMARK    3  A    between atoms: C_5  and  O_9
REMARK    4  A    between atoms: C_12  and  C_13
REMARK    5  A    between atoms: C_18  and  O_19
REMARK                            x       y       z     vdW  Elec       q    Type
REMARK                         _______ _______ _______ _____ _____    ______ ____
ROOT
ATOM      1  C   UNL     1      -9.606   2.598  19.653  0.00  0.00    +0.000 A 
ATOM      2  C   UNL     1      -9.666   3.407  20.787  0.00  0.00    +0.000 A 
ATOM      3  C   UNL     1      -9.598   3.170  18.382  0.00  0.00    +0.000 A 
ATOM      4  C   UNL     1      -9.650   4.556  18.255  0.00  0.00    +0.000 A 
ATOM      5  C   UNL     1      -9.718   4.789  20.638  0.00  0.00    +0.000 A 
ATOM      6  C   UNL     1      -9.710   5.376  19.377  0.00  0.00    +0.000 A 
ENDROOT
BRANCH   4   7
ATOM      7  O   UNL     1      -9.643   5.144  17.023  0.00  0.00    +0.000 OA
ATOM      8  H   UNL     1     -10.410   4.813  16.524  0.00  0.00    +0.000 HD
ENDBRANCH   4   7
BRANCH   5   9
ATOM      9  O   UNL     1      -9.777   5.562  21.763  0.00  0.00    +0.000 OA
ATOM     10  H   UNL     1      -9.667   4.978  22.534  0.00  0.00    +0.000 HD
ENDBRANCH   5   9
BRANCH   1  11
ATOM     11  C   UNL     1      -9.553   1.179  19.792  0.00  0.00    +0.000 C 
ATOM     12  C   UNL     1      -9.509  -0.016  19.909  0.00  0.00    +0.000 C 
BRANCH  12  13
ATOM     13  C   UNL     1      -9.456  -1.434  20.047  0.00  0.00    +0.000 A 
ATOM     14  C   UNL     1     -10.196  -2.244  19.186  0.00  0.00    +0.000 A 
ATOM     15  C   UNL     1      -8.665  -2.007  21.043  0.00  0.00    +0.000 A 
ATOM     16  C   UNL     1     -10.145  -3.629  19.319  0.00  0.00    +0.000 A 
ATOM     17  C   UNL     1      -8.612  -3.391  21.179  0.00  0.00    +0.000 A 
ATOM     18  C   UNL     1      -9.354  -4.192  20.316  0.00  0.00    +0.000 A 
BRANCH  18  19
ATOM     19  O   UNL     1      -9.285  -5.546  20.469  0.00  0.00    +0.000 OA
ATOM     20  H   UNL     1      -8.911  -5.927  19.656  0.00  0.00    +0.000 HD
ENDBRANCH  18  19
ENDBRANCH  12  13
ENDBRANCH   1  11
TORSDOF 5
ENDMDL
MODEL 8
REMARK VINA RESULT:      -5.0      4.742      6.862
REMARK  Name = 445154_Resveratrol.pdbqt.pdb
REMARK  5 active torsions:
REMARK  status: ('A' for Active; 'I' for Inactive)
REMARK    1  A    between atoms: C_1  and  C_11
REMARK    2  A    between atoms: C_4  and  O_7
REMARK    3  A    between atoms: C_5  and  O_9
REMARK    4  A    between atoms: C_12  and  C_13
REMARK    5  A    between atoms: C_18  and  O_19
REMARK                            x       y       z     vdW  Elec       q    Type
REMARK                         _______ _______ _______ _____ _____    ______ ____
ROOT
ATOM      1  C   UNL     1      -9.800  -2.471  20.830  0.00  0.00    +0.000 A 
ATOM      2  C   UNL     1     -10.880  -2.823  21.638  0.00  0.00    +0.000 A 
ATOM      3  C   UNL     1      -9.071  -3.456  20.163  0.00  0.00    +0.000 A 
ATOM      4  C   UNL     1      -9.432  -4.792  20.312  0.00  0.00    +0.000 A 
ATOM      5  C   UNL     1     -11.224  -4.164  21.773  0.00  0.00    +0.000 A 
ATOM      6  C   UNL     1     -10.508  -5.158  21.114  0.00  0.00    +0.000 A 
ENDROOT
BRANCH   4   7
ATOM      7  O   UNL     1      -8.738  -5.777  19.671  0.00  0.00    +0.000 OA
ATOM      8  H   UNL     1      -9.151  -5.924  18.802  0.00  0.00    +0.000 HD
ENDBRANCH   4   7
BRANCH   5   9
ATOM      9  O   UNL     1     -12.285  -4.486  22.569  0.00  0.00    +0.000 OA
ATOM     10  H   UNL     1     -12.393  -3.776  23.227  0.00  0.00    +0.000 HD
ENDBRANCH   5   9
BRANCH   1  11
ATOM     11  C   UNL     1      -9.436  -1.100  20.684  0.00  0.00    +0.000 C 
ATOM     12  C   UNL     1      -9.130   0.056  20.561  0.00  0.00    +0.000 C 
BRANCH  12  13
ATOM     13  C   UNL     1      -8.766   1.427  20.415  0.00  0.00    +0.000 A 
ATOM     14  C   UNL     1      -9.404   2.217  19.459  0.00  0.00    +0.000 A 
ATOM     15  C   UNL     1      -7.772   1.974  21.227  0.00  0.00    +0.000 A 
ATOM     16  C   UNL     1      -9.051   3.555  19.315  0.00  0.00    +0.000 A 
ATOM     17  C   UNL     1      -7.416   3.312  21.085  0.00  0.00    +0.000 A 
ATOM     18  C   UNL     1      -8.058   4.092  20.129  0.00  0.00    +0.000 A 
BRANCH  18  19
ATOM     19  O   UNL     1      -7.691   5.401  20.009  0.00  0.00    +0.000 OA
ATOM     20  H   UNL     1      -8.001   5.727  19.146  0.00  0.00    +0.000 HD
ENDBRANCH  18  19
ENDBRANCH  12  13
ENDBRANCH   1  11
TORSDOF 5
ENDMDL
MODEL 9
REMARK VINA RESULT:      -4.9      6.793      7.948
REMARK  Name = 445154_Resveratrol.pdbqt.pdb
REMARK  5 active torsions:
REMARK  status: ('A' for Active; 'I' for Inactive)
REMARK    1  A    between atoms: C_1  and  C_11
REMARK    2  A    between atoms: C_4  and  O_7
REMARK    3  A    between atoms: C_5  and  O_9
REMARK    4  A    between atoms: C_12  and  C_13
REMARK    5  A    between atoms: C_18  and  O_19
REMARK                            x       y       z     vdW  Elec       q    Type
REMARK                         _______ _______ _______ _____ _____    ______ ____
ROOT
ATOM      1  C   UNL     1      -4.412  -0.948  23.193  0.00  0.00    +0.000 A 
ATOM      2  C   UNL     1      -4.203  -1.049  24.567  0.00  0.00    +0.000 A 
ATOM      3  C   UNL     1      -3.446  -0.362  22.377  0.00  0.00    +0.000 A 
ATOM      4  C   UNL     1      -2.270   0.121  22.946  0.00  0.00    +0.000 A 
ATOM      5  C   UNL     1      -3.022  -0.560  25.117  0.00  0.00    +0.000 A 
ATOM      6  C   UNL     1      -2.047   0.027  24.316  0.00  0.00    +0.000 A 
ENDROOT
BRANCH   4   7
ATOM      7  O   UNL     1      -1.307   0.699  22.171  0.00  0.00    +0.000 OA
ATOM      8  H   UNL     1      -0.739   1.242  22.747  0.00  0.00    +0.000 HD
ENDBRANCH   4   7
BRANCH   5   9
ATOM      9  O   UNL     1      -2.838  -0.670  26.465  0.00  0.00    +0.000 OA
ATOM     10  H   UNL     1      -3.612  -1.130  26.837  0.00  0.00    +0.000 HD
ENDBRANCH   5   9
BRANCH   1  11
ATOM     11  C   UNL     1      -5.619  -1.445  22.618  0.00  0.00    +0.000 C 
ATOM     12  C   UNL     1      -6.636  -1.863  22.133  0.00  0.00    +0.000 C 
BRANCH  12  13
ATOM     13  C   UNL     1      -7.842  -2.360  21.557  0.00  0.00    +0.000 A 
ATOM     14  C   UNL     1      -8.158  -3.714  21.666  0.00  0.00    +0.000 A 
ATOM     15  C   UNL     1      -8.703  -1.491  20.887  0.00  0.00    +0.000 A 
ATOM     16  C   UNL     1      -9.335  -4.201  21.105  0.00  0.00    +0.000 A 
ATOM     17  C   UNL     1      -9.881  -1.975  20.325  0.00  0.00    +0.000 A 
ATOM     18  C   UNL     1     -10.187  -3.327  20.438  0.00  0.00    +0.000 A 
BRANCH  18  19
ATOM     19  O   UNL     1     -11.348  -3.777  19.878  0.00  0.00    +0.000 OA
ATOM     20  H   UNL     1     -11.681  -3.092  19.274  0.00  0.00    +0.000 HD
ENDBRANCH  18  19
ENDBRANCH  12  13
ENDBRANCH   1  11
TORSDOF 5
ENDMDL
