MODEL 1
REMARK VINA RESULT:      -7.2      0.000      0.000
REMARK  Name = 448438_Violaxanthin.pdbqt.pdb
REMARK  16 active torsions:
REMARK  status: ('A' for Active; 'I' for Inactive)
REMARK    1  A    between atoms: C_1  and  C_5
REMARK    2  A    between atoms: C_2  and  C_27
REMARK    3  A    between atoms: C_3  and  C_5
REMARK    4  A    between atoms: C_3  and  C_7
REMARK    5  A    between atoms: C_6  and  C_10
REMARK    6  A    between atoms: C_8  and  C_10
REMARK    7  A    between atoms: C_8  and  C_12
REMARK    8  A    between atoms: C_11  and  C_14
REMARK    9  A    between atoms: C_19  and  O_23
REMARK   10  A    between atoms: C_25  and  C_27
REMARK   11  A    between atoms: C_25  and  C_29
REMARK   12  A    between atoms: C_28  and  C_32
REMARK   13  A    between atoms: C_30  and  C_32
REMARK   14  A    between atoms: C_30  and  C_34
REMARK   15  A    between atoms: C_33  and  C_36
REMARK   16  A    between atoms: C_41  and  O_45
REMARK                            x       y       z     vdW  Elec       q    Type
REMARK                         _______ _______ _______ _____ _____    ______ ____
ROOT
ATOM      1  C   UNL     1     -18.292   0.486  22.170  0.00  0.00    +0.000 C 
ATOM      2  C   UNL     1     -19.087   0.656  21.288  0.00  0.00    +0.000 C 
ENDROOT
BRANCH   2   3
ATOM      3  C   UNL     1     -20.103   0.870  20.160  0.00  0.00    +0.000 C 
BRANCH   3   4
ATOM      4  C   UNL     1     -20.961   1.050  19.206  0.00  0.00    +0.000 C 
ATOM      5  C   UNL     1     -21.042   2.378  18.516  0.00  0.00    +0.000 C 
BRANCH   4   7
ATOM      6  C   UNL     1     -22.631  -0.861  18.572  0.00  0.00    +0.000 C 
ATOM      7  C   UNL     1     -21.864   0.017  18.863  0.00  0.00    +0.000 C 
BRANCH   6   8
ATOM      8  C   UNL     1     -23.609  -1.982  18.199  0.00  0.00    +0.000 C 
BRANCH   8   9
ATOM      9  C   UNL     1     -24.435  -2.932  17.885  0.00  0.00    +0.000 C 
ATOM     10  C   UNL     1     -25.665  -3.155  18.710  0.00  0.00    +0.000 C 
BRANCH   9  12
ATOM     11  C   UNL     1     -24.058  -4.308  15.688  0.00  0.00    +0.000 C 
ATOM     12  C   UNL     1     -24.235  -3.675  16.695  0.00  0.00    +0.000 C 
BRANCH  11  14
ATOM     13  O   UNL     1     -22.464  -5.604  14.493  0.00  0.00    +0.000 OA
ATOM     14  C   UNL     1     -23.821  -5.079  14.477  0.00  0.00    +0.000 C 
ATOM     15  C   UNL     1     -23.496  -6.584  14.585  0.00  0.00    +0.000 C 
ATOM     16  C   UNL     1     -24.342  -4.537  13.103  0.00  0.00    +0.000 C 
ATOM     17  C   UNL     1     -23.611  -7.357  13.392  0.00  0.00    +0.000 C 
ATOM     18  C   UNL     1     -24.211  -5.625  12.123  0.00  0.00    +0.000 C 
ATOM     19  C   UNL     1     -23.932  -7.005  12.071  0.00  0.00    +0.000 C 
ATOM     20  C   UNL     1     -23.497  -7.345  15.915  0.00  0.00    +0.000 C 
ATOM     21  C   UNL     1     -25.835  -4.190  13.321  0.00  0.00    +0.000 C 
ATOM     22  C   UNL     1     -23.480  -3.304  12.759  0.00  0.00    +0.000 C 
BRANCH  19  23
ATOM     23  O   UNL     1     -23.316  -7.590  11.006  0.00  0.00    +0.000 OA
ATOM     24  H   UNL     1     -23.739  -7.368  10.158  0.00  0.00    +0.000 HD
ENDBRANCH  19  23
ENDBRANCH  11  14
ENDBRANCH   9  12
ENDBRANCH   8   9
ENDBRANCH   6   8
ENDBRANCH   4   7
ENDBRANCH   3   4
ENDBRANCH   2   3
BRANCH   1  25
ATOM     25  C   UNL     1     -17.276   0.270  23.298  0.00  0.00    +0.000 C 
BRANCH  25  26
ATOM     26  C   UNL     1     -16.417   0.088  24.252  0.00  0.00    +0.000 C 
ATOM     27  C   UNL     1     -16.876   0.089  25.679  0.00  0.00    +0.000 C 
BRANCH  26  29
ATOM     28  C   UNL     1     -13.898  -0.324  23.683  0.00  0.00    +0.000 C 
ATOM     29  C   UNL     1     -15.055  -0.137  23.945  0.00  0.00    +0.000 C 
BRANCH  28  30
ATOM     30  C   UNL     1     -12.419  -0.556  23.348  0.00  0.00    +0.000 C 
BRANCH  30  31
ATOM     31  C   UNL     1     -11.168  -0.748  23.068  0.00  0.00    +0.000 C 
ATOM     32  C   UNL     1     -10.112   0.029  23.793  0.00  0.00    +0.000 C 
BRANCH  31  34
ATOM     33  C   UNL     1     -10.492  -2.559  21.300  0.00  0.00    +0.000 C 
ATOM     34  C   UNL     1     -10.800  -1.726  22.111  0.00  0.00    +0.000 C 
BRANCH  33  36
ATOM     35  O   UNL     1     -11.291  -3.926  19.521  0.00  0.00    +0.000 OA
ATOM     36  C   UNL     1     -10.126  -3.569  20.317  0.00  0.00    +0.000 C 
ATOM     37  C   UNL     1     -10.253  -3.251  18.813  0.00  0.00    +0.000 C 
ATOM     38  C   UNL     1      -9.187  -4.754  20.745  0.00  0.00    +0.000 C 
ATOM     39  C   UNL     1      -9.570  -4.114  17.905  0.00  0.00    +0.000 C 
ATOM     40  C   UNL     1      -8.752  -5.421  19.516  0.00  0.00    +0.000 C 
ATOM     41  C   UNL     1      -8.795  -5.266  18.117  0.00  0.00    +0.000 C 
ATOM     42  C   UNL     1     -10.680  -1.886  18.268  0.00  0.00    +0.000 C 
ATOM     43  C   UNL     1     -10.030  -5.653  21.678  0.00  0.00    +0.000 C 
ATOM     44  C   UNL     1      -7.988  -4.094  21.473  0.00  0.00    +0.000 C 
BRANCH  41  45
ATOM     45  O   UNL     1      -7.729  -5.592  17.334  0.00  0.00    +0.000 OA
ATOM     46  H   UNL     1      -7.078  -6.146  17.804  0.00  0.00    +0.000 HD
ENDBRANCH  41  45
ENDBRANCH  33  36
ENDBRANCH  31  34
ENDBRANCH  30  31
ENDBRANCH  28  30
ENDBRANCH  26  29
ENDBRANCH  25  26
ENDBRANCH   1  25
TORSDOF 16
ENDMDL
MODEL 2
REMARK VINA RESULT:      -6.2     22.109     25.673
REMARK  Name = 448438_Violaxanthin.pdbqt.pdb
REMARK  16 active torsions:
REMARK  status: ('A' for Active; 'I' for Inactive)
REMARK    1  A    between atoms: C_1  and  C_5
REMARK    2  A    between atoms: C_2  and  C_27
REMARK    3  A    between atoms: C_3  and  C_5
REMARK    4  A    between atoms: C_3  and  C_7
REMARK    5  A    between atoms: C_6  and  C_10
REMARK    6  A    between atoms: C_8  and  C_10
REMARK    7  A    between atoms: C_8  and  C_12
REMARK    8  A    between atoms: C_11  and  C_14
REMARK    9  A    between atoms: C_19  and  O_23
REMARK   10  A    between atoms: C_25  and  C_27
REMARK   11  A    between atoms: C_25  and  C_29
REMARK   12  A    between atoms: C_28  and  C_32
REMARK   13  A    between atoms: C_30  and  C_32
REMARK   14  A    between atoms: C_30  and  C_34
REMARK   15  A    between atoms: C_33  and  C_36
REMARK   16  A    between atoms: C_41  and  O_45
REMARK                            x       y       z     vdW  Elec       q    Type
REMARK                         _______ _______ _______ _____ _____    ______ ____
ROOT
ATOM      1  C   UNL     1       3.274 -12.034  12.830  0.00  0.00    +0.000 C 
ATOM      2  C   UNL     1       3.217 -13.118  13.343  0.00  0.00    +0.000 C 
ENDROOT
BRANCH   2   3
ATOM      3  C   UNL     1       3.146 -14.503  13.995  0.00  0.00    +0.000 C 
BRANCH   3   4
ATOM      4  C   UNL     1       3.087 -15.675  14.545  0.00  0.00    +0.000 C 
ATOM      5  C   UNL     1       2.819 -15.796  16.016  0.00  0.00    +0.000 C 
BRANCH   4   7
ATOM      6  C   UNL     1       3.561 -17.815  13.118  0.00  0.00    +0.000 C 
ATOM      7  C   UNL     1       3.343 -16.832  13.774  0.00  0.00    +0.000 C 
BRANCH   6   8
ATOM      8  C   UNL     1       3.838 -19.069  12.279  0.00  0.00    +0.000 C 
BRANCH   8   9
ATOM      9  C   UNL     1       4.074 -20.131  11.573  0.00  0.00    +0.000 C 
ATOM     10  C   UNL     1       5.089 -21.128  12.040  0.00  0.00    +0.000 C 
BRANCH   9  12
ATOM     11  C   UNL     1       2.624 -20.638   9.452  0.00  0.00    +0.000 C 
ATOM     12  C   UNL     1       3.285 -20.405  10.428  0.00  0.00    +0.000 C 
BRANCH  11  14
ATOM     13  O   UNL     1       1.435 -22.314   8.258  0.00  0.00    +0.000 OA
ATOM     14  C   UNL     1       1.843 -20.918   8.256  0.00  0.00    +0.000 C 
ATOM     15  C   UNL     1       0.374 -21.370   8.395  0.00  0.00    +0.000 C 
ATOM     16  C   UNL     1       2.302 -20.328   6.880  0.00  0.00    +0.000 C 
ATOM     17  C   UNL     1      -0.438 -21.299   7.224  0.00  0.00    +0.000 C 
ATOM     18  C   UNL     1       1.203 -20.533   5.925  0.00  0.00    +0.000 C 
ATOM     19  C   UNL     1      -0.149 -20.927   5.901  0.00  0.00    +0.000 C 
ATOM     20  C   UNL     1      -0.348 -21.457   9.743  0.00  0.00    +0.000 C 
ATOM     21  C   UNL     1       2.529 -18.816   7.119  0.00  0.00    +0.000 C 
ATOM     22  C   UNL     1       3.593 -21.077   6.487  0.00  0.00    +0.000 C 
BRANCH  19  23
ATOM     23  O   UNL     1      -0.708 -21.571   4.840  0.00  0.00    +0.000 OA
ATOM     24  H   UNL     1      -1.680 -21.500   4.825  0.00  0.00    +0.000 HD
ENDBRANCH  19  23
ENDBRANCH  11  14
ENDBRANCH   9  12
ENDBRANCH   8   9
ENDBRANCH   6   8
ENDBRANCH   4   7
ENDBRANCH   3   4
ENDBRANCH   2   3
BRANCH   1  25
ATOM     25  C   UNL     1       3.346 -10.649  12.176  0.00  0.00    +0.000 C 
BRANCH  25  26
ATOM     26  C   UNL     1       3.406  -9.478  11.623  0.00  0.00    +0.000 C 
ATOM     27  C   UNL     1       2.674  -9.220  10.340  0.00  0.00    +0.000 C 
BRANCH  26  29
ATOM     28  C   UNL     1       4.767  -7.561  12.769  0.00  0.00    +0.000 C 
ATOM     29  C   UNL     1       4.140  -8.441  12.242  0.00  0.00    +0.000 C 
BRANCH  28  30
ATOM     30  C   UNL     1       5.571  -6.443  13.444  0.00  0.00    +0.000 C 
BRANCH  30  31
ATOM     31  C   UNL     1       6.253  -5.497  14.010  0.00  0.00    +0.000 C 
ATOM     32  C   UNL     1       7.412  -4.878  13.289  0.00  0.00    +0.000 C 
BRANCH  31  34
ATOM     33  C   UNL     1       5.553  -4.607  16.373  0.00  0.00    +0.000 C 
ATOM     34  C   UNL     1       5.873  -5.019  15.288  0.00  0.00    +0.000 C 
BRANCH  33  36
ATOM     35  O   UNL     1       4.330  -5.086  18.359  0.00  0.00    +0.000 OA
ATOM     36  C   UNL     1       5.165  -4.104  17.682  0.00  0.00    +0.000 C 
ATOM     37  C   UNL     1       5.608  -4.860  18.952  0.00  0.00    +0.000 C 
ATOM     38  C   UNL     1       4.732  -2.602  17.831  0.00  0.00    +0.000 C 
ATOM     39  C   UNL     1       5.512  -4.162  20.193  0.00  0.00    +0.000 C 
ATOM     40  C   UNL     1       4.696  -2.306  19.265  0.00  0.00    +0.000 C 
ATOM     41  C   UNL     1       5.043  -2.875  20.505  0.00  0.00    +0.000 C 
ATOM     42  C   UNL     1       6.511  -6.096  18.931  0.00  0.00    +0.000 C 
ATOM     43  C   UNL     1       3.357  -2.481  17.135  0.00  0.00    +0.000 C 
ATOM     44  C   UNL     1       5.835  -1.776  17.120  0.00  0.00    +0.000 C 
BRANCH  41  45
ATOM     45  O   UNL     1       5.573  -2.121  21.508  0.00  0.00    +0.000 OA
ATOM     46  H   UNL     1       5.884  -1.252  21.195  0.00  0.00    +0.000 HD
ENDBRANCH  41  45
ENDBRANCH  33  36
ENDBRANCH  31  34
ENDBRANCH  30  31
ENDBRANCH  28  30
ENDBRANCH  26  29
ENDBRANCH  25  26
ENDBRANCH   1  25
TORSDOF 16
ENDMDL
MODEL 3
REMARK VINA RESULT:      -6.1     10.059     16.522
REMARK  Name = 448438_Violaxanthin.pdbqt.pdb
REMARK  16 active torsions:
REMARK  status: ('A' for Active; 'I' for Inactive)
REMARK    1  A    between atoms: C_1  and  C_5
REMARK    2  A    between atoms: C_2  and  C_27
REMARK    3  A    between atoms: C_3  and  C_5
REMARK    4  A    between atoms: C_3  and  C_7
REMARK    5  A    between atoms: C_6  and  C_10
REMARK    6  A    between atoms: C_8  and  C_10
REMARK    7  A    between atoms: C_8  and  C_12
REMARK    8  A    between atoms: C_11  and  C_14
REMARK    9  A    between atoms: C_19  and  O_23
REMARK   10  A    between atoms: C_25  and  C_27
REMARK   11  A    between atoms: C_25  and  C_29
REMARK   12  A    between atoms: C_28  and  C_32
REMARK   13  A    between atoms: C_30  and  C_32
REMARK   14  A    between atoms: C_30  and  C_34
REMARK   15  A    between atoms: C_33  and  C_36
REMARK   16  A    between atoms: C_41  and  O_45
REMARK                            x       y       z     vdW  Elec       q    Type
REMARK                         _______ _______ _______ _____ _____    ______ ____
ROOT
ATOM      1  C   UNL     1      -1.074  -1.015  23.454  0.00  0.00    +0.000 C 
ATOM      2  C   UNL     1      -1.871  -0.141  23.249  0.00  0.00    +0.000 C 
ENDROOT
BRANCH   2   3
ATOM      3  C   UNL     1      -2.887   0.976  22.986  0.00  0.00    +0.000 C 
BRANCH   3   4
ATOM      4  C   UNL     1      -3.745   1.922  22.766  0.00  0.00    +0.000 C 
ATOM      5  C   UNL     1      -3.375   3.346  23.052  0.00  0.00    +0.000 C 
BRANCH   4   7
ATOM      6  C   UNL     1      -6.158   1.333  21.945  0.00  0.00    +0.000 C 
ATOM      7  C   UNL     1      -5.050   1.603  22.322  0.00  0.00    +0.000 C 
BRANCH   6   8
ATOM      8  C   UNL     1      -7.573   0.989  21.461  0.00  0.00    +0.000 C 
BRANCH   8   9
ATOM      9  C   UNL     1      -8.768   0.699  21.049  0.00  0.00    +0.000 C 
ATOM     10  C   UNL     1      -9.443   1.575  20.039  0.00  0.00    +0.000 C 
BRANCH   9  12
ATOM     11  C   UNL     1      -9.896  -1.541  21.806  0.00  0.00    +0.000 C 
ATOM     12  C   UNL     1      -9.381  -0.511  21.461  0.00  0.00    +0.000 C 
BRANCH  11  14
ATOM     13  O   UNL     1     -11.885  -2.841  21.746  0.00  0.00    +0.000 OA
ATOM     14  C   UNL     1     -10.505  -2.800  22.207  0.00  0.00    +0.000 C 
ATOM     15  C   UNL     1     -11.009  -3.780  21.125  0.00  0.00    +0.000 C 
ATOM     16  C   UNL     1     -10.232  -3.367  23.640  0.00  0.00    +0.000 C 
ATOM     17  C   UNL     1     -11.275  -5.118  21.539  0.00  0.00    +0.000 C 
ATOM     18  C   UNL     1     -10.733  -4.749  23.670  0.00  0.00    +0.000 C 
ATOM     19  C   UNL     1     -11.211  -5.745  22.795  0.00  0.00    +0.000 C 
ATOM     20  C   UNL     1     -10.820  -3.536  19.625  0.00  0.00    +0.000 C 
ATOM     21  C   UNL     1      -8.695  -3.350  23.819  0.00  0.00    +0.000 C 
ATOM     22  C   UNL     1     -10.965  -2.436  24.630  0.00  0.00    +0.000 C 
BRANCH  19  23
ATOM     23  O   UNL     1     -12.126  -6.679  23.175  0.00  0.00    +0.000 OA
ATOM     24  H   UNL     1     -11.789  -7.277  23.865  0.00  0.00    +0.000 HD
ENDBRANCH  19  23
ENDBRANCH  11  14
ENDBRANCH   9  12
ENDBRANCH   8   9
ENDBRANCH   6   8
ENDBRANCH   4   7
ENDBRANCH   3   4
ENDBRANCH   2   3
BRANCH   1  25
ATOM     25  C   UNL     1      -0.057  -2.132  23.717  0.00  0.00    +0.000 C 
BRANCH  25  26
ATOM     26  C   UNL     1       0.803  -3.076  23.939  0.00  0.00    +0.000 C 
ATOM     27  C   UNL     1       0.510  -4.124  24.971  0.00  0.00    +0.000 C 
BRANCH  26  29
ATOM     28  C   UNL     1       3.022  -3.181  22.560  0.00  0.00    +0.000 C 
ATOM     29  C   UNL     1       2.002  -3.131  23.192  0.00  0.00    +0.000 C 
BRANCH  28  30
ATOM     30  C   UNL     1       4.328  -3.248  21.758  0.00  0.00    +0.000 C 
BRANCH  30  31
ATOM     31  C   UNL     1       5.434  -3.301  21.084  0.00  0.00    +0.000 C 
ATOM     32  C   UNL     1       6.734  -2.978  21.754  0.00  0.00    +0.000 C 
BRANCH  31  34
ATOM     33  C   UNL     1       5.404  -4.055  18.575  0.00  0.00    +0.000 C 
ATOM     34  C   UNL     1       5.416  -3.712  19.728  0.00  0.00    +0.000 C 
BRANCH  33  36
ATOM     35  O   UNL     1       4.112  -4.137  16.576  0.00  0.00    +0.000 OA
ATOM     36  C   UNL     1       5.395  -4.468  17.179  0.00  0.00    +0.000 C 
ATOM     37  C   UNL     1       5.229  -3.408  16.071  0.00  0.00    +0.000 C 
ATOM     38  C   UNL     1       6.010  -5.858  16.784  0.00  0.00    +0.000 C 
ATOM     39  C   UNL     1       5.571  -3.797  14.741  0.00  0.00    +0.000 C 
ATOM     40  C   UNL     1       6.139  -5.872  15.326  0.00  0.00    +0.000 C 
ATOM     41  C   UNL     1       6.019  -5.018  14.212  0.00  0.00    +0.000 C 
ATOM     42  C   UNL     1       5.144  -1.904  16.343  0.00  0.00    +0.000 C 
ATOM     43  C   UNL     1       5.040  -6.928  17.335  0.00  0.00    +0.000 C 
ATOM     44  C   UNL     1       7.402  -5.908  17.466  0.00  0.00    +0.000 C 
BRANCH  41  45
ATOM     45  O   UNL     1       6.884  -5.095  13.163  0.00  0.00    +0.000 OA
ATOM     46  H   UNL     1       7.149  -6.012  12.966  0.00  0.00    +0.000 HD
ENDBRANCH  41  45
ENDBRANCH  33  36
ENDBRANCH  31  34
ENDBRANCH  30  31
ENDBRANCH  28  30
ENDBRANCH  26  29
ENDBRANCH  25  26
ENDBRANCH   1  25
TORSDOF 16
ENDMDL
MODEL 4
REMARK VINA RESULT:      -6.0     10.599     18.652
REMARK  Name = 448438_Violaxanthin.pdbqt.pdb
REMARK  16 active torsions:
REMARK  status: ('A' for Active; 'I' for Inactive)
REMARK    1  A    between atoms: C_1  and  C_5
REMARK    2  A    between atoms: C_2  and  C_27
REMARK    3  A    between atoms: C_3  and  C_5
REMARK    4  A    between atoms: C_3  and  C_7
REMARK    5  A    between atoms: C_6  and  C_10
REMARK    6  A    between atoms: C_8  and  C_10
REMARK    7  A    between atoms: C_8  and  C_12
REMARK    8  A    between atoms: C_11  and  C_14
REMARK    9  A    between atoms: C_19  and  O_23
REMARK   10  A    between atoms: C_25  and  C_27
REMARK   11  A    between atoms: C_25  and  C_29
REMARK   12  A    between atoms: C_28  and  C_32
REMARK   13  A    between atoms: C_30  and  C_32
REMARK   14  A    between atoms: C_30  and  C_34
REMARK   15  A    between atoms: C_33  and  C_36
REMARK   16  A    between atoms: C_41  and  O_45
REMARK                            x       y       z     vdW  Elec       q    Type
REMARK                         _______ _______ _______ _____ _____    ______ ____
ROOT
ATOM      1  C   UNL     1     -20.929  -7.576   1.577  0.00  0.00    +0.000 C 
ATOM      2  C   UNL     1     -20.271  -8.212   0.801  0.00  0.00    +0.000 C 
ENDROOT
BRANCH   2   3
ATOM      3  C   UNL     1     -19.426  -9.022  -0.189  0.00  0.00    +0.000 C 
BRANCH   3   4
ATOM      4  C   UNL     1     -18.714  -9.707  -1.028  0.00  0.00    +0.000 C 
ATOM      5  C   UNL     1     -18.881  -9.487  -2.501  0.00  0.00    +0.000 C 
BRANCH   4   7
ATOM      6  C   UNL     1     -17.083 -11.556  -0.155  0.00  0.00    +0.000 C 
ATOM      7  C   UNL     1     -17.832 -10.707  -0.556  0.00  0.00    +0.000 C 
BRANCH   6   8
ATOM      8  C   UNL     1     -16.127 -12.642   0.355  0.00  0.00    +0.000 C 
BRANCH   8   9
ATOM      9  C   UNL     1     -15.322 -13.563   0.786  0.00  0.00    +0.000 C 
ATOM     10  C   UNL     1     -14.437 -14.292  -0.178  0.00  0.00    +0.000 C 
BRANCH   9  12
ATOM     11  C   UNL     1     -15.089 -13.990   3.360  0.00  0.00    +0.000 C 
ATOM     12  C   UNL     1     -15.192 -13.791   2.179  0.00  0.00    +0.000 C 
BRANCH  11  14
ATOM     13  O   UNL     1     -14.673 -13.005   5.482  0.00  0.00    +0.000 OA
ATOM     14  C   UNL     1     -14.985 -14.245   4.788  0.00  0.00    +0.000 C 
ATOM     15  C   UNL     1     -15.962 -13.549   5.759  0.00  0.00    +0.000 C 
ATOM     16  C   UNL     1     -14.242 -15.530   5.290  0.00  0.00    +0.000 C 
ATOM     17  C   UNL     1     -16.049 -14.080   7.080  0.00  0.00    +0.000 C 
ATOM     18  C   UNL     1     -14.527 -15.670   6.725  0.00  0.00    +0.000 C 
ATOM     19  C   UNL     1     -15.364 -15.127   7.720  0.00  0.00    +0.000 C 
ATOM     20  C   UNL     1     -17.114 -12.657   5.287  0.00  0.00    +0.000 C 
ATOM     21  C   UNL     1     -14.858 -16.712   4.504  0.00  0.00    +0.000 C 
ATOM     22  C   UNL     1     -12.743 -15.320   4.987  0.00  0.00    +0.000 C 
BRANCH  19  23
ATOM     23  O   UNL     1     -14.994 -15.044   9.027  0.00  0.00    +0.000 OA
ATOM     24  H   UNL     1     -15.052 -15.898   9.491  0.00  0.00    +0.000 HD
ENDBRANCH  19  23
ENDBRANCH  11  14
ENDBRANCH   9  12
ENDBRANCH   8   9
ENDBRANCH   6   8
ENDBRANCH   4   7
ENDBRANCH   3   4
ENDBRANCH   2   3
BRANCH   1  25
ATOM     25  C   UNL     1     -21.773  -6.764   2.567  0.00  0.00    +0.000 C 
BRANCH  25  26
ATOM     26  C   UNL     1     -22.486  -6.079   3.404  0.00  0.00    +0.000 C 
ATOM     27  C   UNL     1     -23.797  -5.497   2.966  0.00  0.00    +0.000 C 
BRANCH  26  29
ATOM     28  C   UNL     1     -21.668  -5.753   5.866  0.00  0.00    +0.000 C 
ATOM     29  C   UNL     1     -22.042  -5.902   4.735  0.00  0.00    +0.000 C 
BRANCH  28  30
ATOM     30  C   UNL     1     -21.197  -5.563   7.314  0.00  0.00    +0.000 C 
BRANCH  30  31
ATOM     31  C   UNL     1     -20.794  -5.400   8.535  0.00  0.00    +0.000 C 
ATOM     32  C   UNL     1     -19.470  -4.753   8.805  0.00  0.00    +0.000 C 
BRANCH  31  34
ATOM     33  C   UNL     1     -22.336  -6.114  10.530  0.00  0.00    +0.000 C 
ATOM     34  C   UNL     1     -21.628  -5.789   9.613  0.00  0.00    +0.000 C 
BRANCH  33  36
ATOM     35  O   UNL     1     -24.588  -6.465  11.221  0.00  0.00    +0.000 OA
ATOM     36  C   UNL     1     -23.193  -6.501  11.640  0.00  0.00    +0.000 C 
ATOM     37  C   UNL     1     -24.074  -7.762  11.520  0.00  0.00    +0.000 C 
ATOM     38  C   UNL     1     -22.886  -5.950  13.078  0.00  0.00    +0.000 C 
ATOM     39  C   UNL     1     -24.620  -8.293  12.727  0.00  0.00    +0.000 C 
ATOM     40  C   UNL     1     -23.698  -6.726  14.018  0.00  0.00    +0.000 C 
ATOM     41  C   UNL     1     -24.536  -7.857  14.060  0.00  0.00    +0.000 C 
ATOM     42  C   UNL     1     -24.053  -8.699  10.309  0.00  0.00    +0.000 C 
ATOM     43  C   UNL     1     -23.238  -4.445  13.045  0.00  0.00    +0.000 C 
ATOM     44  C   UNL     1     -21.374  -6.204  13.308  0.00  0.00    +0.000 C 
BRANCH  41  45
ATOM     45  O   UNL     1     -24.514  -8.716  15.117  0.00  0.00    +0.000 OA
ATOM     46  H   UNL     1     -24.149  -8.306  15.922  0.00  0.00    +0.000 HD
ENDBRANCH  41  45
ENDBRANCH  33  36
ENDBRANCH  31  34
ENDBRANCH  30  31
ENDBRANCH  28  30
ENDBRANCH  26  29
ENDBRANCH  25  26
ENDBRANCH   1  25
TORSDOF 16
ENDMDL
MODEL 5
REMARK VINA RESULT:      -6.0     24.009     26.505
REMARK  Name = 448438_Violaxanthin.pdbqt.pdb
REMARK  16 active torsions:
REMARK  status: ('A' for Active; 'I' for Inactive)
REMARK    1  A    between atoms: C_1  and  C_5
REMARK    2  A    between atoms: C_2  and  C_27
REMARK    3  A    between atoms: C_3  and  C_5
REMARK    4  A    between atoms: C_3  and  C_7
REMARK    5  A    between atoms: C_6  and  C_10
REMARK    6  A    between atoms: C_8  and  C_10
REMARK    7  A    between atoms: C_8  and  C_12
REMARK    8  A    between atoms: C_11  and  C_14
REMARK    9  A    between atoms: C_19  and  O_23
REMARK   10  A    between atoms: C_25  and  C_27
REMARK   11  A    between atoms: C_25  and  C_29
REMARK   12  A    between atoms: C_28  and  C_32
REMARK   13  A    between atoms: C_30  and  C_32
REMARK   14  A    between atoms: C_30  and  C_34
REMARK   15  A    between atoms: C_33  and  C_36
REMARK   16  A    between atoms: C_41  and  O_45
REMARK                            x       y       z     vdW  Elec       q    Type
REMARK                         _______ _______ _______ _____ _____    ______ ____
ROOT
ATOM      1  C   UNL     1       3.297 -12.246  12.777  0.00  0.00    +0.000 C 
ATOM      2  C   UNL     1       3.312 -13.320  13.312  0.00  0.00    +0.000 C 
ENDROOT
BRANCH   2   3
ATOM      3  C   UNL     1       3.329 -14.692  13.995  0.00  0.00    +0.000 C 
BRANCH   3   4
ATOM      4  C   UNL     1       3.345 -15.852  14.573  0.00  0.00    +0.000 C 
ATOM      5  C   UNL     1       3.246 -15.942  16.067  0.00  0.00    +0.000 C 
BRANCH   4   7
ATOM      6  C   UNL     1       3.676 -18.021  13.149  0.00  0.00    +0.000 C 
ATOM      7  C   UNL     1       3.524 -17.024  13.803  0.00  0.00    +0.000 C 
BRANCH   6   8
ATOM      8  C   UNL     1       3.870 -19.293  12.315  0.00  0.00    +0.000 C 
BRANCH   8   9
ATOM      9  C   UNL     1       4.038 -20.369  11.610  0.00  0.00    +0.000 C 
ATOM     10  C   UNL     1       4.955 -21.447  12.099  0.00  0.00    +0.000 C 
BRANCH   9  12
ATOM     11  C   UNL     1       2.593 -20.750   9.459  0.00  0.00    +0.000 C 
ATOM     12  C   UNL     1       3.260 -20.575  10.443  0.00  0.00    +0.000 C 
BRANCH  11  14
ATOM     13  O   UNL     1       1.286 -22.340   8.270  0.00  0.00    +0.000 OA
ATOM     14  C   UNL     1       1.766 -20.967   8.281  0.00  0.00    +0.000 C 
ATOM     15  C   UNL     1       0.280 -21.345   8.454  0.00  0.00    +0.000 C 
ATOM     16  C   UNL     1       2.217 -20.375   6.903  0.00  0.00    +0.000 C 
ATOM     17  C   UNL     1      -0.559 -21.211   7.308  0.00  0.00    +0.000 C 
ATOM     18  C   UNL     1       1.083 -20.505   5.976  0.00  0.00    +0.000 C 
ATOM     19  C   UNL     1      -0.288 -20.828   5.984  0.00  0.00    +0.000 C 
ATOM     20  C   UNL     1      -0.408 -21.421   9.820  0.00  0.00    +0.000 C 
ATOM     21  C   UNL     1       2.529 -18.881   7.162  0.00  0.00    +0.000 C 
ATOM     22  C   UNL     1       3.456 -21.182   6.460  0.00  0.00    +0.000 C 
BRANCH  19  23
ATOM     23  O   UNL     1      -0.909 -21.422   4.928  0.00  0.00    +0.000 OA
ATOM     24  H   UNL     1      -1.831 -21.127   4.818  0.00  0.00    +0.000 HD
ENDBRANCH  19  23
ENDBRANCH  11  14
ENDBRANCH   9  12
ENDBRANCH   8   9
ENDBRANCH   6   8
ENDBRANCH   4   7
ENDBRANCH   3   4
ENDBRANCH   2   3
BRANCH   1  25
ATOM     25  C   UNL     1       3.280 -10.873  12.094  0.00  0.00    +0.000 C 
BRANCH  25  26
ATOM     26  C   UNL     1       3.265  -9.713  11.517  0.00  0.00    +0.000 C 
ATOM     27  C   UNL     1       2.398  -9.489  10.314  0.00  0.00    +0.000 C 
BRANCH  26  29
ATOM     28  C   UNL     1       4.709  -7.756  12.477  0.00  0.00    +0.000 C 
ATOM     29  C   UNL     1       4.044  -8.653  12.036  0.00  0.00    +0.000 C 
BRANCH  28  30
ATOM     30  C   UNL     1       5.564  -6.613  13.040  0.00  0.00    +0.000 C 
BRANCH  30  31
ATOM     31  C   UNL     1       6.286  -5.650  13.521  0.00  0.00    +0.000 C 
ATOM     32  C   UNL     1       6.770  -5.714  14.937  0.00  0.00    +0.000 C 
BRANCH  31  34
ATOM     33  C   UNL     1       6.972  -3.636  11.992  0.00  0.00    +0.000 C 
ATOM     34  C   UNL     1       6.658  -4.563  12.691  0.00  0.00    +0.000 C 
BRANCH  33  36
ATOM     35  O   UNL     1       7.615  -2.978   9.795  0.00  0.00    +0.000 OA
ATOM     36  C   UNL     1       7.355  -2.512  11.151  0.00  0.00    +0.000 C 
ATOM     37  C   UNL     1       6.477  -2.130   9.941  0.00  0.00    +0.000 C 
ATOM     38  C   UNL     1       8.344  -1.430  11.715  0.00  0.00    +0.000 C 
ATOM     39  C   UNL     1       6.686  -0.842   9.364  0.00  0.00    +0.000 C 
ATOM     40  C   UNL     1       8.308  -0.293  10.793  0.00  0.00    +0.000 C 
ATOM     41  C   UNL     1       7.596   0.182   9.675  0.00  0.00    +0.000 C 
ATOM     42  C   UNL     1       5.157  -2.826   9.598  0.00  0.00    +0.000 C 
ATOM     43  C   UNL     1       9.726  -2.117  11.804  0.00  0.00    +0.000 C 
ATOM     44  C   UNL     1       7.782  -1.037  13.106  0.00  0.00    +0.000 C 
BRANCH  41  45
ATOM     45  O   UNL     1       7.296   1.503   9.534  0.00  0.00    +0.000 OA
ATOM     46  H   UNL     1       6.904   1.883  10.342  0.00  0.00    +0.000 HD
ENDBRANCH  41  45
ENDBRANCH  33  36
ENDBRANCH  31  34
ENDBRANCH  30  31
ENDBRANCH  28  30
ENDBRANCH  26  29
ENDBRANCH  25  26
ENDBRANCH   1  25
TORSDOF 16
ENDMDL
MODEL 6
REMARK VINA RESULT:      -5.9     19.759     23.894
REMARK  Name = 448438_Violaxanthin.pdbqt.pdb
REMARK  16 active torsions:
REMARK  status: ('A' for Active; 'I' for Inactive)
REMARK    1  A    between atoms: C_1  and  C_5
REMARK    2  A    between atoms: C_2  and  C_27
REMARK    3  A    between atoms: C_3  and  C_5
REMARK    4  A    between atoms: C_3  and  C_7
REMARK    5  A    between atoms: C_6  and  C_10
REMARK    6  A    between atoms: C_8  and  C_10
REMARK    7  A    between atoms: C_8  and  C_12
REMARK    8  A    between atoms: C_11  and  C_14
REMARK    9  A    between atoms: C_19  and  O_23
REMARK   10  A    between atoms: C_25  and  C_27
REMARK   11  A    between atoms: C_25  and  C_29
REMARK   12  A    between atoms: C_28  and  C_32
REMARK   13  A    between atoms: C_30  and  C_32
REMARK   14  A    between atoms: C_30  and  C_34
REMARK   15  A    between atoms: C_33  and  C_36
REMARK   16  A    between atoms: C_41  and  O_45
REMARK                            x       y       z     vdW  Elec       q    Type
REMARK                         _______ _______ _______ _____ _____    ______ ____
ROOT
ATOM      1  C   UNL     1       3.916 -12.090  12.971  0.00  0.00    +0.000 C 
ATOM      2  C   UNL     1       4.103 -13.146  13.509  0.00  0.00    +0.000 C 
ENDROOT
BRANCH   2   3
ATOM      3  C   UNL     1       4.339 -14.496  14.196  0.00  0.00    +0.000 C 
BRANCH   3   4
ATOM      4  C   UNL     1       4.536 -15.638  14.776  0.00  0.00    +0.000 C 
ATOM      5  C   UNL     1       5.212 -16.747  14.028  0.00  0.00    +0.000 C 
BRANCH   4   7
ATOM      6  C   UNL     1       3.642 -16.047  17.200  0.00  0.00    +0.000 C 
ATOM      7  C   UNL     1       4.053 -15.859  16.087  0.00  0.00    +0.000 C 
BRANCH   6   8
ATOM      8  C   UNL     1       3.116 -16.286  18.621  0.00  0.00    +0.000 C 
BRANCH   8   9
ATOM      9  C   UNL     1       2.675 -16.488  19.824  0.00  0.00    +0.000 C 
ATOM     10  C   UNL     1       3.640 -16.736  20.942  0.00  0.00    +0.000 C 
BRANCH   9  12
ATOM     11  C   UNL     1       0.117 -16.228  20.324  0.00  0.00    +0.000 C 
ATOM     12  C   UNL     1       1.291 -16.349  20.099  0.00  0.00    +0.000 C 
BRANCH  11  14
ATOM     13  O   UNL     1      -1.524 -14.908  21.426  0.00  0.00    +0.000 OA
ATOM     14  C   UNL     1      -1.308 -16.069  20.576  0.00  0.00    +0.000 C 
ATOM     15  C   UNL     1      -2.027 -14.791  20.095  0.00  0.00    +0.000 C 
ATOM     16  C   UNL     1      -2.182 -17.331  20.884  0.00  0.00    +0.000 C 
ATOM     17  C   UNL     1      -3.452 -14.828  20.054  0.00  0.00    +0.000 C 
ATOM     18  C   UNL     1      -3.591 -16.917  20.821  0.00  0.00    +0.000 C 
ATOM     19  C   UNL     1      -4.378 -15.820  20.419  0.00  0.00    +0.000 C 
ATOM     20  C   UNL     1      -1.332 -13.700  19.276  0.00  0.00    +0.000 C 
ATOM     21  C   UNL     1      -1.872 -18.349  19.760  0.00  0.00    +0.000 C 
ATOM     22  C   UNL     1      -1.759 -17.830  22.283  0.00  0.00    +0.000 C 
BRANCH  19  23
ATOM     23  O   UNL     1      -5.562 -15.507  21.015  0.00  0.00    +0.000 OA
ATOM     24  H   UNL     1      -6.104 -14.900  20.480  0.00  0.00    +0.000 HD
ENDBRANCH  19  23
ENDBRANCH  11  14
ENDBRANCH   9  12
ENDBRANCH   8   9
ENDBRANCH   6   8
ENDBRANCH   4   7
ENDBRANCH   3   4
ENDBRANCH   2   3
BRANCH   1  25
ATOM     25  C   UNL     1       3.679 -10.740  12.284  0.00  0.00    +0.000 C 
BRANCH  25  26
ATOM     26  C   UNL     1       3.479  -9.598  11.704  0.00  0.00    +0.000 C 
ATOM     27  C   UNL     1       2.564  -9.515  10.519  0.00  0.00    +0.000 C 
BRANCH  26  29
ATOM     28  C   UNL     1       4.627  -7.439  12.628  0.00  0.00    +0.000 C 
ATOM     29  C   UNL     1       4.101  -8.431  12.203  0.00  0.00    +0.000 C 
BRANCH  28  30
ATOM     30  C   UNL     1       5.291  -6.168  13.174  0.00  0.00    +0.000 C 
BRANCH  30  31
ATOM     31  C   UNL     1       5.857  -5.095  13.632  0.00  0.00    +0.000 C 
ATOM     32  C   UNL     1       6.687  -4.242  12.722  0.00  0.00    +0.000 C 
BRANCH  31  34
ATOM     33  C   UNL     1       5.474  -4.371  16.121  0.00  0.00    +0.000 C 
ATOM     34  C   UNL     1       5.651  -4.707  14.979  0.00  0.00    +0.000 C 
BRANCH  33  36
ATOM     35  O   UNL     1       4.526  -5.001  18.213  0.00  0.00    +0.000 OA
ATOM     36  C   UNL     1       5.256  -3.961  17.500  0.00  0.00    +0.000 C 
ATOM     37  C   UNL     1       5.868  -4.791  18.648  0.00  0.00    +0.000 C 
ATOM     38  C   UNL     1       4.831  -2.480  17.804  0.00  0.00    +0.000 C 
ATOM     39  C   UNL     1       5.928  -4.177  19.935  0.00  0.00    +0.000 C 
ATOM     40  C   UNL     1       4.980  -2.279  19.247  0.00  0.00    +0.000 C 
ATOM     41  C   UNL     1       5.492  -2.922  20.391  0.00  0.00    +0.000 C 
ATOM     42  C   UNL     1       6.773  -6.005  18.428  0.00  0.00    +0.000 C 
ATOM     43  C   UNL     1       3.375  -2.340  17.302  0.00  0.00    +0.000 C 
ATOM     44  C   UNL     1       5.823  -1.590  17.013  0.00  0.00    +0.000 C 
BRANCH  41  45
ATOM     45  O   UNL     1       6.140  -2.225  21.365  0.00  0.00    +0.000 OA
ATOM     46  H   UNL     1       7.101  -2.176  21.210  0.00  0.00    +0.000 HD
ENDBRANCH  41  45
ENDBRANCH  33  36
ENDBRANCH  31  34
ENDBRANCH  30  31
ENDBRANCH  28  30
ENDBRANCH  26  29
ENDBRANCH  25  26
ENDBRANCH   1  25
TORSDOF 16
ENDMDL
MODEL 7
REMARK VINA RESULT:      -5.8     15.034     18.457
REMARK  Name = 448438_Violaxanthin.pdbqt.pdb
REMARK  16 active torsions:
REMARK  status: ('A' for Active; 'I' for Inactive)
REMARK    1  A    between atoms: C_1  and  C_5
REMARK    2  A    between atoms: C_2  and  C_27
REMARK    3  A    between atoms: C_3  and  C_5
REMARK    4  A    between atoms: C_3  and  C_7
REMARK    5  A    between atoms: C_6  and  C_10
REMARK    6  A    between atoms: C_8  and  C_10
REMARK    7  A    between atoms: C_8  and  C_12
REMARK    8  A    between atoms: C_11  and  C_14
REMARK    9  A    between atoms: C_19  and  O_23
REMARK   10  A    between atoms: C_25  and  C_27
REMARK   11  A    between atoms: C_25  and  C_29
REMARK   12  A    between atoms: C_28  and  C_32
REMARK   13  A    between atoms: C_30  and  C_32
REMARK   14  A    between atoms: C_30  and  C_34
REMARK   15  A    between atoms: C_33  and  C_36
REMARK   16  A    between atoms: C_41  and  O_45
REMARK                            x       y       z     vdW  Elec       q    Type
REMARK                         _______ _______ _______ _____ _____    ______ ____
ROOT
ATOM      1  C   UNL     1     -12.467 -16.927  12.380  0.00  0.00    +0.000 C 
ATOM      2  C   UNL     1     -11.726 -17.081  11.450  0.00  0.00    +0.000 C 
ENDROOT
BRANCH   2   3
ATOM      3  C   UNL     1     -10.777 -17.276  10.261  0.00  0.00    +0.000 C 
BRANCH   3   4
ATOM      4  C   UNL     1      -9.976 -17.442   9.256  0.00  0.00    +0.000 C 
ATOM      5  C   UNL     1      -9.050 -18.621   9.227  0.00  0.00    +0.000 C 
BRANCH   4   7
ATOM      6  C   UNL     1      -9.886 -15.658   7.345  0.00  0.00    +0.000 C 
ATOM      7  C   UNL     1      -9.928 -16.477   8.223  0.00  0.00    +0.000 C 
BRANCH   6   8
ATOM      8  C   UNL     1      -9.832 -14.612   6.225  0.00  0.00    +0.000 C 
BRANCH   8   9
ATOM      9  C   UNL     1      -9.782 -13.727   5.278  0.00  0.00    +0.000 C 
ATOM     10  C   UNL     1      -8.567 -12.864   5.125  0.00  0.00    +0.000 C 
BRANCH   9  12
ATOM     11  C   UNL     1     -11.703 -13.620   3.500  0.00  0.00    +0.000 C 
ATOM     12  C   UNL     1     -10.822 -13.664   4.317  0.00  0.00    +0.000 C 
BRANCH  11  14
ATOM     13  O   UNL     1     -12.792 -12.283   1.864  0.00  0.00    +0.000 OA
ATOM     14  C   UNL     1     -12.764 -13.589   2.506  0.00  0.00    +0.000 C 
ATOM     15  C   UNL     1     -12.409 -13.367   1.020  0.00  0.00    +0.000 C 
ATOM     16  C   UNL     1     -14.154 -14.230   2.840  0.00  0.00    +0.000 C 
ATOM     17  C   UNL     1     -13.416 -13.683   0.060  0.00  0.00    +0.000 C 
ATOM     18  C   UNL     1     -14.919 -14.300   1.587  0.00  0.00    +0.000 C 
ATOM     19  C   UNL     1     -14.739 -14.134   0.200  0.00  0.00    +0.000 C 
ATOM     20  C   UNL     1     -10.967 -13.264   0.513  0.00  0.00    +0.000 C 
ATOM     21  C   UNL     1     -13.850 -15.655   3.363  0.00  0.00    +0.000 C 
ATOM     22  C   UNL     1     -14.813 -13.326   3.903  0.00  0.00    +0.000 C 
BRANCH  19  23
ATOM     23  O   UNL     1     -15.733 -13.696  -0.622  0.00  0.00    +0.000 OA
ATOM     24  H   UNL     1     -15.566 -12.803  -0.972  0.00  0.00    +0.000 HD
ENDBRANCH  19  23
ENDBRANCH  11  14
ENDBRANCH   9  12
ENDBRANCH   8   9
ENDBRANCH   6   8
ENDBRANCH   4   7
ENDBRANCH   3   4
ENDBRANCH   2   3
BRANCH   1  25
ATOM     25  C   UNL     1     -13.416 -16.732  13.569  0.00  0.00    +0.000 C 
BRANCH  25  26
ATOM     26  C   UNL     1     -14.218 -16.567  14.574  0.00  0.00    +0.000 C 
ATOM     27  C   UNL     1     -15.517 -15.844  14.380  0.00  0.00    +0.000 C 
BRANCH  26  29
ATOM     28  C   UNL     1     -13.595 -17.532  16.923  0.00  0.00    +0.000 C 
ATOM     29  C   UNL     1     -13.880 -17.090  15.843  0.00  0.00    +0.000 C 
BRANCH  28  30
ATOM     30  C   UNL     1     -13.234 -18.091  18.305  0.00  0.00    +0.000 C 
BRANCH  30  31
ATOM     31  C   UNL     1     -12.925 -18.565  19.471  0.00  0.00    +0.000 C 
ATOM     32  C   UNL     1     -13.922 -19.385  20.232  0.00  0.00    +0.000 C 
BRANCH  31  34
ATOM     33  C   UNL     1     -10.527 -18.168  20.450  0.00  0.00    +0.000 C 
ATOM     34  C   UNL     1     -11.629 -18.348  20.002  0.00  0.00    +0.000 C 
BRANCH  33  36
ATOM     35  O   UNL     1      -8.393 -19.160  20.815  0.00  0.00    +0.000 OA
ATOM     36  C   UNL     1      -9.192 -17.954  20.987  0.00  0.00    +0.000 C 
ATOM     37  C   UNL     1      -7.970 -18.034  20.048  0.00  0.00    +0.000 C 
ATOM     38  C   UNL     1      -9.024 -17.199  22.354  0.00  0.00    +0.000 C 
ATOM     39  C   UNL     1      -6.743 -17.485  20.527  0.00  0.00    +0.000 C 
ATOM     40  C   UNL     1      -7.604 -16.866  22.489  0.00  0.00    +0.000 C 
ATOM     41  C   UNL     1      -6.404 -16.887  21.752  0.00  0.00    +0.000 C 
ATOM     42  C   UNL     1      -8.076 -18.258  18.537  0.00  0.00    +0.000 C 
ATOM     43  C   UNL     1      -9.545 -18.163  23.444  0.00  0.00    +0.000 C 
ATOM     44  C   UNL     1      -9.886 -15.916  22.230  0.00  0.00    +0.000 C 
BRANCH  41  45
ATOM     45  O   UNL     1      -5.493 -15.880  21.854  0.00  0.00    +0.000 OA
ATOM     46  H   UNL     1      -4.674 -16.068  21.359  0.00  0.00    +0.000 HD
ENDBRANCH  41  45
ENDBRANCH  33  36
ENDBRANCH  31  34
ENDBRANCH  30  31
ENDBRANCH  28  30
ENDBRANCH  26  29
ENDBRANCH  25  26
ENDBRANCH   1  25
TORSDOF 16
ENDMDL
MODEL 8
REMARK VINA RESULT:      -5.8     16.931     25.293
REMARK  Name = 448438_Violaxanthin.pdbqt.pdb
REMARK  16 active torsions:
REMARK  status: ('A' for Active; 'I' for Inactive)
REMARK    1  A    between atoms: C_1  and  C_5
REMARK    2  A    between atoms: C_2  and  C_27
REMARK    3  A    between atoms: C_3  and  C_5
REMARK    4  A    between atoms: C_3  and  C_7
REMARK    5  A    between atoms: C_6  and  C_10
REMARK    6  A    between atoms: C_8  and  C_10
REMARK    7  A    between atoms: C_8  and  C_12
REMARK    8  A    between atoms: C_11  and  C_14
REMARK    9  A    between atoms: C_19  and  O_23
REMARK   10  A    between atoms: C_25  and  C_27
REMARK   11  A    between atoms: C_25  and  C_29
REMARK   12  A    between atoms: C_28  and  C_32
REMARK   13  A    between atoms: C_30  and  C_32
REMARK   14  A    between atoms: C_30  and  C_34
REMARK   15  A    between atoms: C_33  and  C_36
REMARK   16  A    between atoms: C_41  and  O_45
REMARK                            x       y       z     vdW  Elec       q    Type
REMARK                         _______ _______ _______ _____ _____    ______ ____
ROOT
ATOM      1  C   UNL     1      -4.783 -21.341  15.958  0.00  0.00    +0.000 C 
ATOM      2  C   UNL     1      -4.182 -20.651  16.733  0.00  0.00    +0.000 C 
ENDROOT
BRANCH   2   3
ATOM      3  C   UNL     1      -3.410 -19.770  17.723  0.00  0.00    +0.000 C 
BRANCH   3   4
ATOM      4  C   UNL     1      -2.759 -19.023  18.558  0.00  0.00    +0.000 C 
ATOM      5  C   UNL     1      -3.476 -18.403  19.720  0.00  0.00    +0.000 C 
BRANCH   4   7
ATOM      6  C   UNL     1      -0.230 -18.496  18.146  0.00  0.00    +0.000 C 
ATOM      7  C   UNL     1      -1.391 -18.738  18.335  0.00  0.00    +0.000 C 
BRANCH   6   8
ATOM      8  C   UNL     1       1.252 -18.185  17.903  0.00  0.00    +0.000 C 
BRANCH   8   9
ATOM      9  C   UNL     1       2.505 -17.919  17.697  0.00  0.00    +0.000 C 
ATOM     10  C   UNL     1       3.563 -18.761  18.341  0.00  0.00    +0.000 C 
BRANCH   9  12
ATOM     11  C   UNL     1       3.167 -16.054  15.981  0.00  0.00    +0.000 C 
ATOM     12  C   UNL     1       2.868 -16.912  16.769  0.00  0.00    +0.000 C 
BRANCH  11  14
ATOM     13  O   UNL     1       4.360 -15.560  13.986  0.00  0.00    +0.000 OA
ATOM     14  C   UNL     1       3.506 -15.009  15.027  0.00  0.00    +0.000 C 
ATOM     15  C   UNL     1       3.063 -15.150  13.555  0.00  0.00    +0.000 C 
ATOM     16  C   UNL     1       3.877 -13.580  15.549  0.00  0.00    +0.000 C 
ATOM     17  C   UNL     1       3.111 -13.973  12.751  0.00  0.00    +0.000 C 
ATOM     18  C   UNL     1       3.899 -12.679  14.387  0.00  0.00    +0.000 C 
ATOM     19  C   UNL     1       3.540 -12.663  13.025  0.00  0.00    +0.000 C 
ATOM     20  C   UNL     1       2.195 -16.306  13.052  0.00  0.00    +0.000 C 
ATOM     21  C   UNL     1       2.743 -13.173  16.520  0.00  0.00    +0.000 C 
ATOM     22  C   UNL     1       5.250 -13.706  16.244  0.00  0.00    +0.000 C 
BRANCH  19  23
ATOM     23  O   UNL     1       4.206 -11.921  12.098  0.00  0.00    +0.000 OA
ATOM     24  H   UNL     1       4.183 -12.319  11.209  0.00  0.00    +0.000 HD
ENDBRANCH  19  23
ENDBRANCH  11  14
ENDBRANCH   9  12
ENDBRANCH   8   9
ENDBRANCH   6   8
ENDBRANCH   4   7
ENDBRANCH   3   4
ENDBRANCH   2   3
BRANCH   1  25
ATOM     25  C   UNL     1      -5.554 -22.222  14.968  0.00  0.00    +0.000 C 
BRANCH  25  26
ATOM     26  C   UNL     1      -6.205 -22.967  14.131  0.00  0.00    +0.000 C 
ATOM     27  C   UNL     1      -6.256 -24.452  14.337  0.00  0.00    +0.000 C 
BRANCH  26  29
ATOM     28  C   UNL     1      -7.469 -21.881  12.115  0.00  0.00    +0.000 C 
ATOM     29  C   UNL     1      -6.887 -22.378  13.041  0.00  0.00    +0.000 C 
BRANCH  28  30
ATOM     30  C   UNL     1      -8.215 -21.253  10.931  0.00  0.00    +0.000 C 
BRANCH  30  31
ATOM     31  C   UNL     1      -8.849 -20.725   9.932  0.00  0.00    +0.000 C 
ATOM     32  C   UNL     1      -8.501 -21.126   8.531  0.00  0.00    +0.000 C 
BRANCH  31  34
ATOM     33  C   UNL     1     -10.794 -19.023  10.363  0.00  0.00    +0.000 C 
ATOM     34  C   UNL     1      -9.902 -19.807  10.167  0.00  0.00    +0.000 C 
BRANCH  33  36
ATOM     35  O   UNL     1     -13.158 -18.736  10.417  0.00  0.00    +0.000 OA
ATOM     36  C   UNL     1     -11.873 -18.074  10.594  0.00  0.00    +0.000 C 
ATOM     37  C   UNL     1     -12.868 -18.316  11.749  0.00  0.00    +0.000 C 
ATOM     38  C   UNL     1     -11.755 -16.619  10.014  0.00  0.00    +0.000 C 
ATOM     39  C   UNL     1     -13.676 -17.212  12.154  0.00  0.00    +0.000 C 
ATOM     40  C   UNL     1     -12.807 -15.819  10.644  0.00  0.00    +0.000 C 
ATOM     41  C   UNL     1     -13.772 -15.897  11.668  0.00  0.00    +0.000 C 
ATOM     42  C   UNL     1     -12.751 -19.478  12.739  0.00  0.00    +0.000 C 
ATOM     43  C   UNL     1     -11.908 -16.755   8.482  0.00  0.00    +0.000 C 
ATOM     44  C   UNL     1     -10.349 -16.116  10.431  0.00  0.00    +0.000 C 
BRANCH  41  45
ATOM     45  O   UNL     1     -14.041 -14.831  12.471  0.00  0.00    +0.000 OA
ATOM     46  H   UNL     1     -13.234 -14.441  12.854  0.00  0.00    +0.000 HD
ENDBRANCH  41  45
ENDBRANCH  33  36
ENDBRANCH  31  34
ENDBRANCH  30  31
ENDBRANCH  28  30
ENDBRANCH  26  29
ENDBRANCH  25  26
ENDBRANCH   1  25
TORSDOF 16
ENDMDL
MODEL 9
REMARK VINA RESULT:      -5.7      9.968     16.741
REMARK  Name = 448438_Violaxanthin.pdbqt.pdb
REMARK  16 active torsions:
REMARK  status: ('A' for Active; 'I' for Inactive)
REMARK    1  A    between atoms: C_1  and  C_5
REMARK    2  A    between atoms: C_2  and  C_27
REMARK    3  A    between atoms: C_3  and  C_5
REMARK    4  A    between atoms: C_3  and  C_7
REMARK    5  A    between atoms: C_6  and  C_10
REMARK    6  A    between atoms: C_8  and  C_10
REMARK    7  A    between atoms: C_8  and  C_12
REMARK    8  A    between atoms: C_11  and  C_14
REMARK    9  A    between atoms: C_19  and  O_23
REMARK   10  A    between atoms: C_25  and  C_27
REMARK   11  A    between atoms: C_25  and  C_29
REMARK   12  A    between atoms: C_28  and  C_32
REMARK   13  A    between atoms: C_30  and  C_32
REMARK   14  A    between atoms: C_30  and  C_34
REMARK   15  A    between atoms: C_33  and  C_36
REMARK   16  A    between atoms: C_41  and  O_45
REMARK                            x       y       z     vdW  Elec       q    Type
REMARK                         _______ _______ _______ _____ _____    ______ ____
ROOT
ATOM      1  C   UNL     1      -0.987  -1.130  23.440  0.00  0.00    +0.000 C 
ATOM      2  C   UNL     1      -1.824  -0.272  23.384  0.00  0.00    +0.000 C 
ENDROOT
BRANCH   2   3
ATOM      3  C   UNL     1      -2.891   0.827  23.312  0.00  0.00    +0.000 C 
BRANCH   3   4
ATOM      4  C   UNL     1      -3.792   1.755  23.249  0.00  0.00    +0.000 C 
ATOM      5  C   UNL     1      -3.520   3.101  23.851  0.00  0.00    +0.000 C 
BRANCH   4   7
ATOM      6  C   UNL     1      -6.127   1.241  22.186  0.00  0.00    +0.000 C 
ATOM      7  C   UNL     1      -5.055   1.478  22.675  0.00  0.00    +0.000 C 
BRANCH   6   8
ATOM      8  C   UNL     1      -7.495   0.941  21.561  0.00  0.00    +0.000 C 
BRANCH   8   9
ATOM      9  C   UNL     1      -8.651   0.689  21.030  0.00  0.00    +0.000 C 
ATOM     10  C   UNL     1      -9.203   1.599  19.976  0.00  0.00    +0.000 C 
BRANCH   9  12
ATOM     11  C   UNL     1      -9.899  -1.533  21.633  0.00  0.00    +0.000 C 
ATOM     12  C   UNL     1      -9.330  -0.511  21.357  0.00  0.00    +0.000 C 
BRANCH  11  14
ATOM     13  O   UNL     1     -11.275  -3.277  20.787  0.00  0.00    +0.000 OA
ATOM     14  C   UNL     1     -10.568  -2.784  21.959  0.00  0.00    +0.000 C 
ATOM     15  C   UNL     1     -10.172  -4.076  21.212  0.00  0.00    +0.000 C 
ATOM     16  C   UNL     1     -11.309  -2.927  23.331  0.00  0.00    +0.000 C 
ATOM     17  C   UNL     1     -10.593  -5.310  21.789  0.00  0.00    +0.000 C 
ATOM     18  C   UNL     1     -11.642  -4.348  23.505  0.00  0.00    +0.000 C 
ATOM     19  C   UNL     1     -11.366  -5.602  22.925  0.00  0.00    +0.000 C 
ATOM     20  C   UNL     1      -9.032  -4.133  20.191  0.00  0.00    +0.000 C 
ATOM     21  C   UNL     1     -10.295  -2.479  24.411  0.00  0.00    +0.000 C 
ATOM     22  C   UNL     1     -12.554  -2.017  23.258  0.00  0.00    +0.000 C 
BRANCH  19  23
ATOM     23  O   UNL     1     -12.260  -6.629  22.936  0.00  0.00    +0.000 OA
ATOM     24  H   UNL     1     -12.452  -6.952  23.835  0.00  0.00    +0.000 HD
ENDBRANCH  19  23
ENDBRANCH  11  14
ENDBRANCH   9  12
ENDBRANCH   8   9
ENDBRANCH   6   8
ENDBRANCH   4   7
ENDBRANCH   3   4
ENDBRANCH   2   3
BRANCH   1  25
ATOM     25  C   UNL     1       0.081  -2.229  23.512  0.00  0.00    +0.000 C 
BRANCH  25  26
ATOM     26  C   UNL     1       0.983  -3.157  23.572  0.00  0.00    +0.000 C 
ATOM     27  C   UNL     1       1.121  -3.983  24.816  0.00  0.00    +0.000 C 
BRANCH  26  29
ATOM     28  C   UNL     1       2.531  -3.618  21.515  0.00  0.00    +0.000 C 
ATOM     29  C   UNL     1       1.818  -3.406  22.459  0.00  0.00    +0.000 C 
BRANCH  28  30
ATOM     30  C   UNL     1       3.446  -3.888  20.314  0.00  0.00    +0.000 C 
BRANCH  30  31
ATOM     31  C   UNL     1       4.219  -4.112  19.298  0.00  0.00    +0.000 C 
ATOM     32  C   UNL     1       4.526  -3.005  18.336  0.00  0.00    +0.000 C 
BRANCH  31  34
ATOM     33  C   UNL     1       5.312  -6.471  18.975  0.00  0.00    +0.000 C 
ATOM     34  C   UNL     1       4.810  -5.388  19.126  0.00  0.00    +0.000 C 
BRANCH  33  36
ATOM     35  O   UNL     1       4.899  -8.754  18.440  0.00  0.00    +0.000 OA
ATOM     36  C   UNL     1       5.923  -7.778  18.786  0.00  0.00    +0.000 C 
ATOM     37  C   UNL     1       5.840  -8.467  17.408  0.00  0.00    +0.000 C 
ATOM     38  C   UNL     1       7.033  -8.261  19.786  0.00  0.00    +0.000 C 
ATOM     39  C   UNL     1       6.729  -9.557  17.170  0.00  0.00    +0.000 C 
ATOM     40  C   UNL     1       7.664  -9.440  19.191  0.00  0.00    +0.000 C 
ATOM     41  C   UNL     1       7.687 -10.176  17.990  0.00  0.00    +0.000 C 
ATOM     42  C   UNL     1       5.206  -7.820  16.174  0.00  0.00    +0.000 C 
ATOM     43  C   UNL     1       6.311  -8.548  21.122  0.00  0.00    +0.000 C 
ATOM     44  C   UNL     1       8.039  -7.085  19.892  0.00  0.00    +0.000 C 
BRANCH  41  45
ATOM     45  O   UNL     1       8.845 -10.703  17.503  0.00  0.00    +0.000 OA
ATOM     46  H   UNL     1       8.754 -11.015  16.585  0.00  0.00    +0.000 HD
ENDBRANCH  41  45
ENDBRANCH  33  36
ENDBRANCH  31  34
ENDBRANCH  30  31
ENDBRANCH  28  30
ENDBRANCH  26  29
ENDBRANCH  25  26
ENDBRANCH   1  25
TORSDOF 16
ENDMDL
