MODEL 1
REMARK VINA RESULT:      -7.0      0.000      0.000
REMARK  Name = 490561_Nocardiopsis.pdbqt.pdb
REMARK  3 active torsions:
REMARK  status: ('A' for Active; 'I' for Inactive)
REMARK    1  A    between atoms: C_7  and  O_32
REMARK    2  A    between atoms: C_7  and  C_35
REMARK    3  A    between atoms: C_35  and  O_36
REMARK                            x       y       z     vdW  Elec       q    Type
REMARK                         _______ _______ _______ _____ _____    ______ ____
ROOT
ATOM      1  O   UNL     1     -23.976  -5.473  10.524  0.00  0.00    +0.000 OA
ATOM      2  O   UNL     1     -24.945  -2.881  17.529  0.00  0.00    +0.000 OA
ATOM      3  N   UNL     1     -22.997  -3.398  11.097  0.00  0.00    +0.000 N 
ATOM      4  N   UNL     1     -23.813  -5.702  12.839  0.00  0.00    +0.000 N 
ATOM      5  N   UNL     1     -24.328  -0.956  16.387  0.00  0.00    +0.000 N 
ATOM      6  C   UNL     1     -22.895  -4.541  10.167  0.00  0.00    +0.000 C 
ATOM      7  C   UNL     1     -21.569  -5.395  10.366  0.00  0.00    +0.000 C 
ATOM      8  C   UNL     1     -23.456  -6.210  11.602  0.00  0.00    +0.000 C 
ATOM      9  C   UNL     1     -22.070  -6.353  11.348  0.00  0.00    +0.000 C 
ATOM     10  C   UNL     1     -23.466  -3.327  12.385  0.00  0.00    +0.000 A 
ATOM     11  C   UNL     1     -23.862  -4.389  13.198  0.00  0.00    +0.000 A 
ATOM     12  C   UNL     1     -23.491  -2.089  13.033  0.00  0.00    +0.000 A 
ATOM     13  C   UNL     1     -24.210  -4.048  14.510  0.00  0.00    +0.000 A 
ATOM     14  C   UNL     1     -23.183  -4.125   8.687  0.00  0.00    +0.000 C 
ATOM     15  C   UNL     1     -22.598  -2.051  10.914  0.00  0.00    +0.000 A 
ATOM     16  C   UNL     1     -24.118  -6.311  14.071  0.00  0.00    +0.000 A 
ATOM     17  C   UNL     1     -22.920  -1.241  12.067  0.00  0.00    +0.000 A 
ATOM     18  C   UNL     1     -23.856  -1.720  14.335  0.00  0.00    +0.000 A 
ATOM     19  C   UNL     1     -24.258  -2.804  15.171  0.00  0.00    +0.000 A 
ATOM     20  C   UNL     1     -24.388  -5.323  15.091  0.00  0.00    +0.000 A 
ATOM     21  C   UNL     1     -23.914  -0.503  15.185  0.00  0.00    +0.000 C 
ATOM     22  C   UNL     1     -21.958  -1.468   9.807  0.00  0.00    +0.000 A 
ATOM     23  C   UNL     1     -24.569  -2.333  16.503  0.00  0.00    +0.000 C 
ATOM     24  C   UNL     1     -24.189  -7.682  14.360  0.00  0.00    +0.000 A 
ATOM     25  C   UNL     1     -22.593   0.130  12.038  0.00  0.00    +0.000 A 
ATOM     26  C   UNL     1     -24.715  -5.783  16.383  0.00  0.00    +0.000 A 
ATOM     27  C   UNL     1     -21.657  -0.106   9.826  0.00  0.00    +0.000 A 
ATOM     28  C   UNL     1     -21.973   0.684  10.919  0.00  0.00    +0.000 A 
ATOM     29  C   UNL     1     -24.524  -8.079  15.654  0.00  0.00    +0.000 A 
ATOM     30  C   UNL     1     -24.783  -7.149  16.650  0.00  0.00    +0.000 A 
ATOM     31  H   UNL     1     -24.463  -0.347  17.180  0.00  0.00    +0.000 HD
ENDROOT
BRANCH   7  32
ATOM     32  O   UNL     1     -20.468  -4.675  10.939  0.00  0.00    +0.000 OA
ATOM     33  H   UNL     1     -20.262  -3.929  10.335  0.00  0.00    +0.000 HD
ENDBRANCH   7  32
BRANCH   7  35
ATOM     34  O   UNL     1     -21.803  -7.020   8.614  0.00  0.00    +0.000 OA
ATOM     35  C   UNL     1     -21.140  -6.088   9.074  0.00  0.00    +0.000 C 
BRANCH  35  36
ATOM     36  O   UNL     1     -20.026  -5.506   8.534  0.00  0.00    +0.000 OA
ATOM     37  C   UNL     1     -20.008  -5.294   7.149  0.00  0.00    +0.000 C 
ENDBRANCH  35  36
ENDBRANCH   7  35
TORSDOF 3
ENDMDL
MODEL 2
REMARK VINA RESULT:      -6.9     27.311     29.778
REMARK  Name = 490561_Nocardiopsis.pdbqt.pdb
REMARK  3 active torsions:
REMARK  status: ('A' for Active; 'I' for Inactive)
REMARK    1  A    between atoms: C_7  and  O_32
REMARK    2  A    between atoms: C_7  and  C_35
REMARK    3  A    between atoms: C_35  and  O_36
REMARK                            x       y       z     vdW  Elec       q    Type
REMARK                         _______ _______ _______ _____ _____    ______ ____
ROOT
ATOM      1  O   UNL     1       4.601 -14.482  12.954  0.00  0.00    +0.000 OA
ATOM      2  O   UNL     1       6.167  -7.304  14.614  0.00  0.00    +0.000 OA
ATOM      3  N   UNL     1       5.256 -13.960  15.165  0.00  0.00    +0.000 N 
ATOM      4  N   UNL     1       4.026 -12.223  13.048  0.00  0.00    +0.000 N 
ATOM      5  N   UNL     1       7.200  -8.436  16.359  0.00  0.00    +0.000 N 
ATOM      6  C   UNL     1       4.516 -14.944  14.348  0.00  0.00    +0.000 C 
ATOM      7  C   UNL     1       2.957 -14.967  14.652  0.00  0.00    +0.000 C 
ATOM      8  C   UNL     1       3.582 -13.519  12.846  0.00  0.00    +0.000 C 
ATOM      9  C   UNL     1       2.528 -13.968  13.678  0.00  0.00    +0.000 C 
ATOM     10  C   UNL     1       5.472 -12.618  14.977  0.00  0.00    +0.000 A 
ATOM     11  C   UNL     1       4.918 -11.805  13.988  0.00  0.00    +0.000 A 
ATOM     12  C   UNL     1       6.258 -11.919  15.898  0.00  0.00    +0.000 A 
ATOM     13  C   UNL     1       5.231 -10.444  14.081  0.00  0.00    +0.000 A 
ATOM     14  C   UNL     1       5.201 -16.351  14.356  0.00  0.00    +0.000 C 
ATOM     15  C   UNL     1       5.922 -14.138  16.403  0.00  0.00    +0.000 A 
ATOM     16  C   UNL     1       3.665 -10.989  12.477  0.00  0.00    +0.000 A 
ATOM     17  C   UNL     1       6.560 -12.917  16.842  0.00  0.00    +0.000 A 
ATOM     18  C   UNL     1       6.604 -10.565  15.998  0.00  0.00    +0.000 A 
ATOM     19  C   UNL     1       6.036  -9.729  14.990  0.00  0.00    +0.000 A 
ATOM     20  C   UNL     1       4.405  -9.899  13.072  0.00  0.00    +0.000 A 
ATOM     21  C   UNL     1       7.372  -9.663  16.894  0.00  0.00    +0.000 C 
ATOM     22  C   UNL     1       6.010 -15.296  17.193  0.00  0.00    +0.000 A 
ATOM     23  C   UNL     1       6.409  -8.347  15.203  0.00  0.00    +0.000 C 
ATOM     24  C   UNL     1       2.734 -10.753  11.453  0.00  0.00    +0.000 A 
ATOM     25  C   UNL     1       7.274 -12.931  18.057  0.00  0.00    +0.000 A 
ATOM     26  C   UNL     1       4.154  -8.596  12.598  0.00  0.00    +0.000 A 
ATOM     27  C   UNL     1       6.730 -15.260  18.387  0.00  0.00    +0.000 A 
ATOM     28  C   UNL     1       7.358 -14.101  18.813  0.00  0.00    +0.000 A 
ATOM     29  C   UNL     1       2.532  -9.443  11.019  0.00  0.00    +0.000 A 
ATOM     30  C   UNL     1       3.228  -8.382  11.578  0.00  0.00    +0.000 A 
ATOM     31  H   UNL     1       7.613  -7.606  16.758  0.00  0.00    +0.000 HD
ENDROOT
BRANCH   7  32
ATOM     32  O   UNL     1       2.592 -14.521  15.967  0.00  0.00    +0.000 OA
ATOM     33  H   UNL     1       2.212 -15.292  16.442  0.00  0.00    +0.000 HD
ENDBRANCH   7  32
BRANCH   7  35
ATOM     34  O   UNL     1       2.348 -17.218  15.224  0.00  0.00    +0.000 OA
ATOM     35  C   UNL     1       2.342 -16.335  14.363  0.00  0.00    +0.000 C 
BRANCH  35  36
ATOM     36  O   UNL     1       1.782 -16.385  13.117  0.00  0.00    +0.000 OA
ATOM     37  C   UNL     1       2.204 -17.406  12.254  0.00  0.00    +0.000 C 
ENDBRANCH  35  36
ENDBRANCH   7  35
TORSDOF 3
ENDMDL
MODEL 3
REMARK VINA RESULT:      -6.9      2.300      5.957
REMARK  Name = 490561_Nocardiopsis.pdbqt.pdb
REMARK  3 active torsions:
REMARK  status: ('A' for Active; 'I' for Inactive)
REMARK    1  A    between atoms: C_7  and  O_32
REMARK    2  A    between atoms: C_7  and  C_35
REMARK    3  A    between atoms: C_35  and  O_36
REMARK                            x       y       z     vdW  Elec       q    Type
REMARK                         _______ _______ _______ _____ _____    ______ ____
ROOT
ATOM      1  O   UNL     1     -24.895  -3.958  13.422  0.00  0.00    +0.000 OA
ATOM      2  O   UNL     1     -21.975   2.411  10.657  0.00  0.00    +0.000 OA
ATOM      3  N   UNL     1     -23.256  -4.119  11.725  0.00  0.00    +0.000 N 
ATOM      4  N   UNL     1     -23.800  -1.915  13.688  0.00  0.00    +0.000 N 
ATOM      5  N   UNL     1     -21.438   0.877   8.997  0.00  0.00    +0.000 N 
ATOM      6  C   UNL     1     -23.876  -4.851  12.849  0.00  0.00    +0.000 C 
ATOM      7  C   UNL     1     -22.875  -5.117  14.054  0.00  0.00    +0.000 C 
ATOM      8  C   UNL     1     -24.169  -3.111  14.278  0.00  0.00    +0.000 C 
ATOM      9  C   UNL     1     -23.128  -3.901  14.822  0.00  0.00    +0.000 C 
ATOM     10  C   UNL     1     -23.075  -2.775  11.519  0.00  0.00    +0.000 A 
ATOM     11  C   UNL     1     -23.339  -1.742  12.418  0.00  0.00    +0.000 A 
ATOM     12  C   UNL     1     -22.487  -2.341  10.328  0.00  0.00    +0.000 A 
ATOM     13  C   UNL     1     -22.973  -0.461  11.989  0.00  0.00    +0.000 A 
ATOM     14  C   UNL     1     -24.663  -6.115  12.367  0.00  0.00    +0.000 C 
ATOM     15  C   UNL     1     -22.638  -4.625  10.554  0.00  0.00    +0.000 A 
ATOM     16  C   UNL     1     -23.683  -0.602  14.180  0.00  0.00    +0.000 A 
ATOM     17  C   UNL     1     -22.196  -3.558   9.685  0.00  0.00    +0.000 A 
ATOM     18  C   UNL     1     -22.133  -1.066   9.867  0.00  0.00    +0.000 A 
ATOM     19  C   UNL     1     -22.398  -0.006  10.785  0.00  0.00    +0.000 A 
ATOM     20  C   UNL     1     -23.208   0.301  13.155  0.00  0.00    +0.000 A 
ATOM     21  C   UNL     1     -21.490  -0.435   8.687  0.00  0.00    +0.000 C 
ATOM     22  C   UNL     1     -22.419  -5.963  10.185  0.00  0.00    +0.000 A 
ATOM     23  C   UNL     1     -21.957   1.261  10.243  0.00  0.00    +0.000 C 
ATOM     24  C   UNL     1     -23.979  -0.135  15.469  0.00  0.00    +0.000 A 
ATOM     25  C   UNL     1     -21.567  -3.898   8.470  0.00  0.00    +0.000 A 
ATOM     26  C   UNL     1     -23.044   1.658  13.499  0.00  0.00    +0.000 A 
ATOM     27  C   UNL     1     -21.794  -6.248   8.972  0.00  0.00    +0.000 A 
ATOM     28  C   UNL     1     -21.378  -5.235   8.123  0.00  0.00    +0.000 A 
ATOM     29  C   UNL     1     -23.804   1.219  15.750  0.00  0.00    +0.000 A 
ATOM     30  C   UNL     1     -23.346   2.103  14.785  0.00  0.00    +0.000 A 
ATOM     31  H   UNL     1     -21.046   1.568   8.375  0.00  0.00    +0.000 HD
ENDROOT
BRANCH   7  32
ATOM     32  O   UNL     1     -21.488  -5.156  13.688  0.00  0.00    +0.000 OA
ATOM     33  H   UNL     1     -20.975  -4.815  14.454  0.00  0.00    +0.000 HD
ENDBRANCH   7  32
BRANCH   7  35
ATOM     34  O   UNL     1     -22.632  -7.422  14.682  0.00  0.00    +0.000 OA
ATOM     35  C   UNL     1     -23.255  -6.369  14.842  0.00  0.00    +0.000 C 
BRANCH  35  36
ATOM     36  O   UNL     1     -24.275  -6.125  15.719  0.00  0.00    +0.000 OA
ATOM     37  C   UNL     1     -25.196  -7.157  15.950  0.00  0.00    +0.000 C 
ENDBRANCH  35  36
ENDBRANCH   7  35
TORSDOF 3
ENDMDL
MODEL 4
REMARK VINA RESULT:      -6.6     16.674     18.326
REMARK  Name = 490561_Nocardiopsis.pdbqt.pdb
REMARK  3 active torsions:
REMARK  status: ('A' for Active; 'I' for Inactive)
REMARK    1  A    between atoms: C_7  and  O_32
REMARK    2  A    between atoms: C_7  and  C_35
REMARK    3  A    between atoms: C_35  and  O_36
REMARK                            x       y       z     vdW  Elec       q    Type
REMARK                         _______ _______ _______ _____ _____    ______ ____
ROOT
ATOM      1  O   UNL     1     -11.004  -3.057  25.033  0.00  0.00    +0.000 OA
ATOM      2  O   UNL     1      -9.779   3.336  21.244  0.00  0.00    +0.000 OA
ATOM      3  N   UNL     1      -9.997  -3.194  22.898  0.00  0.00    +0.000 N 
ATOM      4  N   UNL     1     -10.088  -0.919  24.854  0.00  0.00    +0.000 N 
ATOM      5  N   UNL     1      -9.662   1.748  19.554  0.00  0.00    +0.000 N 
ATOM      6  C   UNL     1     -10.144  -3.900  24.188  0.00  0.00    +0.000 C 
ATOM      7  C   UNL     1      -8.785  -4.006  25.005  0.00  0.00    +0.000 C 
ATOM      8  C   UNL     1     -10.126  -2.101  25.573  0.00  0.00    +0.000 C 
ATOM      9  C   UNL     1      -8.892  -2.767  25.770  0.00  0.00    +0.000 C 
ATOM     10  C   UNL     1     -10.026  -1.856  22.598  0.00  0.00    +0.000 A 
ATOM     11  C   UNL     1     -10.083  -0.791  23.498  0.00  0.00    +0.000 A 
ATOM     12  C   UNL     1      -9.901  -1.453  21.265  0.00  0.00    +0.000 A 
ATOM     13  C   UNL     1     -10.004   0.485  22.929  0.00  0.00    +0.000 A 
ATOM     14  C   UNL     1     -10.917  -5.252  24.036  0.00  0.00    +0.000 C 
ATOM     15  C   UNL     1      -9.746  -3.722  21.607  0.00  0.00    +0.000 A 
ATOM     16  C   UNL     1      -9.946   0.428  25.234  0.00  0.00    +0.000 A 
ATOM     17  C   UNL     1      -9.717  -2.682  20.605  0.00  0.00    +0.000 A 
ATOM     18  C   UNL     1      -9.843  -0.186  20.671  0.00  0.00    +0.000 A 
ATOM     19  C   UNL     1      -9.898   0.906  21.587  0.00  0.00    +0.000 A 
ATOM     20  C   UNL     1      -9.920   1.299  24.080  0.00  0.00    +0.000 A 
ATOM     21  C   UNL     1      -9.683   0.418  19.323  0.00  0.00    +0.000 C 
ATOM     22  C   UNL     1      -9.529  -5.059  21.233  0.00  0.00    +0.000 A 
ATOM     23  C   UNL     1      -9.783   2.167  20.887  0.00  0.00    +0.000 C 
ATOM     24  C   UNL     1      -9.852   0.951  26.533  0.00  0.00    +0.000 A 
ATOM     25  C   UNL     1      -9.486  -3.046  19.263  0.00  0.00    +0.000 A 
ATOM     26  C   UNL     1      -9.787   2.684  24.303  0.00  0.00    +0.000 A 
ATOM     27  C   UNL     1      -9.307  -5.370  19.892  0.00  0.00    +0.000 A 
ATOM     28  C   UNL     1      -9.291  -4.384  18.919  0.00  0.00    +0.000 A 
ATOM     29  C   UNL     1      -9.729   2.331  26.694  0.00  0.00    +0.000 A 
ATOM     30  C   UNL     1      -9.697   3.185  25.601  0.00  0.00    +0.000 A 
ATOM     31  H   UNL     1      -9.563   2.426  18.814  0.00  0.00    +0.000 HD
ENDROOT
BRANCH   7  32
ATOM     32  O   UNL     1      -7.594  -3.955  24.204  0.00  0.00    +0.000 OA
ATOM     33  H   UNL     1      -6.833  -3.871  24.819  0.00  0.00    +0.000 HD
ENDBRANCH   7  32
BRANCH   7  35
ATOM     34  O   UNL     1      -9.455  -5.263  26.937  0.00  0.00    +0.000 OA
ATOM     35  C   UNL     1      -8.764  -5.231  25.916  0.00  0.00    +0.000 C 
BRANCH  35  36
ATOM     36  O   UNL     1      -7.962  -6.219  25.417  0.00  0.00    +0.000 OA
ATOM     37  C   UNL     1      -7.968  -7.457  26.075  0.00  0.00    +0.000 C 
ENDBRANCH  35  36
ENDBRANCH   7  35
TORSDOF 3
ENDMDL
MODEL 5
REMARK VINA RESULT:      -6.5     17.478     18.786
REMARK  Name = 490561_Nocardiopsis.pdbqt.pdb
REMARK  3 active torsions:
REMARK  status: ('A' for Active; 'I' for Inactive)
REMARK    1  A    between atoms: C_7  and  O_32
REMARK    2  A    between atoms: C_7  and  C_35
REMARK    3  A    between atoms: C_35  and  O_36
REMARK                            x       y       z     vdW  Elec       q    Type
REMARK                         _______ _______ _______ _____ _____    ______ ____
ROOT
ATOM      1  O   UNL     1      -6.835  -2.482  24.571  0.00  0.00    +0.000 OA
ATOM      2  O   UNL     1     -12.449  -7.190  26.317  0.00  0.00    +0.000 OA
ATOM      3  N   UNL     1      -8.650  -2.670  23.068  0.00  0.00    +0.000 N 
ATOM      4  N   UNL     1      -8.507  -3.241  26.011  0.00  0.00    +0.000 N 
ATOM      5  N   UNL     1     -12.761  -6.898  24.034  0.00  0.00    +0.000 N 
ATOM      6  C   UNL     1      -7.559  -1.774  23.504  0.00  0.00    +0.000 C 
ATOM      7  C   UNL     1      -8.079  -0.447  24.207  0.00  0.00    +0.000 C 
ATOM      8  C   UNL     1      -7.597  -2.237  25.727  0.00  0.00    +0.000 C 
ATOM      9  C   UNL     1      -8.117  -0.928  25.585  0.00  0.00    +0.000 C 
ATOM     10  C   UNL     1      -9.354  -3.628  23.752  0.00  0.00    +0.000 A 
ATOM     11  C   UNL     1      -9.284  -3.912  25.116  0.00  0.00    +0.000 A 
ATOM     12  C   UNL     1     -10.324  -4.374  23.076  0.00  0.00    +0.000 A 
ATOM     13  C   UNL     1     -10.184  -4.879  25.578  0.00  0.00    +0.000 A 
ATOM     14  C   UNL     1      -6.501  -1.540  22.376  0.00  0.00    +0.000 C 
ATOM     15  C   UNL     1      -9.297  -2.752  21.809  0.00  0.00    +0.000 A 
ATOM     16  C   UNL     1      -8.978  -3.792  27.217  0.00  0.00    +0.000 A 
ATOM     17  C   UNL     1     -10.290  -3.802  21.791  0.00  0.00    +0.000 A 
ATOM     18  C   UNL     1     -11.218  -5.361  23.511  0.00  0.00    +0.000 A 
ATOM     19  C   UNL     1     -11.152  -5.653  24.906  0.00  0.00    +0.000 A 
ATOM     20  C   UNL     1      -9.978  -4.808  26.974  0.00  0.00    +0.000 A 
ATOM     21  C   UNL     1     -12.306  -6.212  22.965  0.00  0.00    +0.000 C 
ATOM     22  C   UNL     1      -9.089  -1.967  20.663  0.00  0.00    +0.000 A 
ATOM     23  C   UNL     1     -12.141  -6.645  25.268  0.00  0.00    +0.000 C 
ATOM     24  C   UNL     1      -8.579  -3.473  28.523  0.00  0.00    +0.000 A 
ATOM     25  C   UNL     1     -11.018  -4.019  20.604  0.00  0.00    +0.000 A 
ATOM     26  C   UNL     1     -10.543  -5.456  28.090  0.00  0.00    +0.000 A 
ATOM     27  C   UNL     1      -9.833  -2.222  19.511  0.00  0.00    +0.000 A 
ATOM     28  C   UNL     1     -10.779  -3.234  19.476  0.00  0.00    +0.000 A 
ATOM     29  C   UNL     1      -9.167  -4.152  29.590  0.00  0.00    +0.000 A 
ATOM     30  C   UNL     1     -10.132  -5.127  29.381  0.00  0.00    +0.000 A 
ATOM     31  H   UNL     1     -13.514  -7.567  23.971  0.00  0.00    +0.000 HD
ENDROOT
BRANCH   7  32
ATOM     32  O   UNL     1      -9.399  -0.037  23.821  0.00  0.00    +0.000 OA
ATOM     33  H   UNL     1      -9.982  -0.825  23.894  0.00  0.00    +0.000 HD
ENDBRANCH   7  32
BRANCH   7  35
ATOM     34  O   UNL     1      -6.060   0.749  24.713  0.00  0.00    +0.000 OA
ATOM     35  C   UNL     1      -7.092   0.708  24.041  0.00  0.00    +0.000 C 
BRANCH  35  36
ATOM     36  O   UNL     1      -7.490   1.576  23.062  0.00  0.00    +0.000 OA
ATOM     37  C   UNL     1      -6.493   2.174  22.278  0.00  0.00    +0.000 C 
ENDBRANCH  35  36
ENDBRANCH   7  35
TORSDOF 3
ENDMDL
MODEL 6
REMARK VINA RESULT:      -6.4     21.424     23.732
REMARK  Name = 490561_Nocardiopsis.pdbqt.pdb
REMARK  3 active torsions:
REMARK  status: ('A' for Active; 'I' for Inactive)
REMARK    1  A    between atoms: C_7  and  O_32
REMARK    2  A    between atoms: C_7  and  C_35
REMARK    3  A    between atoms: C_35  and  O_36
REMARK                            x       y       z     vdW  Elec       q    Type
REMARK                         _______ _______ _______ _____ _____    ______ ____
ROOT
ATOM      1  O   UNL     1      -3.729  -6.023  -2.265  0.00  0.00    +0.000 OA
ATOM      2  O   UNL     1      -3.449  -0.171   2.468  0.00  0.00    +0.000 OA
ATOM      3  N   UNL     1      -2.517  -6.268  -0.251  0.00  0.00    +0.000 N 
ATOM      4  N   UNL     1      -4.758  -4.397  -0.946  0.00  0.00    +0.000 N 
ATOM      5  N   UNL     1      -1.654  -1.458   3.189  0.00  0.00    +0.000 N 
ATOM      6  C   UNL     1      -3.231  -7.019  -1.304  0.00  0.00    +0.000 C 
ATOM      7  C   UNL     1      -4.546  -7.740  -0.779  0.00  0.00    +0.000 C 
ATOM      8  C   UNL     1      -4.923  -5.553  -1.689  0.00  0.00    +0.000 C 
ATOM      9  C   UNL     1      -5.500  -6.662  -1.023  0.00  0.00    +0.000 C 
ATOM     10  C   UNL     1      -2.701  -4.995   0.227  0.00  0.00    +0.000 A 
ATOM     11  C   UNL     1      -3.729  -4.112  -0.101  0.00  0.00    +0.000 A 
ATOM     12  C   UNL     1      -1.842  -4.508   1.217  0.00  0.00    +0.000 A 
ATOM     13  C   UNL     1      -3.736  -2.904   0.606  0.00  0.00    +0.000 A 
ATOM     14  C   UNL     1      -2.270  -7.939  -2.127  0.00  0.00    +0.000 C 
ATOM     15  C   UNL     1      -1.453  -6.686   0.588  0.00  0.00    +0.000 A 
ATOM     16  C   UNL     1      -5.571  -3.267  -0.744  0.00  0.00    +0.000 A 
ATOM     17  C   UNL     1      -1.014  -5.620   1.459  0.00  0.00    +0.000 A 
ATOM     18  C   UNL     1      -1.814  -3.297   1.920  0.00  0.00    +0.000 A 
ATOM     19  C   UNL     1      -2.867  -2.392   1.591  0.00  0.00    +0.000 A 
ATOM     20  C   UNL     1      -4.955  -2.336   0.175  0.00  0.00    +0.000 A 
ATOM     21  C   UNL     1      -1.028  -2.637   2.994  0.00  0.00    +0.000 C 
ATOM     22  C   UNL     1      -0.834  -7.945   0.657  0.00  0.00    +0.000 A 
ATOM     23  C   UNL     1      -2.783  -1.195   2.399  0.00  0.00    +0.000 C 
ATOM     24  C   UNL     1      -6.818  -2.987  -1.324  0.00  0.00    +0.000 A 
ATOM     25  C   UNL     1       0.047  -5.874   2.351  0.00  0.00    +0.000 A 
ATOM     26  C   UNL     1      -5.652  -1.148   0.474  0.00  0.00    +0.000 A 
ATOM     27  C   UNL     1       0.214  -8.147   1.556  0.00  0.00    +0.000 A 
ATOM     28  C   UNL     1       0.654  -7.129   2.386  0.00  0.00    +0.000 A 
ATOM     29  C   UNL     1      -7.459  -1.793  -0.996  0.00  0.00    +0.000 A 
ATOM     30  C   UNL     1      -6.889  -0.887  -0.114  0.00  0.00    +0.000 A 
ATOM     31  H   UNL     1      -1.342  -0.782   3.871  0.00  0.00    +0.000 HD
ENDROOT
BRANCH   7  32
ATOM     32  O   UNL     1      -4.546  -8.051   0.622  0.00  0.00    +0.000 OA
ATOM     33  H   UNL     1      -5.019  -7.324   1.083  0.00  0.00    +0.000 HD
ENDBRANCH   7  32
BRANCH   7  35
ATOM     34  O   UNL     1      -4.405 -10.080  -1.297  0.00  0.00    +0.000 OA
ATOM     35  C   UNL     1      -4.879  -8.983  -1.602  0.00  0.00    +0.000 C 
BRANCH  35  36
ATOM     36  O   UNL     1      -5.762  -8.702  -2.607  0.00  0.00    +0.000 OA
ATOM     37  C   UNL     1      -5.351  -8.956  -3.924  0.00  0.00    +0.000 C 
ENDBRANCH  35  36
ENDBRANCH   7  35
TORSDOF 3
ENDMDL
MODEL 7
REMARK VINA RESULT:      -6.3     20.513     24.474
REMARK  Name = 490561_Nocardiopsis.pdbqt.pdb
REMARK  3 active torsions:
REMARK  status: ('A' for Active; 'I' for Inactive)
REMARK    1  A    between atoms: C_7  and  O_32
REMARK    2  A    between atoms: C_7  and  C_35
REMARK    3  A    between atoms: C_35  and  O_36
REMARK                            x       y       z     vdW  Elec       q    Type
REMARK                         _______ _______ _______ _____ _____    ______ ____
ROOT
ATOM      1  O   UNL     1      -4.381  -7.596   1.267  0.00  0.00    +0.000 OA
ATOM      2  O   UNL     1      -6.685 -11.925  -4.449  0.00  0.00    +0.000 OA
ATOM      3  N   UNL     1      -2.962  -7.823  -0.610  0.00  0.00    +0.000 N 
ATOM      4  N   UNL     1      -5.933  -8.174  -0.375  0.00  0.00    +0.000 N 
ATOM      5  N   UNL     1      -4.398 -11.796  -4.837  0.00  0.00    +0.000 N 
ATOM      6  C   UNL     1      -3.289  -6.942   0.530  0.00  0.00    +0.000 C 
ATOM      7  C   UNL     1      -3.904  -5.545   0.088  0.00  0.00    +0.000 C 
ATOM      8  C   UNL     1      -5.541  -7.233   0.560  0.00  0.00    +0.000 C 
ATOM      9  C   UNL     1      -5.315  -5.918   0.085  0.00  0.00    +0.000 C 
ATOM     10  C   UNL     1      -3.743  -8.697  -1.323  0.00  0.00    +0.000 A 
ATOM     11  C   UNL     1      -5.121  -8.879  -1.211  0.00  0.00    +0.000 A 
ATOM     12  C   UNL     1      -3.161  -9.453  -2.345  0.00  0.00    +0.000 A 
ATOM     13  C   UNL     1      -5.688  -9.771  -2.128  0.00  0.00    +0.000 A 
ATOM     14  C   UNL     1      -2.109  -6.838   1.552  0.00  0.00    +0.000 C 
ATOM     15  C   UNL     1      -1.737  -7.975  -1.307  0.00  0.00    +0.000 A 
ATOM     16  C   UNL     1      -7.194  -8.612  -0.821  0.00  0.00    +0.000 A 
ATOM     17  C   UNL     1      -1.836  -8.982  -2.339  0.00  0.00    +0.000 A 
ATOM     18  C   UNL     1      -3.703 -10.367  -3.258  0.00  0.00    +0.000 A 
ATOM     19  C   UNL     1      -5.113 -10.554  -3.150  0.00  0.00    +0.000 A 
ATOM     20  C   UNL     1      -7.066  -9.602  -1.867  0.00  0.00    +0.000 A 
ATOM     21  C   UNL     1      -3.263 -11.212  -4.398  0.00  0.00    +0.000 C 
ATOM     22  C   UNL     1      -0.526  -7.288  -1.114  0.00  0.00    +0.000 A 
ATOM     23  C   UNL     1      -5.585 -11.474  -4.161  0.00  0.00    +0.000 C 
ATOM     24  C   UNL     1      -8.457  -8.211  -0.360  0.00  0.00    +0.000 A 
ATOM     25  C   UNL     1      -0.695  -9.259  -3.119  0.00  0.00    +0.000 A 
ATOM     26  C   UNL     1      -8.249 -10.140  -2.412  0.00  0.00    +0.000 A 
ATOM     27  C   UNL     1       0.575  -7.600  -1.911  0.00  0.00    +0.000 A 
ATOM     28  C   UNL     1       0.498  -8.573  -2.894  0.00  0.00    +0.000 A 
ATOM     29  C   UNL     1      -9.594  -8.782  -0.932  0.00  0.00    +0.000 A 
ATOM     30  C   UNL     1      -9.495  -9.730  -1.940  0.00  0.00    +0.000 A 
ATOM     31  H   UNL     1      -4.414 -12.437  -5.616  0.00  0.00    +0.000 HD
ENDROOT
BRANCH   7  32
ATOM     32  O   UNL     1      -3.534  -5.113  -1.230  0.00  0.00    +0.000 OA
ATOM     33  H   UNL     1      -4.345  -4.763  -1.660  0.00  0.00    +0.000 HD
ENDBRANCH   7  32
BRANCH   7  35
ATOM     34  O   UNL     1      -4.256  -4.387   2.161  0.00  0.00    +0.000 OA
ATOM     35  C   UNL     1      -3.614  -4.447   1.110  0.00  0.00    +0.000 C 
BRANCH  35  36
ATOM     36  O   UNL     1      -2.573  -3.652   0.718  0.00  0.00    +0.000 OA
ATOM     37  C   UNL     1      -1.773  -3.085   1.719  0.00  0.00    +0.000 C 
ENDBRANCH  35  36
ENDBRANCH   7  35
TORSDOF 3
ENDMDL
MODEL 8
REMARK VINA RESULT:      -6.3     20.751     25.249
REMARK  Name = 490561_Nocardiopsis.pdbqt.pdb
REMARK  3 active torsions:
REMARK  status: ('A' for Active; 'I' for Inactive)
REMARK    1  A    between atoms: C_7  and  O_32
REMARK    2  A    between atoms: C_7  and  C_35
REMARK    3  A    between atoms: C_35  and  O_36
REMARK                            x       y       z     vdW  Elec       q    Type
REMARK                         _______ _______ _______ _____ _____    ______ ____
ROOT
ATOM      1  O   UNL     1      -3.530  -5.851  -1.115  0.00  0.00    +0.000 OA
ATOM      2  O   UNL     1      -1.968 -11.976  -5.210  0.00  0.00    +0.000 OA
ATOM      3  N   UNL     1      -5.102  -7.616  -1.136  0.00  0.00    +0.000 N 
ATOM      4  N   UNL     1      -2.152  -7.645  -1.683  0.00  0.00    +0.000 N 
ATOM      5  N   UNL     1      -4.264 -12.169  -4.915  0.00  0.00    +0.000 N 
ATOM      6  C   UNL     1      -4.631  -6.458  -0.350  0.00  0.00    +0.000 C 
ATOM      7  C   UNL     1      -3.960  -6.867   1.032  0.00  0.00    +0.000 C 
ATOM      8  C   UNL     1      -2.407  -6.627  -0.780  0.00  0.00    +0.000 C 
ATOM      9  C   UNL     1      -2.581  -7.006   0.574  0.00  0.00    +0.000 C 
ATOM     10  C   UNL     1      -4.438  -8.440  -2.009  0.00  0.00    +0.000 A 
ATOM     11  C   UNL     1      -3.070  -8.451  -2.283  0.00  0.00    +0.000 A 
ATOM     12  C   UNL     1      -5.146  -9.453  -2.662  0.00  0.00    +0.000 A 
ATOM     13  C   UNL     1      -2.637  -9.461  -3.148  0.00  0.00    +0.000 A 
ATOM     14  C   UNL     1      -5.718  -5.339  -0.238  0.00  0.00    +0.000 C 
ATOM     15  C   UNL     1      -6.385  -8.219  -1.168  0.00  0.00    +0.000 A 
ATOM     16  C   UNL     1      -0.961  -8.215  -2.169  0.00  0.00    +0.000 A 
ATOM     17  C   UNL     1      -6.433  -9.313  -2.112  0.00  0.00    +0.000 A 
ATOM     18  C   UNL     1      -4.739 -10.459  -3.549  0.00  0.00    +0.000 A 
ATOM     19  C   UNL     1      -3.340 -10.477  -3.828  0.00  0.00    +0.000 A 
ATOM     20  C   UNL     1      -1.234  -9.303  -3.081  0.00  0.00    +0.000 A 
ATOM     21  C   UNL     1      -5.320 -11.606  -4.292  0.00  0.00    +0.000 C 
ATOM     22  C   UNL     1      -7.528  -7.890  -0.421  0.00  0.00    +0.000 A 
ATOM     23  C   UNL     1      -3.009 -11.574  -4.711  0.00  0.00    +0.000 C 
ATOM     24  C   UNL     1       0.358  -7.836  -1.876  0.00  0.00    +0.000 A 
ATOM     25  C   UNL     1      -7.646 -10.013  -2.269  0.00  0.00    +0.000 A 
ATOM     26  C   UNL     1      -0.136  -9.973  -3.656  0.00  0.00    +0.000 A 
ATOM     27  C   UNL     1      -8.706  -8.611  -0.613  0.00  0.00    +0.000 A 
ATOM     28  C   UNL     1      -8.770  -9.652  -1.526  0.00  0.00    +0.000 A 
ATOM     29  C   UNL     1       1.406  -8.530  -2.480  0.00  0.00    +0.000 A 
ATOM     30  C   UNL     1       1.167  -9.580  -3.355  0.00  0.00    +0.000 A 
ATOM     31  H   UNL     1      -4.351 -12.983  -5.506  0.00  0.00    +0.000 HD
ENDROOT
BRANCH   7  32
ATOM     32  O   UNL     1      -4.401  -8.123   1.568  0.00  0.00    +0.000 OA
ATOM     33  H   UNL     1      -3.851  -8.311   2.360  0.00  0.00    +0.000 HD
ENDBRANCH   7  32
BRANCH   7  35
ATOM     34  O   UNL     1      -4.969  -5.829   2.947  0.00  0.00    +0.000 OA
ATOM     35  C   UNL     1      -4.097  -5.763   2.078  0.00  0.00    +0.000 C 
BRANCH  35  36
ATOM     36  O   UNL     1      -3.133  -4.804   1.931  0.00  0.00    +0.000 OA
ATOM     37  C   UNL     1      -3.494  -3.473   2.183  0.00  0.00    +0.000 C 
ENDBRANCH  35  36
ENDBRANCH   7  35
TORSDOF 3
ENDMDL
MODEL 9
REMARK VINA RESULT:      -6.1     27.947     29.460
REMARK  Name = 490561_Nocardiopsis.pdbqt.pdb
REMARK  3 active torsions:
REMARK  status: ('A' for Active; 'I' for Inactive)
REMARK    1  A    between atoms: C_7  and  O_32
REMARK    2  A    between atoms: C_7  and  C_35
REMARK    3  A    between atoms: C_35  and  O_36
REMARK                            x       y       z     vdW  Elec       q    Type
REMARK                         _______ _______ _______ _____ _____    ______ ____
ROOT
ATOM      1  O   UNL     1       6.988  -9.609  17.970  0.00  0.00    +0.000 OA
ATOM      2  O   UNL     1       2.781 -14.043  13.568  0.00  0.00    +0.000 OA
ATOM      3  N   UNL     1       5.930  -8.643  16.089  0.00  0.00    +0.000 N 
ATOM      4  N   UNL     1       5.234 -11.113  17.646  0.00  0.00    +0.000 N 
ATOM      5  N   UNL     1       3.187 -12.230  12.175  0.00  0.00    +0.000 N 
ATOM      6  C   UNL     1       6.491  -8.338  17.421  0.00  0.00    +0.000 C 
ATOM      7  C   UNL     1       5.396  -7.867  18.472  0.00  0.00    +0.000 C 
ATOM      8  C   UNL     1       5.844 -10.222  18.512  0.00  0.00    +0.000 C 
ATOM      9  C   UNL     1       5.040  -9.173  19.018  0.00  0.00    +0.000 C 
ATOM     10  C   UNL     1       5.354  -9.787  15.598  0.00  0.00    +0.000 A 
ATOM     11  C   UNL     1       5.041 -10.946  16.309  0.00  0.00    +0.000 A 
ATOM     12  C   UNL     1       4.938  -9.822  14.264  0.00  0.00    +0.000 A 
ATOM     13  C   UNL     1       4.368 -11.935  15.583  0.00  0.00    +0.000 A 
ATOM     14  C   UNL     1       7.748  -7.410  17.333  0.00  0.00    +0.000 C 
ATOM     15  C   UNL     1       5.801  -7.805  14.953  0.00  0.00    +0.000 A 
ATOM     16  C   UNL     1       4.569 -12.337  17.846  0.00  0.00    +0.000 A 
ATOM     17  C   UNL     1       5.231  -8.516  13.832  0.00  0.00    +0.000 A 
ATOM     18  C   UNL     1       4.285 -10.807  13.511  0.00  0.00    +0.000 A 
ATOM     19  C   UNL     1       3.960 -11.993  14.235  0.00  0.00    +0.000 A 
ATOM     20  C   UNL     1       4.060 -12.866  16.600  0.00  0.00    +0.000 A 
ATOM     21  C   UNL     1       3.750 -11.004  12.140  0.00  0.00    +0.000 C 
ATOM     22  C   UNL     1       6.140  -6.448  14.822  0.00  0.00    +0.000 A 
ATOM     23  C   UNL     1       3.249 -12.928  13.390  0.00  0.00    +0.000 C 
ATOM     24  C   UNL     1       4.390 -13.034  19.051  0.00  0.00    +0.000 A 
ATOM     25  C   UNL     1       5.047  -7.821  12.619  0.00  0.00    +0.000 A 
ATOM     26  C   UNL     1       3.371 -14.095  16.640  0.00  0.00    +0.000 A 
ATOM     27  C   UNL     1       5.940  -5.805  13.601  0.00  0.00    +0.000 A 
ATOM     28  C   UNL     1       5.408  -6.478  12.513  0.00  0.00    +0.000 A 
ATOM     29  C   UNL     1       3.707 -14.249  19.029  0.00  0.00    +0.000 A 
ATOM     30  C   UNL     1       3.205 -14.773  17.846  0.00  0.00    +0.000 A 
ATOM     31  H   UNL     1       2.734 -12.644  11.373  0.00  0.00    +0.000 HD
ENDROOT
BRANCH   7  32
ATOM     32  O   UNL     1       4.225  -7.269  17.896  0.00  0.00    +0.000 OA
ATOM     33  H   UNL     1       4.258  -7.437  16.928  0.00  0.00    +0.000 HD
ENDBRANCH   7  32
BRANCH   7  35
ATOM     34  O   UNL     1       6.660  -7.422  20.464  0.00  0.00    +0.000 OA
ATOM     35  C   UNL     1       5.990  -6.952  19.541  0.00  0.00    +0.000 C 
BRANCH  35  36
ATOM     36  O   UNL     1       5.723  -5.636  19.287  0.00  0.00    +0.000 OA
ATOM     37  C   UNL     1       5.272  -4.845  20.353  0.00  0.00    +0.000 C 
ENDBRANCH  35  36
ENDBRANCH   7  35
TORSDOF 3
ENDMDL
