MODEL 1
REMARK VINA RESULT:      -6.2      0.000      0.000
REMARK  Name = 50922675_Encorafenib.pdbqt.pdb
REMARK  8 active torsions:
REMARK  status: ('A' for Active; 'I' for Inactive)
REMARK    1  A    between atoms: N_1  and  C_37
REMARK    2  A    between atoms: C_3  and  C_23
REMARK    3  A    between atoms: C_4  and  C_8
REMARK    4  A    between atoms: C_11  and  N_14
REMARK    5  A    between atoms: N_14  and  S_16
REMARK    6  A    between atoms: N_20  and  C_28
REMARK    7  A    between atoms: C_28  and  C_29
REMARK    8  A    between atoms: C_33  and  O_35
REMARK                            x       y       z     vdW  Elec       q    Type
REMARK                         _______ _______ _______ _____ _____    ______ ____
ROOT
ATOM      1  N   UNL     1      -9.125  -4.024  19.909  0.00  0.00    +0.000 N 
ATOM      2  N   UNL     1      -8.870  -4.424  21.205  0.00  0.00    +0.000 NA
ATOM      3  C   UNL     1      -9.387  -2.201  21.216  0.00  0.00    +0.000 A 
ATOM      4  C   UNL     1      -9.053  -3.349  21.986  0.00  0.00    +0.000 A 
ATOM      5  C   UNL     1      -9.420  -2.667  19.923  0.00  0.00    +0.000 A 
ENDROOT
BRANCH   4   8
ATOM      6 CL   UNL     1      -7.221  -1.292  26.339  0.00  0.00    +0.000 Cl
ATOM      7  F   UNL     1      -9.839  -5.649  23.491  0.00  0.00    +0.000 F 
ATOM      8  C   UNL     1      -8.849  -3.478  23.424  0.00  0.00    +0.000 A 
ATOM      9  C   UNL     1      -9.230  -4.631  24.121  0.00  0.00    +0.000 A 
ATOM     10  C   UNL     1      -8.205  -2.454  24.121  0.00  0.00    +0.000 A 
ATOM     11  C   UNL     1      -8.995  -4.752  25.495  0.00  0.00    +0.000 A 
ATOM     12  C   UNL     1      -7.968  -2.576  25.486  0.00  0.00    +0.000 A 
ATOM     13  C   UNL     1      -8.344  -3.724  26.173  0.00  0.00    +0.000 A 
BRANCH  11  14
ATOM     14  N   UNL     1      -9.302  -5.984  26.166  0.00  0.00    +0.000 N 
ATOM     15  H   UNL     1      -8.987  -6.812  25.653  0.00  0.00    +0.000 HD
BRANCH  14  16
ATOM     16  S   UNL     1     -10.889  -6.246  26.637  0.00  0.00    +0.000 S 
ATOM     17  O   UNL     1     -11.453  -5.079  27.261  0.00  0.00    +0.000 OA
ATOM     18  O   UNL     1     -11.605  -7.192  25.810  0.00  0.00    +0.000 OA
ATOM     19  C   UNL     1     -10.783  -7.250  28.088  0.00  0.00    +0.000 C 
ENDBRANCH  14  16
ENDBRANCH  11  14
ENDBRANCH   4   8
BRANCH   3  23
ATOM     20  N   UNL     1     -11.973   0.880  23.747  0.00  0.00    +0.000 N 
ATOM     21  N   UNL     1     -10.666  -0.633  22.468  0.00  0.00    +0.000 NA
ATOM     22  N   UNL     1     -10.348   1.701  22.305  0.00  0.00    +0.000 NA
ATOM     23  C   UNL     1      -9.686  -0.822  21.566  0.00  0.00    +0.000 A 
ATOM     24  C   UNL     1     -10.968   0.631  22.812  0.00  0.00    +0.000 A 
ATOM     25  C   UNL     1      -8.993   0.216  20.985  0.00  0.00    +0.000 A 
ATOM     26  C   UNL     1      -9.377   1.464  21.404  0.00  0.00    +0.000 A 
ATOM     27  H   UNL     1     -12.218   1.863  23.700  0.00  0.00    +0.000 HD
BRANCH  20  28
ATOM     28  C   UNL     1     -13.047  -0.102  23.839  0.00  0.00    +0.000 C 
BRANCH  28  29
ATOM     29  C   UNL     1     -14.145  -1.000  23.826  0.00  0.00    +0.000 C 
ATOM     30  C   UNL     1     -15.442  -0.510  23.258  0.00  0.00    +0.000 C 
ATOM     31  O   UNL     1     -11.942  -2.477  24.937  0.00  0.00    +0.000 OA
ATOM     32  N   UNL     1     -14.068  -2.326  24.085  0.00  0.00    +0.000 N 
ATOM     33  C   UNL     1     -12.988  -3.008  24.580  0.00  0.00    +0.000 C 
ATOM     34  H   UNL     1     -14.900  -2.859  23.846  0.00  0.00    +0.000 HD
BRANCH  33  35
ATOM     35  O   UNL     1     -13.269  -4.354  24.624  0.00  0.00    +0.000 OA
ATOM     36  C   UNL     1     -13.091  -5.110  23.453  0.00  0.00    +0.000 C 
ENDBRANCH  33  35
ENDBRANCH  28  29
ENDBRANCH  20  28
ENDBRANCH   3  23
BRANCH   1  37
ATOM     37  C   UNL     1      -9.094  -4.810  18.730  0.00  0.00    +0.000 C 
ATOM     38  C   UNL     1      -9.800  -4.378  17.456  0.00  0.00    +0.000 C 
ATOM     39  C   UNL     1      -8.342  -6.123  18.655  0.00  0.00    +0.000 C 
ENDBRANCH   1  37
TORSDOF 8
ENDMDL
MODEL 2
REMARK VINA RESULT:      -6.2     18.745     21.625
REMARK  Name = 50922675_Encorafenib.pdbqt.pdb
REMARK  8 active torsions:
REMARK  status: ('A' for Active; 'I' for Inactive)
REMARK    1  A    between atoms: N_1  and  C_37
REMARK    2  A    between atoms: C_3  and  C_23
REMARK    3  A    between atoms: C_4  and  C_8
REMARK    4  A    between atoms: C_11  and  N_14
REMARK    5  A    between atoms: N_14  and  S_16
REMARK    6  A    between atoms: N_20  and  C_28
REMARK    7  A    between atoms: C_28  and  C_29
REMARK    8  A    between atoms: C_33  and  O_35
REMARK                            x       y       z     vdW  Elec       q    Type
REMARK                         _______ _______ _______ _____ _____    ______ ____
ROOT
ATOM      1  N   UNL     1     -24.046  -8.715   6.868  0.00  0.00    +0.000 N 
ATOM      2  N   UNL     1     -24.172  -8.018   5.682  0.00  0.00    +0.000 NA
ATOM      3  C   UNL     1     -22.589  -6.993   6.968  0.00  0.00    +0.000 A 
ATOM      4  C   UNL     1     -23.286  -7.011   5.729  0.00  0.00    +0.000 A 
ATOM      5  C   UNL     1     -23.095  -8.074   7.650  0.00  0.00    +0.000 A 
ENDROOT
BRANCH   4   8
ATOM      6 CL   UNL     1     -21.717  -6.192   0.892  0.00  0.00    +0.000 Cl
ATOM      7  F   UNL     1     -24.269  -4.326   5.787  0.00  0.00    +0.000 F 
ATOM      8  C   UNL     1     -23.197  -6.098   4.597  0.00  0.00    +0.000 A 
ATOM      9  C   UNL     1     -23.672  -4.782   4.673  0.00  0.00    +0.000 A 
ATOM     10  C   UNL     1     -22.571  -6.518   3.422  0.00  0.00    +0.000 A 
ATOM     11  C   UNL     1     -23.547  -3.908   3.588  0.00  0.00    +0.000 A 
ATOM     12  C   UNL     1     -22.444  -5.649   2.345  0.00  0.00    +0.000 A 
ATOM     13  C   UNL     1     -22.913  -4.343   2.426  0.00  0.00    +0.000 A 
BRANCH  11  14
ATOM     14  N   UNL     1     -23.950  -2.537   3.725  0.00  0.00    +0.000 N 
ATOM     15  H   UNL     1     -23.718  -2.139   4.640  0.00  0.00    +0.000 HD
BRANCH  14  16
ATOM     16  S   UNL     1     -25.545  -2.149   3.387  0.00  0.00    +0.000 S 
ATOM     17  O   UNL     1     -26.415  -3.277   3.589  0.00  0.00    +0.000 OA
ATOM     18  O   UNL     1     -25.883  -0.765   3.631  0.00  0.00    +0.000 OA
ATOM     19  C   UNL     1     -25.646  -2.099   1.623  0.00  0.00    +0.000 C 
ENDBRANCH  14  16
ENDBRANCH  11  14
ENDBRANCH   4   8
BRANCH   3  23
ATOM     20  N   UNL     1     -20.493  -5.043  10.763  0.00  0.00    +0.000 N 
ATOM     21  N   UNL     1     -21.518  -6.000   8.848  0.00  0.00    +0.000 NA
ATOM     22  N   UNL     1     -19.657  -4.562   8.649  0.00  0.00    +0.000 NA
ATOM     23  C   UNL     1     -21.546  -6.136   7.509  0.00  0.00    +0.000 A 
ATOM     24  C   UNL     1     -20.567  -5.212   9.380  0.00  0.00    +0.000 A 
ATOM     25  C   UNL     1     -20.654  -5.503   6.674  0.00  0.00    +0.000 A 
ATOM     26  C   UNL     1     -19.725  -4.725   7.316  0.00  0.00    +0.000 A 
ATOM     27  H   UNL     1     -19.889  -4.252  10.956  0.00  0.00    +0.000 HD
BRANCH  20  28
ATOM     28  C   UNL     1     -21.738  -5.170  11.511  0.00  0.00    +0.000 C 
BRANCH  28  29
ATOM     29  C   UNL     1     -22.987  -5.183  12.182  0.00  0.00    +0.000 C 
ATOM     30  C   UNL     1     -24.116  -4.409  11.573  0.00  0.00    +0.000 C 
ATOM     31  O   UNL     1     -21.247  -6.866  13.736  0.00  0.00    +0.000 OA
ATOM     32  N   UNL     1     -23.309  -6.004  13.210  0.00  0.00    +0.000 N 
ATOM     33  C   UNL     1     -22.461  -6.824  13.907  0.00  0.00    +0.000 C 
ATOM     34  H   UNL     1     -24.296  -6.024  13.450  0.00  0.00    +0.000 HD
BRANCH  33  35
ATOM     35  O   UNL     1     -23.176  -7.564  14.819  0.00  0.00    +0.000 OA
ATOM     36  C   UNL     1     -24.036  -6.885  15.699  0.00  0.00    +0.000 C 
ENDBRANCH  33  35
ENDBRANCH  28  29
ENDBRANCH  20  28
ENDBRANCH   3  23
BRANCH   1  37
ATOM     37  C   UNL     1     -24.746  -9.878   7.275  0.00  0.00    +0.000 C 
ATOM     38  C   UNL     1     -25.550 -10.718   6.298  0.00  0.00    +0.000 C 
ATOM     39  C   UNL     1     -24.725 -10.372   8.707  0.00  0.00    +0.000 C 
ENDBRANCH   1  37
TORSDOF 8
ENDMDL
MODEL 3
REMARK VINA RESULT:      -6.0      4.486      7.255
REMARK  Name = 50922675_Encorafenib.pdbqt.pdb
REMARK  8 active torsions:
REMARK  status: ('A' for Active; 'I' for Inactive)
REMARK    1  A    between atoms: N_1  and  C_37
REMARK    2  A    between atoms: C_3  and  C_23
REMARK    3  A    between atoms: C_4  and  C_8
REMARK    4  A    between atoms: C_11  and  N_14
REMARK    5  A    between atoms: N_14  and  S_16
REMARK    6  A    between atoms: N_20  and  C_28
REMARK    7  A    between atoms: C_28  and  C_29
REMARK    8  A    between atoms: C_33  and  O_35
REMARK                            x       y       z     vdW  Elec       q    Type
REMARK                         _______ _______ _______ _____ _____    ______ ____
ROOT
ATOM      1  N   UNL     1      -9.202   1.445  20.055  0.00  0.00    +0.000 N 
ATOM      2  N   UNL     1      -9.811   0.213  19.939  0.00  0.00    +0.000 NA
ATOM      3  C   UNL     1      -8.129   0.054  21.473  0.00  0.00    +0.000 A 
ATOM      4  C   UNL     1      -9.193  -0.608  20.802  0.00  0.00    +0.000 A 
ATOM      5  C   UNL     1      -8.168   1.335  20.976  0.00  0.00    +0.000 A 
ENDROOT
BRANCH   4   8
ATOM      6 CL   UNL     1      -8.686  -5.468  19.172  0.00  0.00    +0.000 Cl
ATOM      7  F   UNL     1     -11.305  -1.483  22.519  0.00  0.00    +0.000 F 
ATOM      8  C   UNL     1      -9.633  -1.995  20.894  0.00  0.00    +0.000 A 
ATOM      9  C   UNL     1     -10.686  -2.379  21.733  0.00  0.00    +0.000 A 
ATOM     10  C   UNL     1      -9.032  -2.961  20.086  0.00  0.00    +0.000 A 
ATOM     11  C   UNL     1     -11.118  -3.709  21.784  0.00  0.00    +0.000 A 
ATOM     12  C   UNL     1      -9.463  -4.282  20.133  0.00  0.00    +0.000 A 
ATOM     13  C   UNL     1     -10.512  -4.658  20.964  0.00  0.00    +0.000 A 
BRANCH  11  14
ATOM     14  N   UNL     1     -12.264  -4.058  22.575  0.00  0.00    +0.000 N 
ATOM     15  H   UNL     1     -13.049  -3.412  22.453  0.00  0.00    +0.000 HD
BRANCH  14  16
ATOM     16  S   UNL     1     -12.042  -4.292  24.219  0.00  0.00    +0.000 S 
ATOM     17  O   UNL     1     -10.738  -4.830  24.503  0.00  0.00    +0.000 OA
ATOM     18  O   UNL     1     -12.776  -3.368  25.054  0.00  0.00    +0.000 OA
ATOM     19  C   UNL     1     -12.975  -5.741  24.612  0.00  0.00    +0.000 C 
ENDBRANCH  14  16
ENDBRANCH  11  14
ENDBRANCH   4   8
BRANCH   3  23
ATOM     20  N   UNL     1      -3.977   0.733  23.686  0.00  0.00    +0.000 N 
ATOM     21  N   UNL     1      -6.055   0.366  22.599  0.00  0.00    +0.000 NA
ATOM     22  N   UNL     1      -5.312  -1.055  24.331  0.00  0.00    +0.000 NA
ATOM     23  C   UNL     1      -7.175  -0.371  22.486  0.00  0.00    +0.000 A 
ATOM     24  C   UNL     1      -5.152  -0.002  23.525  0.00  0.00    +0.000 A 
ATOM     25  C   UNL     1      -7.427  -1.475  23.267  0.00  0.00    +0.000 A 
ATOM     26  C   UNL     1      -6.445  -1.765  24.180  0.00  0.00    +0.000 A 
ATOM     27  H   UNL     1      -3.331   0.185  24.242  0.00  0.00    +0.000 HD
BRANCH  20  28
ATOM     28  C   UNL     1      -3.468   1.430  22.510  0.00  0.00    +0.000 C 
BRANCH  28  29
ATOM     29  C   UNL     1      -3.083   2.073  21.307  0.00  0.00    +0.000 C 
ATOM     30  C   UNL     1      -1.920   1.504  20.551  0.00  0.00    +0.000 C 
ATOM     31  O   UNL     1      -5.370   3.526  22.271  0.00  0.00    +0.000 OA
ATOM     32  N   UNL     1      -3.801   3.027  20.670  0.00  0.00    +0.000 N 
ATOM     33  C   UNL     1      -4.912   3.676  21.143  0.00  0.00    +0.000 C 
ATOM     34  H   UNL     1      -3.487   3.245  19.729  0.00  0.00    +0.000 HD
BRANCH  33  35
ATOM     35  O   UNL     1      -5.410   4.513  20.171  0.00  0.00    +0.000 OA
ATOM     36  C   UNL     1      -5.988   3.937  19.028  0.00  0.00    +0.000 C 
ENDBRANCH  33  35
ENDBRANCH  28  29
ENDBRANCH  20  28
ENDBRANCH   3  23
BRANCH   1  37
ATOM     37  C   UNL     1      -9.521   2.645  19.372  0.00  0.00    +0.000 C 
ATOM     38  C   UNL     1      -9.829   3.936  20.112  0.00  0.00    +0.000 C 
ATOM     39  C   UNL     1      -9.560   2.728  17.860  0.00  0.00    +0.000 C 
ENDBRANCH   1  37
TORSDOF 8
ENDMDL
MODEL 4
REMARK VINA RESULT:      -6.0      3.300      5.526
REMARK  Name = 50922675_Encorafenib.pdbqt.pdb
REMARK  8 active torsions:
REMARK  status: ('A' for Active; 'I' for Inactive)
REMARK    1  A    between atoms: N_1  and  C_37
REMARK    2  A    between atoms: C_3  and  C_23
REMARK    3  A    between atoms: C_4  and  C_8
REMARK    4  A    between atoms: C_11  and  N_14
REMARK    5  A    between atoms: N_14  and  S_16
REMARK    6  A    between atoms: N_20  and  C_28
REMARK    7  A    between atoms: C_28  and  C_29
REMARK    8  A    between atoms: C_33  and  O_35
REMARK                            x       y       z     vdW  Elec       q    Type
REMARK                         _______ _______ _______ _____ _____    ______ ____
ROOT
ATOM      1  N   UNL     1      -9.374  -3.994  19.927  0.00  0.00    +0.000 N 
ATOM      2  N   UNL     1      -8.637  -2.888  20.302  0.00  0.00    +0.000 NA
ATOM      3  C   UNL     1     -10.307  -3.206  21.826  0.00  0.00    +0.000 A 
ATOM      4  C   UNL     1      -9.173  -2.436  21.446  0.00  0.00    +0.000 A 
ATOM      5  C   UNL     1     -10.397  -4.168  20.849  0.00  0.00    +0.000 A 
ENDROOT
BRANCH   4   8
ATOM      6 CL   UNL     1      -7.931   2.550  21.093  0.00  0.00    +0.000 Cl
ATOM      7  F   UNL     1      -8.048  -2.454  24.075  0.00  0.00    +0.000 F 
ATOM      8  C   UNL     1      -8.591  -1.259  22.080  0.00  0.00    +0.000 A 
ATOM      9  C   UNL     1      -8.031  -1.315  23.362  0.00  0.00    +0.000 A 
ATOM     10  C   UNL     1      -8.535  -0.056  21.375  0.00  0.00    +0.000 A 
ATOM     11  C   UNL     1      -7.446  -0.184  23.942  0.00  0.00    +0.000 A 
ATOM     12  C   UNL     1      -7.950   1.067  21.949  0.00  0.00    +0.000 A 
ATOM     13  C   UNL     1      -7.391   1.006  23.220  0.00  0.00    +0.000 A 
BRANCH  11  14
ATOM     14  N   UNL     1      -6.789  -0.292  25.214  0.00  0.00    +0.000 N 
ATOM     15  H   UNL     1      -6.740   0.598  25.719  0.00  0.00    +0.000 HD
BRANCH  14  16
ATOM     16  S   UNL     1      -5.266  -0.989  25.254  0.00  0.00    +0.000 S 
ATOM     17  O   UNL     1      -5.069  -1.756  26.455  0.00  0.00    +0.000 OA
ATOM     18  O   UNL     1      -4.723  -1.303  23.951  0.00  0.00    +0.000 OA
ATOM     19  C   UNL     1      -4.161   0.334  25.647  0.00  0.00    +0.000 C 
ENDBRANCH  14  16
ENDBRANCH  11  14
ENDBRANCH   4   8
BRANCH   3  23
ATOM     20  N   UNL     1     -11.432  -4.609  26.226  0.00  0.00    +0.000 N 
ATOM     21  N   UNL     1     -10.899  -3.890  24.027  0.00  0.00    +0.000 NA
ATOM     22  N   UNL     1     -12.835  -3.114  25.132  0.00  0.00    +0.000 NA
ATOM     23  C   UNL     1     -11.219  -3.140  22.957  0.00  0.00    +0.000 A 
ATOM     24  C   UNL     1     -11.723  -3.853  25.089  0.00  0.00    +0.000 A 
ATOM     25  C   UNL     1     -12.345  -2.351  22.905  0.00  0.00    +0.000 A 
ATOM     26  C   UNL     1     -13.117  -2.383  24.039  0.00  0.00    +0.000 A 
ATOM     27  H   UNL     1     -12.262  -4.642  26.808  0.00  0.00    +0.000 HD
BRANCH  20  28
ATOM     28  C   UNL     1     -10.671  -5.836  26.026  0.00  0.00    +0.000 C 
BRANCH  28  29
ATOM     29  C   UNL     1      -9.998  -7.047  25.723  0.00  0.00    +0.000 C 
ATOM     30  C   UNL     1      -8.501  -7.015  25.646  0.00  0.00    +0.000 C 
ATOM     31  O   UNL     1     -12.795  -7.708  25.811  0.00  0.00    +0.000 OA
ATOM     32  N   UNL     1     -10.572  -8.272  25.706  0.00  0.00    +0.000 N 
ATOM     33  C   UNL     1     -11.911  -8.557  25.788  0.00  0.00    +0.000 C 
ATOM     34  H   UNL     1      -9.921  -9.051  25.662  0.00  0.00    +0.000 HD
BRANCH  33  35
ATOM     35  O   UNL     1     -12.094  -9.920  25.824  0.00  0.00    +0.000 OA
ATOM     36  C   UNL     1     -13.402 -10.418  25.704  0.00  0.00    +0.000 C 
ENDBRANCH  33  35
ENDBRANCH  28  29
ENDBRANCH  20  28
ENDBRANCH   3  23
BRANCH   1  37
ATOM     37  C   UNL     1      -9.176  -4.834  18.803  0.00  0.00    +0.000 C 
ATOM     38  C   UNL     1      -8.343  -6.102  18.883  0.00  0.00    +0.000 C 
ATOM     39  C   UNL     1      -9.795  -4.537  17.453  0.00  0.00    +0.000 C 
ENDBRANCH   1  37
TORSDOF 8
ENDMDL
MODEL 5
REMARK VINA RESULT:      -5.9      3.587      5.438
REMARK  Name = 50922675_Encorafenib.pdbqt.pdb
REMARK  8 active torsions:
REMARK  status: ('A' for Active; 'I' for Inactive)
REMARK    1  A    between atoms: N_1  and  C_37
REMARK    2  A    between atoms: C_3  and  C_23
REMARK    3  A    between atoms: C_4  and  C_8
REMARK    4  A    between atoms: C_11  and  N_14
REMARK    5  A    between atoms: N_14  and  S_16
REMARK    6  A    between atoms: N_20  and  C_28
REMARK    7  A    between atoms: C_28  and  C_29
REMARK    8  A    between atoms: C_33  and  O_35
REMARK                            x       y       z     vdW  Elec       q    Type
REMARK                         _______ _______ _______ _____ _____    ______ ____
ROOT
ATOM      1  N   UNL     1      -9.248  -4.361  19.761  0.00  0.00    +0.000 N 
ATOM      2  N   UNL     1      -9.425  -5.084  20.924  0.00  0.00    +0.000 NA
ATOM      3  C   UNL     1      -9.575  -2.860  21.415  0.00  0.00    +0.000 A 
ATOM      4  C   UNL     1      -9.647  -4.193  21.903  0.00  0.00    +0.000 A 
ATOM      5  C   UNL     1      -9.323  -3.010  20.072  0.00  0.00    +0.000 A 
ENDROOT
BRANCH   4   8
ATOM      6 CL   UNL     1      -8.276  -4.061  26.866  0.00  0.00    +0.000 Cl
ATOM      7  F   UNL     1     -11.622  -6.148  22.577  0.00  0.00    +0.000 F 
ATOM      8  C   UNL     1      -9.870  -4.678  23.260  0.00  0.00    +0.000 A 
ATOM      9  C   UNL     1     -10.834  -5.653  23.545  0.00  0.00    +0.000 A 
ATOM     10  C   UNL     1      -9.065  -4.206  24.298  0.00  0.00    +0.000 A 
ATOM     11  C   UNL     1     -11.010  -6.131  24.848  0.00  0.00    +0.000 A 
ATOM     12  C   UNL     1      -9.237  -4.684  25.592  0.00  0.00    +0.000 A 
ATOM     13  C   UNL     1     -10.192  -5.654  25.870  0.00  0.00    +0.000 A 
BRANCH  11  14
ATOM     14  N   UNL     1     -11.934  -7.202  25.097  0.00  0.00    +0.000 N 
ATOM     15  H   UNL     1     -12.885  -6.875  25.290  0.00  0.00    +0.000 HD
BRANCH  14  16
ATOM     16  S   UNL     1     -11.531  -8.329  26.270  0.00  0.00    +0.000 S 
ATOM     17  O   UNL     1     -10.256  -8.937  25.999  0.00  0.00    +0.000 OA
ATOM     18  O   UNL     1     -12.069  -8.040  27.580  0.00  0.00    +0.000 OA
ATOM     19  C   UNL     1     -12.534  -9.741  25.920  0.00  0.00    +0.000 C 
ENDBRANCH  14  16
ENDBRANCH  11  14
ENDBRANCH   4   8
BRANCH   3  23
ATOM     20  N   UNL     1      -7.728   1.362  22.580  0.00  0.00    +0.000 N 
ATOM     21  N   UNL     1      -8.679  -0.738  22.015  0.00  0.00    +0.000 NA
ATOM     22  N   UNL     1      -9.920   0.891  23.189  0.00  0.00    +0.000 NA
ATOM     23  C   UNL     1      -9.744  -1.560  22.046  0.00  0.00    +0.000 A 
ATOM     24  C   UNL     1      -8.802   0.471  22.591  0.00  0.00    +0.000 A 
ATOM     25  C   UNL     1     -10.936  -1.219  22.642  0.00  0.00    +0.000 A 
ATOM     26  C   UNL     1     -10.958   0.035  23.199  0.00  0.00    +0.000 A 
ATOM     27  H   UNL     1      -7.919   2.100  23.250  0.00  0.00    +0.000 HD
BRANCH  20  28
ATOM     28  C   UNL     1      -6.390   0.784  22.541  0.00  0.00    +0.000 C 
BRANCH  28  29
ATOM     29  C   UNL     1      -5.134   0.127  22.579  0.00  0.00    +0.000 C 
ATOM     30  C   UNL     1      -5.107  -1.304  23.023  0.00  0.00    +0.000 C 
ATOM     31  O   UNL     1      -4.600   2.778  21.600  0.00  0.00    +0.000 OA
ATOM     32  N   UNL     1      -3.987   0.611  22.049  0.00  0.00    +0.000 N 
ATOM     33  C   UNL     1      -3.775   1.872  21.555  0.00  0.00    +0.000 C 
ATOM     34  H   UNL     1      -3.226  -0.059  21.988  0.00  0.00    +0.000 HD
BRANCH  33  35
ATOM     35  O   UNL     1      -2.508   1.956  21.025  0.00  0.00    +0.000 OA
ATOM     36  C   UNL     1      -2.332   1.642  19.667  0.00  0.00    +0.000 C 
ENDBRANCH  33  35
ENDBRANCH  28  29
ENDBRANCH  20  28
ENDBRANCH   3  23
BRANCH   1  37
ATOM     37  C   UNL     1      -9.015  -4.855  18.454  0.00  0.00    +0.000 C 
ATOM     38  C   UNL     1      -8.002  -5.953  18.175  0.00  0.00    +0.000 C 
ATOM     39  C   UNL     1      -9.771  -4.336  17.248  0.00  0.00    +0.000 C 
ENDBRANCH   1  37
TORSDOF 8
ENDMDL
MODEL 6
REMARK VINA RESULT:      -5.8      3.404      6.425
REMARK  Name = 50922675_Encorafenib.pdbqt.pdb
REMARK  8 active torsions:
REMARK  status: ('A' for Active; 'I' for Inactive)
REMARK    1  A    between atoms: N_1  and  C_37
REMARK    2  A    between atoms: C_3  and  C_23
REMARK    3  A    between atoms: C_4  and  C_8
REMARK    4  A    between atoms: C_11  and  N_14
REMARK    5  A    between atoms: N_14  and  S_16
REMARK    6  A    between atoms: N_20  and  C_28
REMARK    7  A    between atoms: C_28  and  C_29
REMARK    8  A    between atoms: C_33  and  O_35
REMARK                            x       y       z     vdW  Elec       q    Type
REMARK                         _______ _______ _______ _____ _____    ______ ____
ROOT
ATOM      1  N   UNL     1     -12.588  -3.327  25.189  0.00  0.00    +0.000 N 
ATOM      2  N   UNL     1     -12.059  -4.404  25.872  0.00  0.00    +0.000 NA
ATOM      3  C   UNL     1     -11.038  -4.257  23.836  0.00  0.00    +0.000 A 
ATOM      4  C   UNL     1     -11.118  -4.941  25.081  0.00  0.00    +0.000 A 
ATOM      5  C   UNL     1     -11.974  -3.257  23.945  0.00  0.00    +0.000 A 
ENDROOT
BRANCH   4   8
ATOM      6 CL   UNL     1     -11.243  -9.879  26.538  0.00  0.00    +0.000 Cl
ATOM      7  F   UNL     1      -8.308  -4.932  25.609  0.00  0.00    +0.000 F 
ATOM      8  C   UNL     1     -10.384  -6.109  25.551  0.00  0.00    +0.000 A 
ATOM      9  C   UNL     1      -9.010  -6.058  25.818  0.00  0.00    +0.000 A 
ATOM     10  C   UNL     1     -11.073  -7.298  25.800  0.00  0.00    +0.000 A 
ATOM     11  C   UNL     1      -8.329  -7.180  26.302  0.00  0.00    +0.000 A 
ATOM     12  C   UNL     1     -10.396  -8.412  26.284  0.00  0.00    +0.000 A 
ATOM     13  C   UNL     1      -9.033  -8.355  26.552  0.00  0.00    +0.000 A 
BRANCH  11  14
ATOM     14  N   UNL     1      -6.943  -7.073  26.664  0.00  0.00    +0.000 N 
ATOM     15  H   UNL     1      -6.409  -7.924  26.465  0.00  0.00    +0.000 HD
BRANCH  14  16
ATOM     16  S   UNL     1      -6.575  -6.588  28.225  0.00  0.00    +0.000 S 
ATOM     17  O   UNL     1      -5.261  -6.009  28.300  0.00  0.00    +0.000 OA
ATOM     18  O   UNL     1      -7.723  -6.186  29.007  0.00  0.00    +0.000 OA
ATOM     19  C   UNL     1      -6.215  -8.080  29.101  0.00  0.00    +0.000 C 
ENDBRANCH  14  16
ENDBRANCH  11  14
ENDBRANCH   4   8
BRANCH   3  23
ATOM     20  N   UNL     1      -6.902  -3.444  21.638  0.00  0.00    +0.000 N 
ATOM     21  N   UNL     1      -8.979  -3.866  22.708  0.00  0.00    +0.000 NA
ATOM     22  N   UNL     1      -8.536  -4.671  20.534  0.00  0.00    +0.000 NA
ATOM     23  C   UNL     1     -10.199  -4.430  22.661  0.00  0.00    +0.000 A 
ATOM     24  C   UNL     1      -8.180  -4.006  21.636  0.00  0.00    +0.000 A 
ATOM     25  C   UNL     1     -10.658  -5.131  21.569  0.00  0.00    +0.000 A 
ATOM     26  C   UNL     1      -9.767  -5.216  20.529  0.00  0.00    +0.000 A 
ATOM     27  H   UNL     1      -6.552  -3.444  20.687  0.00  0.00    +0.000 HD
BRANCH  20  28
ATOM     28  C   UNL     1      -6.707  -2.251  22.454  0.00  0.00    +0.000 C 
BRANCH  28  29
ATOM     29  C   UNL     1      -6.434  -1.050  23.156  0.00  0.00    +0.000 C 
ATOM     30  C   UNL     1      -5.452  -1.109  24.287  0.00  0.00    +0.000 C 
ATOM     31  O   UNL     1      -8.298  -0.338  21.085  0.00  0.00    +0.000 OA
ATOM     32  N   UNL     1      -6.820   0.186  22.763  0.00  0.00    +0.000 N 
ATOM     33  C   UNL     1      -7.684   0.495  21.744  0.00  0.00    +0.000 C 
ATOM     34  H   UNL     1      -6.384   0.953  23.267  0.00  0.00    +0.000 HD
BRANCH  33  35
ATOM     35  O   UNL     1      -7.757   1.861  21.596  0.00  0.00    +0.000 OA
ATOM     36  C   UNL     1      -8.331   2.612  22.635  0.00  0.00    +0.000 C 
ENDBRANCH  33  35
ENDBRANCH  28  29
ENDBRANCH  20  28
ENDBRANCH   3  23
BRANCH   1  37
ATOM     37  C   UNL     1     -13.590  -2.424  25.622  0.00  0.00    +0.000 C 
ATOM     38  C   UNL     1     -14.516  -2.745  26.783  0.00  0.00    +0.000 C 
ATOM     39  C   UNL     1     -13.796  -1.072  24.971  0.00  0.00    +0.000 C 
ENDBRANCH   1  37
TORSDOF 8
ENDMDL
MODEL 7
REMARK VINA RESULT:      -5.8      3.196      6.073
REMARK  Name = 50922675_Encorafenib.pdbqt.pdb
REMARK  8 active torsions:
REMARK  status: ('A' for Active; 'I' for Inactive)
REMARK    1  A    between atoms: N_1  and  C_37
REMARK    2  A    between atoms: C_3  and  C_23
REMARK    3  A    between atoms: C_4  and  C_8
REMARK    4  A    between atoms: C_11  and  N_14
REMARK    5  A    between atoms: N_14  and  S_16
REMARK    6  A    between atoms: N_20  and  C_28
REMARK    7  A    between atoms: C_28  and  C_29
REMARK    8  A    between atoms: C_33  and  O_35
REMARK                            x       y       z     vdW  Elec       q    Type
REMARK                         _______ _______ _______ _____ _____    ______ ____
ROOT
ATOM      1  N   UNL     1     -12.947  -2.887  24.530  0.00  0.00    +0.000 N 
ATOM      2  N   UNL     1     -12.726  -4.062  25.220  0.00  0.00    +0.000 NA
ATOM      3  C   UNL     1     -11.320  -3.996  23.424  0.00  0.00    +0.000 A 
ATOM      4  C   UNL     1     -11.741  -4.709  24.580  0.00  0.00    +0.000 A 
ATOM      5  C   UNL     1     -12.100  -2.865  23.429  0.00  0.00    +0.000 A 
ENDROOT
BRANCH   4   8
ATOM      6 CL   UNL     1     -12.992  -9.442  26.181  0.00  0.00    +0.000 Cl
ATOM      7  F   UNL     1      -9.005  -5.323  25.141  0.00  0.00    +0.000 F 
ATOM      8  C   UNL     1     -11.294  -5.998  25.093  0.00  0.00    +0.000 A 
ATOM      9  C   UNL     1      -9.946  -6.252  25.375  0.00  0.00    +0.000 A 
ATOM     10  C   UNL     1     -12.236  -6.991  25.368  0.00  0.00    +0.000 A 
ATOM     11  C   UNL     1      -9.540  -7.484  25.899  0.00  0.00    +0.000 A 
ATOM     12  C   UNL     1     -11.833  -8.214  25.893  0.00  0.00    +0.000 A 
ATOM     13  C   UNL     1     -10.494  -8.460  26.175  0.00  0.00    +0.000 A 
BRANCH  11  14
ATOM     14  N   UNL     1      -8.168  -7.684  26.274  0.00  0.00    +0.000 N 
ATOM     15  H   UNL     1      -7.891  -8.670  26.278  0.00  0.00    +0.000 HD
BRANCH  14  16
ATOM     16  S   UNL     1      -7.639  -6.998  27.709  0.00  0.00    +0.000 S 
ATOM     17  O   UNL     1      -6.279  -6.540  27.603  0.00  0.00    +0.000 OA
ATOM     18  O   UNL     1      -8.684  -6.372  28.488  0.00  0.00    +0.000 OA
ATOM     19  C   UNL     1      -7.336  -8.362  28.791  0.00  0.00    +0.000 C 
ENDBRANCH  14  16
ENDBRANCH  11  14
ENDBRANCH   4   8
BRANCH   3  23
ATOM     20  N   UNL     1      -6.955  -3.151  21.743  0.00  0.00    +0.000 N 
ATOM     21  N   UNL     1      -9.141  -3.593  22.556  0.00  0.00    +0.000 NA
ATOM     22  N   UNL     1      -8.330  -4.632  20.598  0.00  0.00    +0.000 NA
ATOM     23  C   UNL     1     -10.306  -4.251  22.414  0.00  0.00    +0.000 A 
ATOM     24  C   UNL     1      -8.183  -3.806  21.637  0.00  0.00    +0.000 A 
ATOM     25  C   UNL     1     -10.553  -5.120  21.375  0.00  0.00    +0.000 A 
ATOM     26  C   UNL     1      -9.511  -5.267  20.494  0.00  0.00    +0.000 A 
ATOM     27  H   UNL     1      -6.466  -3.245  20.860  0.00  0.00    +0.000 HD
BRANCH  20  28
ATOM     28  C   UNL     1      -6.955  -1.852  22.406  0.00  0.00    +0.000 C 
BRANCH  28  29
ATOM     29  C   UNL     1      -6.851  -0.630  23.118  0.00  0.00    +0.000 C 
ATOM     30  C   UNL     1      -6.730   0.634  22.323  0.00  0.00    +0.000 C 
ATOM     31  O   UNL     1      -7.128  -2.678  25.118  0.00  0.00    +0.000 OA
ATOM     32  N   UNL     1      -7.064  -0.483  24.447  0.00  0.00    +0.000 N 
ATOM     33  C   UNL     1      -7.230  -1.482  25.370  0.00  0.00    +0.000 C 
ATOM     34  H   UNL     1      -7.140   0.478  24.766  0.00  0.00    +0.000 HD
BRANCH  33  35
ATOM     35  O   UNL     1      -7.509  -0.934  26.601  0.00  0.00    +0.000 OA
ATOM     36  C   UNL     1      -6.874   0.269  26.953  0.00  0.00    +0.000 C 
ENDBRANCH  33  35
ENDBRANCH  28  29
ENDBRANCH  20  28
ENDBRANCH   3  23
BRANCH   1  37
ATOM     37  C   UNL     1     -13.868  -1.855  24.834  0.00  0.00    +0.000 C 
ATOM     38  C   UNL     1     -14.319  -0.845  23.793  0.00  0.00    +0.000 C 
ATOM     39  C   UNL     1     -14.479  -1.698  26.212  0.00  0.00    +0.000 C 
ENDBRANCH   1  37
TORSDOF 8
ENDMDL
MODEL 8
REMARK VINA RESULT:      -5.7      2.749      4.371
REMARK  Name = 50922675_Encorafenib.pdbqt.pdb
REMARK  8 active torsions:
REMARK  status: ('A' for Active; 'I' for Inactive)
REMARK    1  A    between atoms: N_1  and  C_37
REMARK    2  A    between atoms: C_3  and  C_23
REMARK    3  A    between atoms: C_4  and  C_8
REMARK    4  A    between atoms: C_11  and  N_14
REMARK    5  A    between atoms: N_14  and  S_16
REMARK    6  A    between atoms: N_20  and  C_28
REMARK    7  A    between atoms: C_28  and  C_29
REMARK    8  A    between atoms: C_33  and  O_35
REMARK                            x       y       z     vdW  Elec       q    Type
REMARK                         _______ _______ _______ _____ _____    ______ ____
ROOT
ATOM      1  N   UNL     1      -9.968  -4.638  20.592  0.00  0.00    +0.000 N 
ATOM      2  N   UNL     1      -9.886  -5.491  21.673  0.00  0.00    +0.000 NA
ATOM      3  C   UNL     1     -11.038  -3.624  22.301  0.00  0.00    +0.000 A 
ATOM      4  C   UNL     1     -10.546  -4.902  22.682  0.00  0.00    +0.000 A 
ATOM      5  C   UNL     1     -10.654  -3.498  20.988  0.00  0.00    +0.000 A 
ENDROOT
BRANCH   4   8
ATOM      6 CL   UNL     1      -8.134  -6.409  26.977  0.00  0.00    +0.000 Cl
ATOM      7  F   UNL     1     -12.918  -6.166  23.659  0.00  0.00    +0.000 F 
ATOM      8  C   UNL     1     -10.623  -5.585  23.968  0.00  0.00    +0.000 A 
ATOM      9  C   UNL     1     -11.799  -6.210  24.401  0.00  0.00    +0.000 A 
ATOM     10  C   UNL     1      -9.483  -5.672  24.769  0.00  0.00    +0.000 A 
ATOM     11  C   UNL     1     -11.845  -6.890  25.623  0.00  0.00    +0.000 A 
ATOM     12  C   UNL     1      -9.527  -6.350  25.981  0.00  0.00    +0.000 A 
ATOM     13  C   UNL     1     -10.695  -6.973  26.405  0.00  0.00    +0.000 A 
BRANCH  11  14
ATOM     14  N   UNL     1     -13.031  -7.608  25.997  0.00  0.00    +0.000 N 
ATOM     15  H   UNL     1     -13.488  -7.223  26.829  0.00  0.00    +0.000 HD
BRANCH  14  16
ATOM     16  S   UNL     1     -12.913  -9.267  26.198  0.00  0.00    +0.000 S 
ATOM     17  O   UNL     1     -14.203  -9.899  26.122  0.00  0.00    +0.000 OA
ATOM     18  O   UNL     1     -11.665  -9.833  25.737  0.00  0.00    +0.000 OA
ATOM     19  C   UNL     1     -12.644  -9.507  27.928  0.00  0.00    +0.000 C 
ENDBRANCH  14  16
ENDBRANCH  11  14
ENDBRANCH   4   8
BRANCH   3  23
ATOM     20  N   UNL     1     -11.117   0.494  24.674  0.00  0.00    +0.000 N 
ATOM     21  N   UNL     1     -11.111  -1.566  23.495  0.00  0.00    +0.000 NA
ATOM     22  N   UNL     1     -13.115  -0.640  24.330  0.00  0.00    +0.000 NA
ATOM     23  C   UNL     1     -11.807  -2.606  23.000  0.00  0.00    +0.000 A 
ATOM     24  C   UNL     1     -11.792  -0.608  24.148  0.00  0.00    +0.000 A 
ATOM     25  C   UNL     1     -13.170  -2.730  23.141  0.00  0.00    +0.000 A 
ATOM     26  C   UNL     1     -13.769  -1.700  23.822  0.00  0.00    +0.000 A 
ATOM     27  H   UNL     1     -11.738   0.970  25.319  0.00  0.00    +0.000 HD
BRANCH  20  28
ATOM     28  C   UNL     1      -9.727   0.292  25.064  0.00  0.00    +0.000 C 
BRANCH  28  29
ATOM     29  C   UNL     1      -8.347   0.084  25.317  0.00  0.00    +0.000 C 
ATOM     30  C   UNL     1      -7.930  -0.202  26.728  0.00  0.00    +0.000 C 
ATOM     31  O   UNL     1      -8.566   0.508  22.481  0.00  0.00    +0.000 OA
ATOM     32  N   UNL     1      -7.400  -0.090  24.366  0.00  0.00    +0.000 N 
ATOM     33  C   UNL     1      -7.546   0.084  23.015  0.00  0.00    +0.000 C 
ATOM     34  H   UNL     1      -6.502  -0.419  24.710  0.00  0.00    +0.000 HD
BRANCH  33  35
ATOM     35  O   UNL     1      -6.383  -0.272  22.372  0.00  0.00    +0.000 OA
ATOM     36  C   UNL     1      -5.538  -1.206  22.994  0.00  0.00    +0.000 C 
ENDBRANCH  33  35
ENDBRANCH  28  29
ENDBRANCH  20  28
ENDBRANCH   3  23
BRANCH   1  37
ATOM     37  C   UNL     1      -9.452  -4.831  19.286  0.00  0.00    +0.000 C 
ATOM     38  C   UNL     1      -9.917  -3.997  18.105  0.00  0.00    +0.000 C 
ATOM     39  C   UNL     1      -8.391  -5.869  18.982  0.00  0.00    +0.000 C 
ENDBRANCH   1  37
TORSDOF 8
ENDMDL
MODEL 9
REMARK VINA RESULT:      -5.6     19.043     22.006
REMARK  Name = 50922675_Encorafenib.pdbqt.pdb
REMARK  8 active torsions:
REMARK  status: ('A' for Active; 'I' for Inactive)
REMARK    1  A    between atoms: N_1  and  C_37
REMARK    2  A    between atoms: C_3  and  C_23
REMARK    3  A    between atoms: C_4  and  C_8
REMARK    4  A    between atoms: C_11  and  N_14
REMARK    5  A    between atoms: N_14  and  S_16
REMARK    6  A    between atoms: N_20  and  C_28
REMARK    7  A    between atoms: C_28  and  C_29
REMARK    8  A    between atoms: C_33  and  O_35
REMARK                            x       y       z     vdW  Elec       q    Type
REMARK                         _______ _______ _______ _____ _____    ______ ____
ROOT
ATOM      1  N   UNL     1     -10.535 -19.272   7.490  0.00  0.00    +0.000 N 
ATOM      2  N   UNL     1     -10.431 -18.223   6.599  0.00  0.00    +0.000 NA
ATOM      3  C   UNL     1     -11.820 -17.602   8.300  0.00  0.00    +0.000 A 
ATOM      4  C   UNL     1     -11.172 -17.220   7.093  0.00  0.00    +0.000 A 
ATOM      5  C   UNL     1     -11.396 -18.892   8.511  0.00  0.00    +0.000 A 
ENDROOT
BRANCH   4   8
ATOM      6 CL   UNL     1      -8.742 -13.044   5.308  0.00  0.00    +0.000 Cl
ATOM      7  F   UNL     1     -13.593 -16.205   5.960  0.00  0.00    +0.000 F 
ATOM      8  C   UNL     1     -11.249 -15.968   6.350  0.00  0.00    +0.000 A 
ATOM      9  C   UNL     1     -12.460 -15.495   5.828  0.00  0.00    +0.000 A 
ATOM     10  C   UNL     1     -10.103 -15.186   6.200  0.00  0.00    +0.000 A 
ATOM     11  C   UNL     1     -12.522 -14.275   5.147  0.00  0.00    +0.000 A 
ATOM     12  C   UNL     1     -10.166 -13.971   5.527  0.00  0.00    +0.000 A 
ATOM     13  C   UNL     1     -11.370 -13.503   5.015  0.00  0.00    +0.000 A 
BRANCH  11  14
ATOM     14  N   UNL     1     -13.792 -13.764   4.711  0.00  0.00    +0.000 N 
ATOM     15  H   UNL     1     -14.516 -13.814   5.434  0.00  0.00    +0.000 HD
BRANCH  14  16
ATOM     16  S   UNL     1     -14.439 -14.378   3.293  0.00  0.00    +0.000 S 
ATOM     17  O   UNL     1     -13.460 -15.119   2.545  0.00  0.00    +0.000 OA
ATOM     18  O   UNL     1     -15.852 -14.677   3.367  0.00  0.00    +0.000 OA
ATOM     19  C   UNL     1     -14.559 -12.994   2.200  0.00  0.00    +0.000 C 
ENDBRANCH  14  16
ENDBRANCH  11  14
ENDBRANCH   4   8
BRANCH   3  23
ATOM     20  N   UNL     1     -16.189 -16.035   9.325  0.00  0.00    +0.000 N 
ATOM     21  N   UNL     1     -13.996 -16.802   8.841  0.00  0.00    +0.000 NA
ATOM     22  N   UNL     1     -14.468 -15.620  10.828  0.00  0.00    +0.000 NA
ATOM     23  C   UNL     1     -12.707 -16.902   9.215  0.00  0.00    +0.000 A 
ATOM     24  C   UNL     1     -14.842 -16.160   9.665  0.00  0.00    +0.000 A 
ATOM     25  C   UNL     1     -12.226 -16.375  10.392  0.00  0.00    +0.000 A 
ATOM     26  C   UNL     1     -13.170 -15.741  11.161  0.00  0.00    +0.000 A 
ATOM     27  H   UNL     1     -16.607 -15.335   9.928  0.00  0.00    +0.000 HD
BRANCH  20  28
ATOM     28  C   UNL     1     -16.511 -16.013   7.903  0.00  0.00    +0.000 C 
BRANCH  28  29
ATOM     29  C   UNL     1     -16.936 -15.934   6.552  0.00  0.00    +0.000 C 
ATOM     30  C   UNL     1     -16.717 -17.132   5.679  0.00  0.00    +0.000 C 
ATOM     31  O   UNL     1     -17.663 -13.422   7.749  0.00  0.00    +0.000 OA
ATOM     32  N   UNL     1     -17.712 -14.952   6.038  0.00  0.00    +0.000 N 
ATOM     33  C   UNL     1     -18.073 -13.779   6.650  0.00  0.00    +0.000 C 
ATOM     34  H   UNL     1     -18.086 -15.140   5.112  0.00  0.00    +0.000 HD
BRANCH  33  35
ATOM     35  O   UNL     1     -18.938 -13.080   5.840  0.00  0.00    +0.000 OA
ATOM     36  C   UNL     1     -19.155 -13.552   4.535  0.00  0.00    +0.000 C 
ENDBRANCH  33  35
ENDBRANCH  28  29
ENDBRANCH  20  28
ENDBRANCH   3  23
BRANCH   1  37
ATOM     37  C   UNL     1      -9.908 -20.541   7.422  0.00  0.00    +0.000 C 
ATOM     38  C   UNL     1     -10.617 -21.761   6.859  0.00  0.00    +0.000 C 
ATOM     39  C   UNL     1      -8.484 -20.764   7.888  0.00  0.00    +0.000 C 
ENDBRANCH   1  37
TORSDOF 8
ENDMDL
