MODEL 1
REMARK VINA RESULT:      -7.3      0.000      0.000
REMARK  Name = 5109870_Ethoxyphenyl.pdbqt.pdb
REMARK  6 active torsions:
REMARK  status: ('A' for Active; 'I' for Inactive)
REMARK    1  A    between atoms: N_2  and  C_22
REMARK    2  A    between atoms: C_3  and  O_11
REMARK    3  A    between atoms: C_3  and  C_13
REMARK    4  A    between atoms: C_16  and  N_19
REMARK    5  A    between atoms: C_25  and  O_28
REMARK    6  A    between atoms: O_28  and  C_29
REMARK                            x       y       z     vdW  Elec       q    Type
REMARK                         _______ _______ _______ _____ _____    ______ ____
ROOT
ATOM      1  N   UNL     1      -9.449  -2.649  21.124  0.00  0.00    +0.000 N 
ATOM      2  N   UNL     1     -10.871  -3.859  22.632  0.00  0.00    +0.000 N 
ATOM      3  C   UNL     1      -8.998  -4.056  21.012  0.00  0.00    +0.000 C 
ATOM      4  C   UNL     1     -10.448  -2.604  22.239  0.00  0.00    +0.000 C 
ATOM      5  C   UNL     1      -9.999  -4.706  21.861  0.00  0.00    +0.000 C 
ATOM      6  C   UNL     1      -8.434  -1.603  21.243  0.00  0.00    +0.000 C 
ATOM      7  C   UNL     1     -10.548  -1.457  23.080  0.00  0.00    +0.000 C 
ATOM      8  C   UNL     1      -7.921  -0.302  21.885  0.00  0.00    +0.000 C 
ATOM      9  C   UNL     1      -9.918  -0.138  23.553  0.00  0.00    +0.000 C 
ATOM     10  C   UNL     1      -8.623   0.456  23.007  0.00  0.00    +0.000 C 
ENDROOT
BRANCH   3  11
ATOM     11  C   UNL     1      -8.984  -4.523  19.576  0.00  0.00    +0.000 A 
ATOM     12  C   UNL     1      -8.249  -5.649  19.179  0.00  0.00    +0.000 A 
ATOM     13  C   UNL     1      -8.276  -6.099  17.861  0.00  0.00    +0.000 A 
ATOM     14  C   UNL     1      -9.060  -5.418  16.933  0.00  0.00    +0.000 A 
ATOM     15  C   UNL     1      -9.814  -4.307  17.296  0.00  0.00    +0.000 A 
ATOM     16  C   UNL     1      -9.776  -3.871  18.618  0.00  0.00    +0.000 A 
BRANCH  14  17
ATOM     17  N   UNL     1      -9.092  -5.879  15.559  0.00  0.00    +0.000 N 
ATOM     18  O   UNL     1     -10.115  -6.462  15.173  0.00  0.00    +0.000 OA
ATOM     19  O   UNL     1      -8.096  -5.661  14.855  0.00  0.00    +0.000 OA
ENDBRANCH  14  17
ENDBRANCH   3  11
BRANCH   2  20
ATOM     20  C   UNL     1     -11.598  -4.301  23.748  0.00  0.00    +0.000 A 
ATOM     21  C   UNL     1     -10.977  -4.623  24.959  0.00  0.00    +0.000 A 
ATOM     22  C   UNL     1     -11.711  -5.038  26.069  0.00  0.00    +0.000 A 
ATOM     23  C   UNL     1     -13.099  -5.134  25.994  0.00  0.00    +0.000 A 
ATOM     24  C   UNL     1     -13.741  -4.808  24.804  0.00  0.00    +0.000 A 
ATOM     25  C   UNL     1     -12.996  -4.393  23.699  0.00  0.00    +0.000 A 
BRANCH  23  26
ATOM     26  O   UNL     1     -13.911  -5.530  27.025  0.00  0.00    +0.000 OA
BRANCH  26  27
ATOM     27  C   UNL     1     -14.926  -4.709  27.286  0.00  0.00    +0.000 C 
ATOM     28  C   UNL     1     -16.084  -3.752  27.593  0.00  0.00    +0.000 C 
ENDBRANCH  26  27
ENDBRANCH  23  26
ENDBRANCH   2  20
BRANCH   3  29
ATOM     29  O   UNL     1      -7.721  -4.282  21.597  0.00  0.00    +0.000 OA
ATOM     30  H   UNL     1      -7.697  -3.709  22.380  0.00  0.00    +0.000 HD
ENDBRANCH   3  29
TORSDOF 6
ENDMDL
MODEL 2
REMARK VINA RESULT:      -7.2      1.909      2.774
REMARK  Name = 5109870_Ethoxyphenyl.pdbqt.pdb
REMARK  6 active torsions:
REMARK  status: ('A' for Active; 'I' for Inactive)
REMARK    1  A    between atoms: N_2  and  C_22
REMARK    2  A    between atoms: C_3  and  O_11
REMARK    3  A    between atoms: C_3  and  C_13
REMARK    4  A    between atoms: C_16  and  N_19
REMARK    5  A    between atoms: C_25  and  O_28
REMARK    6  A    between atoms: O_28  and  C_29
REMARK                            x       y       z     vdW  Elec       q    Type
REMARK                         _______ _______ _______ _____ _____    ______ ____
ROOT
ATOM      1  N   UNL     1     -10.341  -3.216  21.440  0.00  0.00    +0.000 N 
ATOM      2  N   UNL     1     -10.722  -4.990  23.010  0.00  0.00    +0.000 N 
ATOM      3  C   UNL     1      -9.226  -4.165  21.207  0.00  0.00    +0.000 C 
ATOM      4  C   UNL     1     -11.078  -3.706  22.647  0.00  0.00    +0.000 C 
ATOM      5  C   UNL     1      -9.626  -5.244  22.113  0.00  0.00    +0.000 C 
ATOM      6  C   UNL     1     -10.032  -1.789  21.516  0.00  0.00    +0.000 C 
ATOM      7  C   UNL     1     -11.679  -2.785  23.555  0.00  0.00    +0.000 C 
ATOM      8  C   UNL     1     -10.221  -0.411  22.175  0.00  0.00    +0.000 C 
ATOM      9  C   UNL     1     -11.799  -1.330  24.036  0.00  0.00    +0.000 C 
ATOM     10  C   UNL     1     -11.089  -0.140  23.399  0.00  0.00    +0.000 C 
ENDROOT
BRANCH   3  11
ATOM     11  C   UNL     1      -9.126  -4.561  19.753  0.00  0.00    +0.000 A 
ATOM     12  C   UNL     1      -8.343  -5.649  19.342  0.00  0.00    +0.000 A 
ATOM     13  C   UNL     1      -8.291  -6.034  18.005  0.00  0.00    +0.000 A 
ATOM     14  C   UNL     1      -9.043  -5.328  17.071  0.00  0.00    +0.000 A 
ATOM     15  C   UNL     1      -9.843  -4.253  17.446  0.00  0.00    +0.000 A 
ATOM     16  C   UNL     1      -9.884  -3.881  18.787  0.00  0.00    +0.000 A 
BRANCH  14  17
ATOM     17  N   UNL     1      -8.993  -5.722  15.677  0.00  0.00    +0.000 N 
ATOM     18  O   UNL     1      -7.942  -5.506  15.057  0.00  0.00    +0.000 OA
ATOM     19  O   UNL     1     -10.003  -6.251  15.191  0.00  0.00    +0.000 OA
ENDBRANCH  14  17
ENDBRANCH   3  11
BRANCH   2  20
ATOM     20  C   UNL     1     -10.973  -5.745  24.166  0.00  0.00    +0.000 A 
ATOM     21  C   UNL     1     -12.236  -6.278  24.445  0.00  0.00    +0.000 A 
ATOM     22  C   UNL     1     -12.470  -7.046  25.585  0.00  0.00    +0.000 A 
ATOM     23  C   UNL     1     -11.432  -7.309  26.476  0.00  0.00    +0.000 A 
ATOM     24  C   UNL     1     -10.164  -6.799  26.215  0.00  0.00    +0.000 A 
ATOM     25  C   UNL     1      -9.941  -6.032  25.072  0.00  0.00    +0.000 A 
BRANCH  23  26
ATOM     26  O   UNL     1     -11.556  -8.051  27.622  0.00  0.00    +0.000 OA
BRANCH  26  27
ATOM     27  C   UNL     1     -10.636  -9.002  27.776  0.00  0.00    +0.000 C 
ATOM     28  C   UNL     1      -9.566 -10.085  27.949  0.00  0.00    +0.000 C 
ENDBRANCH  26  27
ENDBRANCH  23  26
ENDBRANCH   2  20
BRANCH   3  29
ATOM     29  O   UNL     1      -7.969  -3.670  21.651  0.00  0.00    +0.000 OA
ATOM     30  H   UNL     1      -7.894  -3.961  22.575  0.00  0.00    +0.000 HD
ENDBRANCH   3  29
TORSDOF 6
ENDMDL
MODEL 3
REMARK VINA RESULT:      -6.9      2.923      6.157
REMARK  Name = 5109870_Ethoxyphenyl.pdbqt.pdb
REMARK  6 active torsions:
REMARK  status: ('A' for Active; 'I' for Inactive)
REMARK    1  A    between atoms: N_2  and  C_22
REMARK    2  A    between atoms: C_3  and  O_11
REMARK    3  A    between atoms: C_3  and  C_13
REMARK    4  A    between atoms: C_16  and  N_19
REMARK    5  A    between atoms: C_25  and  O_28
REMARK    6  A    between atoms: O_28  and  C_29
REMARK                            x       y       z     vdW  Elec       q    Type
REMARK                         _______ _______ _______ _____ _____    ______ ____
ROOT
ATOM      1  N   UNL     1      -9.284  -4.748  22.123  0.00  0.00    +0.000 N 
ATOM      2  N   UNL     1      -7.632  -3.108  22.707  0.00  0.00    +0.000 N 
ATOM      3  C   UNL     1      -9.433  -3.687  21.098  0.00  0.00    +0.000 C 
ATOM      4  C   UNL     1      -8.309  -4.233  23.137  0.00  0.00    +0.000 C 
ATOM      5  C   UNL     1      -8.313  -2.821  21.472  0.00  0.00    +0.000 C 
ATOM      6  C   UNL     1     -10.494  -5.292  22.739  0.00  0.00    +0.000 C 
ATOM      7  C   UNL     1      -8.445  -4.575  24.514  0.00  0.00    +0.000 C 
ATOM      8  C   UNL     1     -11.263  -5.775  23.981  0.00  0.00    +0.000 C 
ATOM      9  C   UNL     1      -9.333  -5.160  25.624  0.00  0.00    +0.000 C 
ATOM     10  C   UNL     1     -10.727  -5.743  25.408  0.00  0.00    +0.000 C 
ENDROOT
BRANCH   3  11
ATOM     11  C   UNL     1      -9.358  -4.252  19.699  0.00  0.00    +0.000 A 
ATOM     12  C   UNL     1     -10.085  -3.687  18.641  0.00  0.00    +0.000 A 
ATOM     13  C   UNL     1      -9.977  -4.186  17.346  0.00  0.00    +0.000 A 
ATOM     14  C   UNL     1      -9.120  -5.257  17.106  0.00  0.00    +0.000 A 
ATOM     15  C   UNL     1      -8.372  -5.831  18.129  0.00  0.00    +0.000 A 
ATOM     16  C   UNL     1      -8.492  -5.320  19.418  0.00  0.00    +0.000 A 
BRANCH  14  17
ATOM     17  N   UNL     1      -9.004  -5.783  15.760  0.00  0.00    +0.000 N 
ATOM     18  O   UNL     1     -10.026  -6.243  15.233  0.00  0.00    +0.000 OA
ATOM     19  O   UNL     1      -7.890  -5.740  15.220  0.00  0.00    +0.000 OA
ENDBRANCH  14  17
ENDBRANCH   3  11
BRANCH   2  20
ATOM     20  C   UNL     1      -6.822  -2.183  23.383  0.00  0.00    +0.000 A 
ATOM     21  C   UNL     1      -7.119  -1.742  24.677  0.00  0.00    +0.000 A 
ATOM     22  C   UNL     1      -6.295  -0.839  25.349  0.00  0.00    +0.000 A 
ATOM     23  C   UNL     1      -5.138  -0.360  24.738  0.00  0.00    +0.000 A 
ATOM     24  C   UNL     1      -4.816  -0.793  23.456  0.00  0.00    +0.000 A 
ATOM     25  C   UNL     1      -5.647  -1.695  22.793  0.00  0.00    +0.000 A 
BRANCH  23  26
ATOM     26  O   UNL     1      -4.262   0.526  25.310  0.00  0.00    +0.000 OA
BRANCH  26  27
ATOM     27  C   UNL     1      -3.008   0.091  25.407  0.00  0.00    +0.000 C 
ATOM     28  C   UNL     1      -1.569  -0.425  25.523  0.00  0.00    +0.000 C 
ENDBRANCH  26  27
ENDBRANCH  23  26
ENDBRANCH   2  20
BRANCH   3  29
ATOM     29  O   UNL     1     -10.631  -2.935  21.242  0.00  0.00    +0.000 OA
ATOM     30  H   UNL     1     -11.347  -3.556  21.032  0.00  0.00    +0.000 HD
ENDBRANCH   3  29
TORSDOF 6
ENDMDL
MODEL 4
REMARK VINA RESULT:      -6.9      2.139      2.629
REMARK  Name = 5109870_Ethoxyphenyl.pdbqt.pdb
REMARK  6 active torsions:
REMARK  status: ('A' for Active; 'I' for Inactive)
REMARK    1  A    between atoms: N_2  and  C_22
REMARK    2  A    between atoms: C_3  and  O_11
REMARK    3  A    between atoms: C_3  and  C_13
REMARK    4  A    between atoms: C_16  and  N_19
REMARK    5  A    between atoms: C_25  and  O_28
REMARK    6  A    between atoms: O_28  and  C_29
REMARK                            x       y       z     vdW  Elec       q    Type
REMARK                         _______ _______ _______ _____ _____    ______ ____
ROOT
ATOM      1  N   UNL     1      -8.562  -2.327  21.529  0.00  0.00    +0.000 N 
ATOM      2  N   UNL     1     -10.749  -2.105  22.494  0.00  0.00    +0.000 N 
ATOM      3  C   UNL     1      -9.155  -3.682  21.424  0.00  0.00    +0.000 C 
ATOM      4  C   UNL     1      -9.517  -1.501  22.336  0.00  0.00    +0.000 C 
ATOM      5  C   UNL     1     -10.506  -3.401  21.916  0.00  0.00    +0.000 C 
ATOM      6  C   UNL     1      -7.184  -2.208  22.003  0.00  0.00    +0.000 C 
ATOM      7  C   UNL     1      -9.036  -0.485  23.213  0.00  0.00    +0.000 C 
ATOM      8  C   UNL     1      -6.121  -1.507  22.866  0.00  0.00    +0.000 C 
ATOM      9  C   UNL     1      -7.836   0.134  23.947  0.00  0.00    +0.000 C 
ATOM     10  C   UNL     1      -6.394  -0.348  23.819  0.00  0.00    +0.000 C 
ENDROOT
BRANCH   3  11
ATOM     11  C   UNL     1      -9.092  -4.208  20.009  0.00  0.00    +0.000 A 
ATOM     12  C   UNL     1      -8.333  -5.341  19.683  0.00  0.00    +0.000 A 
ATOM     13  C   UNL     1      -8.314  -5.845  18.385  0.00  0.00    +0.000 A 
ATOM     14  C   UNL     1      -9.076  -5.214  17.406  0.00  0.00    +0.000 A 
ATOM     15  C   UNL     1      -9.852  -4.097  17.699  0.00  0.00    +0.000 A 
ATOM     16  C   UNL     1      -9.860  -3.606  19.001  0.00  0.00    +0.000 A 
BRANCH  14  17
ATOM     17  N   UNL     1      -9.060  -5.732  16.053  0.00  0.00    +0.000 N 
ATOM     18  O   UNL     1      -7.974  -5.750  15.457  0.00  0.00    +0.000 OA
ATOM     19  O   UNL     1     -10.133  -6.125  15.574  0.00  0.00    +0.000 OA
ENDBRANCH  14  17
ENDBRANCH   3  11
BRANCH   2  20
ATOM     20  C   UNL     1     -11.837  -1.819  23.334  0.00  0.00    +0.000 A 
ATOM     21  C   UNL     1     -12.498  -0.587  23.296  0.00  0.00    +0.000 A 
ATOM     22  C   UNL     1     -13.593  -0.320  24.118  0.00  0.00    +0.000 A 
ATOM     23  C   UNL     1     -14.059  -1.293  24.999  0.00  0.00    +0.000 A 
ATOM     24  C   UNL     1     -13.424  -2.530  25.046  0.00  0.00    +0.000 A 
ATOM     25  C   UNL     1     -12.330  -2.786  24.220  0.00  0.00    +0.000 A 
BRANCH  23  26
ATOM     26  O   UNL     1     -15.125  -1.133  25.847  0.00  0.00    +0.000 OA
BRANCH  26  27
ATOM     27  C   UNL     1     -16.097  -0.351  25.384  0.00  0.00    +0.000 C 
ATOM     28  C   UNL     1     -17.207   0.564  24.852  0.00  0.00    +0.000 C 
ENDBRANCH  26  27
ENDBRANCH  23  26
ENDBRANCH   2  20
BRANCH   3  29
ATOM     29  O   UNL     1      -8.559  -4.623  22.308  0.00  0.00    +0.000 OA
ATOM     30  H   UNL     1      -9.212  -4.756  23.014  0.00  0.00    +0.000 HD
ENDBRANCH   3  29
TORSDOF 6
ENDMDL
MODEL 5
REMARK VINA RESULT:      -6.7      2.026      8.129
REMARK  Name = 5109870_Ethoxyphenyl.pdbqt.pdb
REMARK  6 active torsions:
REMARK  status: ('A' for Active; 'I' for Inactive)
REMARK    1  A    between atoms: N_2  and  C_22
REMARK    2  A    between atoms: C_3  and  O_11
REMARK    3  A    between atoms: C_3  and  C_13
REMARK    4  A    between atoms: C_16  and  N_19
REMARK    5  A    between atoms: C_25  and  O_28
REMARK    6  A    between atoms: O_28  and  C_29
REMARK                            x       y       z     vdW  Elec       q    Type
REMARK                         _______ _______ _______ _____ _____    ______ ____
ROOT
ATOM      1  N   UNL     1     -11.098  -2.714  23.468  0.00  0.00    +0.000 N 
ATOM      2  N   UNL     1     -10.249  -3.968  21.607  0.00  0.00    +0.000 N 
ATOM      3  C   UNL     1     -12.103  -3.782  23.250  0.00  0.00    +0.000 C 
ATOM      4  C   UNL     1     -10.124  -2.801  22.334  0.00  0.00    +0.000 C 
ATOM      5  C   UNL     1     -11.429  -4.544  22.196  0.00  0.00    +0.000 C 
ATOM      6  C   UNL     1     -11.575  -1.350  23.691  0.00  0.00    +0.000 C 
ATOM      7  C   UNL     1      -9.514  -1.624  21.808  0.00  0.00    +0.000 C 
ATOM      8  C   UNL     1     -11.467   0.164  23.438  0.00  0.00    +0.000 C 
ATOM      9  C   UNL     1      -9.512  -0.089  21.731  0.00  0.00    +0.000 C 
ATOM     10  C   UNL     1     -10.462   0.825  22.500  0.00  0.00    +0.000 C 
ENDROOT
BRANCH   3  11
ATOM     11  C   UNL     1     -12.375  -4.557  24.518  0.00  0.00    +0.000 A 
ATOM     12  C   UNL     1     -11.352  -5.234  25.196  0.00  0.00    +0.000 A 
ATOM     13  C   UNL     1     -11.603  -5.910  26.388  0.00  0.00    +0.000 A 
ATOM     14  C   UNL     1     -12.892  -5.896  26.911  0.00  0.00    +0.000 A 
ATOM     15  C   UNL     1     -13.928  -5.221  26.273  0.00  0.00    +0.000 A 
ATOM     16  C   UNL     1     -13.660  -4.550  25.083  0.00  0.00    +0.000 A 
BRANCH  14  17
ATOM     17  N   UNL     1     -13.161  -6.598  28.150  0.00  0.00    +0.000 N 
ATOM     18  O   UNL     1     -13.938  -6.065  28.955  0.00  0.00    +0.000 OA
ATOM     19  O   UNL     1     -12.600  -7.689  28.328  0.00  0.00    +0.000 OA
ENDBRANCH  14  17
ENDBRANCH   3  11
BRANCH   2  20
ATOM     20  C   UNL     1      -9.724  -4.365  20.367  0.00  0.00    +0.000 A 
ATOM     21  C   UNL     1      -8.767  -5.379  20.257  0.00  0.00    +0.000 A 
ATOM     22  C   UNL     1      -8.269  -5.782  19.018  0.00  0.00    +0.000 A 
ATOM     23  C   UNL     1      -8.729  -5.179  17.849  0.00  0.00    +0.000 A 
ATOM     24  C   UNL     1      -9.689  -4.175  17.933  0.00  0.00    +0.000 A 
ATOM     25  C   UNL     1     -10.180  -3.780  19.177  0.00  0.00    +0.000 A 
BRANCH  23  26
ATOM     26  O   UNL     1      -8.306  -5.500  16.585  0.00  0.00    +0.000 OA
BRANCH  26  27
ATOM     27  C   UNL     1      -9.252  -5.984  15.784  0.00  0.00    +0.000 C 
ATOM     28  C   UNL     1     -10.335  -6.534  14.848  0.00  0.00    +0.000 C 
ENDBRANCH  26  27
ENDBRANCH  23  26
ENDBRANCH   2  20
BRANCH   3  29
ATOM     29  O   UNL     1     -13.329  -3.297  22.718  0.00  0.00    +0.000 OA
ATOM     30  H   UNL     1     -13.821  -2.960  23.484  0.00  0.00    +0.000 HD
ENDBRANCH   3  29
TORSDOF 6
ENDMDL
MODEL 6
REMARK VINA RESULT:      -6.6      3.221      7.709
REMARK  Name = 5109870_Ethoxyphenyl.pdbqt.pdb
REMARK  6 active torsions:
REMARK  status: ('A' for Active; 'I' for Inactive)
REMARK    1  A    between atoms: N_2  and  C_22
REMARK    2  A    between atoms: C_3  and  O_11
REMARK    3  A    between atoms: C_3  and  C_13
REMARK    4  A    between atoms: C_16  and  N_19
REMARK    5  A    between atoms: C_25  and  O_28
REMARK    6  A    between atoms: O_28  and  C_29
REMARK                            x       y       z     vdW  Elec       q    Type
REMARK                         _______ _______ _______ _____ _____    ______ ____
ROOT
ATOM      1  N   UNL     1      -9.732  -4.250  21.202  0.00  0.00    +0.000 N 
ATOM      2  N   UNL     1      -9.882  -1.887  21.595  0.00  0.00    +0.000 N 
ATOM      3  C   UNL     1      -8.868  -4.014  22.383  0.00  0.00    +0.000 C 
ATOM      4  C   UNL     1     -10.152  -2.903  20.699  0.00  0.00    +0.000 C 
ATOM      5  C   UNL     1      -9.133  -2.590  22.603  0.00  0.00    +0.000 C 
ATOM      6  C   UNL     1      -9.226  -5.111  20.134  0.00  0.00    +0.000 C 
ATOM      7  C   UNL     1     -10.339  -2.674  19.304  0.00  0.00    +0.000 C 
ATOM      8  C   UNL     1      -9.032  -5.416  18.638  0.00  0.00    +0.000 C 
ATOM      9  C   UNL     1     -10.120  -3.175  17.867  0.00  0.00    +0.000 C 
ATOM     10  C   UNL     1      -9.469  -4.504  17.496  0.00  0.00    +0.000 C 
ENDROOT
BRANCH   3  11
ATOM     11  C   UNL     1      -9.243  -4.915  23.536  0.00  0.00    +0.000 A 
ATOM     12  C   UNL     1      -8.349  -5.172  24.585  0.00  0.00    +0.000 A 
ATOM     13  C   UNL     1      -8.718  -5.969  25.666  0.00  0.00    +0.000 A 
ATOM     14  C   UNL     1     -10.002  -6.503  25.701  0.00  0.00    +0.000 A 
ATOM     15  C   UNL     1     -10.920  -6.256  24.685  0.00  0.00    +0.000 A 
ATOM     16  C   UNL     1     -10.535  -5.457  23.612  0.00  0.00    +0.000 A 
BRANCH  14  17
ATOM     17  N   UNL     1     -10.393  -7.336  26.822  0.00  0.00    +0.000 N 
ATOM     18  O   UNL     1     -11.067  -8.346  26.579  0.00  0.00    +0.000 OA
ATOM     19  O   UNL     1     -10.028  -6.986  27.953  0.00  0.00    +0.000 OA
ENDBRANCH  14  17
ENDBRANCH   3  11
BRANCH   2  20
ATOM     20  C   UNL     1      -9.891  -0.490  21.464  0.00  0.00    +0.000 A 
ATOM     21  C   UNL     1     -10.595   0.334  22.348  0.00  0.00    +0.000 A 
ATOM     22  C   UNL     1     -10.578   1.723  22.222  0.00  0.00    +0.000 A 
ATOM     23  C   UNL     1      -9.843   2.325  21.204  0.00  0.00    +0.000 A 
ATOM     24  C   UNL     1      -9.125   1.526  20.319  0.00  0.00    +0.000 A 
ATOM     25  C   UNL     1      -9.149   0.138  20.453  0.00  0.00    +0.000 A 
BRANCH  23  26
ATOM     26  O   UNL     1      -9.760   3.677  20.995  0.00  0.00    +0.000 OA
BRANCH  26  27
ATOM     27  C   UNL     1      -9.843   4.053  19.720  0.00  0.00    +0.000 C 
ATOM     28  C   UNL     1      -9.944   4.501  18.258  0.00  0.00    +0.000 C 
ENDBRANCH  26  27
ENDBRANCH  23  26
ENDBRANCH   2  20
BRANCH   3  29
ATOM     29  O   UNL     1      -7.482  -4.158  22.099  0.00  0.00    +0.000 OA
ATOM     30  H   UNL     1      -7.445  -4.592  21.231  0.00  0.00    +0.000 HD
ENDBRANCH   3  29
TORSDOF 6
ENDMDL
MODEL 7
REMARK VINA RESULT:      -6.4      3.566      8.349
REMARK  Name = 5109870_Ethoxyphenyl.pdbqt.pdb
REMARK  6 active torsions:
REMARK  status: ('A' for Active; 'I' for Inactive)
REMARK    1  A    between atoms: N_2  and  C_22
REMARK    2  A    between atoms: C_3  and  O_11
REMARK    3  A    between atoms: C_3  and  C_13
REMARK    4  A    between atoms: C_16  and  N_19
REMARK    5  A    between atoms: C_25  and  O_28
REMARK    6  A    between atoms: O_28  and  C_29
REMARK                            x       y       z     vdW  Elec       q    Type
REMARK                         _______ _______ _______ _____ _____    ______ ____
ROOT
ATOM      1  N   UNL     1     -11.659  -1.911  23.270  0.00  0.00    +0.000 N 
ATOM      2  N   UNL     1     -10.509  -2.735  21.332  0.00  0.00    +0.000 N 
ATOM      3  C   UNL     1     -10.400  -1.129  23.223  0.00  0.00    +0.000 C 
ATOM      4  C   UNL     1     -11.554  -2.960  22.207  0.00  0.00    +0.000 C 
ATOM      5  C   UNL     1      -9.852  -1.617  21.956  0.00  0.00    +0.000 C 
ATOM      6  C   UNL     1     -12.086  -2.461  24.556  0.00  0.00    +0.000 C 
ATOM      7  C   UNL     1     -12.143  -4.245  22.393  0.00  0.00    +0.000 C 
ATOM      8  C   UNL     1     -12.666  -3.614  25.392  0.00  0.00    +0.000 C 
ATOM      9  C   UNL     1     -12.772  -5.254  23.368  0.00  0.00    +0.000 C 
ATOM     10  C   UNL     1     -13.030  -4.992  24.848  0.00  0.00    +0.000 C 
ENDROOT
BRANCH   3  11
ATOM     11  C   UNL     1     -10.666   0.357  23.268  0.00  0.00    +0.000 A 
ATOM     12  C   UNL     1     -10.302   1.199  22.208  0.00  0.00    +0.000 A 
ATOM     13  C   UNL     1     -10.590   2.561  22.238  0.00  0.00    +0.000 A 
ATOM     14  C   UNL     1     -11.262   3.083  23.340  0.00  0.00    +0.000 A 
ATOM     15  C   UNL     1     -11.652   2.274  24.403  0.00  0.00    +0.000 A 
ATOM     16  C   UNL     1     -11.356   0.914  24.356  0.00  0.00    +0.000 A 
BRANCH  14  17
ATOM     17  N   UNL     1     -11.564   4.500  23.380  0.00  0.00    +0.000 N 
ATOM     18  O   UNL     1     -12.752   4.831  23.495  0.00  0.00    +0.000 OA
ATOM     19  O   UNL     1     -10.615   5.293  23.298  0.00  0.00    +0.000 OA
ENDBRANCH  14  17
ENDBRANCH   3  11
BRANCH   2  20
ATOM     20  C   UNL     1      -9.909  -3.545  20.354  0.00  0.00    +0.000 A 
ATOM     21  C   UNL     1      -9.017  -4.571  20.686  0.00  0.00    +0.000 A 
ATOM     22  C   UNL     1      -8.445  -5.385  19.709  0.00  0.00    +0.000 A 
ATOM     23  C   UNL     1      -8.762  -5.194  18.366  0.00  0.00    +0.000 A 
ATOM     24  C   UNL     1      -9.655  -4.188  18.013  0.00  0.00    +0.000 A 
ATOM     25  C   UNL     1     -10.222  -3.379  18.998  0.00  0.00    +0.000 A 
BRANCH  23  26
ATOM     26  O   UNL     1      -8.256  -5.938  17.331  0.00  0.00    +0.000 OA
BRANCH  26  27
ATOM     27  C   UNL     1      -9.033  -5.998  16.252  0.00  0.00    +0.000 C 
ATOM     28  C   UNL     1      -9.916  -6.076  15.001  0.00  0.00    +0.000 C 
ENDBRANCH  26  27
ENDBRANCH  23  26
ENDBRANCH   2  20
BRANCH   3  29
ATOM     29  O   UNL     1      -9.486  -1.479  24.255  0.00  0.00    +0.000 OA
ATOM     30  H   UNL     1      -8.646  -1.062  24.001  0.00  0.00    +0.000 HD
ENDBRANCH   3  29
TORSDOF 6
ENDMDL
MODEL 8
REMARK VINA RESULT:      -6.0     13.881     18.622
REMARK  Name = 5109870_Ethoxyphenyl.pdbqt.pdb
REMARK  6 active torsions:
REMARK  status: ('A' for Active; 'I' for Inactive)
REMARK    1  A    between atoms: N_2  and  C_22
REMARK    2  A    between atoms: C_3  and  O_11
REMARK    3  A    between atoms: C_3  and  C_13
REMARK    4  A    between atoms: C_16  and  N_19
REMARK    5  A    between atoms: C_25  and  O_28
REMARK    6  A    between atoms: O_28  and  C_29
REMARK                            x       y       z     vdW  Elec       q    Type
REMARK                         _______ _______ _______ _____ _____    ______ ____
ROOT
ATOM      1  N   UNL     1       2.401 -15.591  18.008  0.00  0.00    +0.000 N 
ATOM      2  N   UNL     1       2.769 -13.930  16.315  0.00  0.00    +0.000 N 
ATOM      3  C   UNL     1       2.000 -14.314  18.645  0.00  0.00    +0.000 C 
ATOM      4  C   UNL     1       3.008 -15.239  16.685  0.00  0.00    +0.000 C 
ATOM      5  C   UNL     1       2.142 -13.410  17.502  0.00  0.00    +0.000 C 
ATOM      6  C   UNL     1       3.233 -16.517  18.775  0.00  0.00    +0.000 C 
ATOM      7  C   UNL     1       4.083 -16.009  16.151  0.00  0.00    +0.000 C 
ATOM      8  C   UNL     1       4.416 -17.496  18.861  0.00  0.00    +0.000 C 
ATOM      9  C   UNL     1       5.170 -17.066  16.402  0.00  0.00    +0.000 C 
ATOM     10  C   UNL     1       5.379 -17.806  17.719  0.00  0.00    +0.000 C 
ENDROOT
BRANCH   3  11
ATOM     11  C   UNL     1       0.606 -14.393  19.221  0.00  0.00    +0.000 A 
ATOM     12  C   UNL     1       0.095 -13.381  20.046  0.00  0.00    +0.000 A 
ATOM     13  C   UNL     1      -1.206 -13.441  20.538  0.00  0.00    +0.000 A 
ATOM     14  C   UNL     1      -2.010 -14.522  20.187  0.00  0.00    +0.000 A 
ATOM     15  C   UNL     1      -1.541 -15.536  19.358  0.00  0.00    +0.000 A 
ATOM     16  C   UNL     1      -0.237 -15.461  18.875  0.00  0.00    +0.000 A 
BRANCH  14  17
ATOM     17  N   UNL     1      -3.365 -14.593  20.696  0.00  0.00    +0.000 N 
ATOM     18  O   UNL     1      -4.289 -14.578  19.871  0.00  0.00    +0.000 OA
ATOM     19  O   UNL     1      -3.516 -14.664  21.924  0.00  0.00    +0.000 OA
ENDBRANCH  14  17
ENDBRANCH   3  11
BRANCH   2  20
ATOM     20  C   UNL     1       3.315 -13.123  15.305  0.00  0.00    +0.000 A 
ATOM     21  C   UNL     1       4.320 -12.186  15.566  0.00  0.00    +0.000 A 
ATOM     22  C   UNL     1       4.872 -11.405  14.550  0.00  0.00    +0.000 A 
ATOM     23  C   UNL     1       4.433 -11.552  13.237  0.00  0.00    +0.000 A 
ATOM     24  C   UNL     1       3.442 -12.486  12.951  0.00  0.00    +0.000 A 
ATOM     25  C   UNL     1       2.896 -13.262  13.974  0.00  0.00    +0.000 A 
BRANCH  23  26
ATOM     26  O   UNL     1       4.909 -10.837  12.169  0.00  0.00    +0.000 OA
BRANCH  26  27
ATOM     27  C   UNL     1       4.058  -9.945  11.668  0.00  0.00    +0.000 C 
ATOM     28  C   UNL     1       3.064  -8.927  11.094  0.00  0.00    +0.000 C 
ENDBRANCH  26  27
ENDBRANCH  23  26
ENDBRANCH   2  20
BRANCH   3  29
ATOM     29  O   UNL     1       2.906 -13.883  19.653  0.00  0.00    +0.000 OA
ATOM     30  H   UNL     1       2.489 -13.101  20.051  0.00  0.00    +0.000 HD
ENDBRANCH   3  29
TORSDOF 6
ENDMDL
MODEL 9
REMARK VINA RESULT:      -5.9     15.115     16.940
REMARK  Name = 5109870_Ethoxyphenyl.pdbqt.pdb
REMARK  6 active torsions:
REMARK  status: ('A' for Active; 'I' for Inactive)
REMARK    1  A    between atoms: N_2  and  C_22
REMARK    2  A    between atoms: C_3  and  O_11
REMARK    3  A    between atoms: C_3  and  C_13
REMARK    4  A    between atoms: C_16  and  N_19
REMARK    5  A    between atoms: C_25  and  O_28
REMARK    6  A    between atoms: O_28  and  C_29
REMARK                            x       y       z     vdW  Elec       q    Type
REMARK                         _______ _______ _______ _____ _____    ______ ____
ROOT
ATOM      1  N   UNL     1     -21.637  -3.196   9.449  0.00  0.00    +0.000 N 
ATOM      2  N   UNL     1     -22.499  -4.491  11.276  0.00  0.00    +0.000 N 
ATOM      3  C   UNL     1     -22.605  -2.296  10.120  0.00  0.00    +0.000 C 
ATOM      4  C   UNL     1     -21.771  -4.537  10.103  0.00  0.00    +0.000 C 
ATOM      5  C   UNL     1     -22.964  -3.130  11.269  0.00  0.00    +0.000 C 
ATOM      6  C   UNL     1     -21.666  -3.282   7.990  0.00  0.00    +0.000 C 
ATOM      7  C   UNL     1     -21.595  -5.734   9.349  0.00  0.00    +0.000 C 
ATOM      8  C   UNL     1     -21.609  -4.113   6.696  0.00  0.00    +0.000 C 
ATOM      9  C   UNL     1     -21.484  -6.389   7.963  0.00  0.00    +0.000 C 
ATOM     10  C   UNL     1     -21.504  -5.633   6.637  0.00  0.00    +0.000 C 
ENDROOT
BRANCH   3  11
ATOM     11  C   UNL     1     -21.978  -0.967  10.471  0.00  0.00    +0.000 A 
ATOM     12  C   UNL     1     -21.559  -0.070   9.478  0.00  0.00    +0.000 A 
ATOM     13  C   UNL     1     -21.022   1.171   9.810  0.00  0.00    +0.000 A 
ATOM     14  C   UNL     1     -20.915   1.521  11.153  0.00  0.00    +0.000 A 
ATOM     15  C   UNL     1     -21.335   0.662  12.163  0.00  0.00    +0.000 A 
ATOM     16  C   UNL     1     -21.870  -0.575  11.814  0.00  0.00    +0.000 A 
BRANCH  14  17
ATOM     17  N   UNL     1     -20.355   2.811  11.507  0.00  0.00    +0.000 N 
ATOM     18  O   UNL     1     -21.064   3.583  12.168  0.00  0.00    +0.000 OA
ATOM     19  O   UNL     1     -19.202   3.062  11.127  0.00  0.00    +0.000 OA
ENDBRANCH  14  17
ENDBRANCH   3  11
BRANCH   2  20
ATOM     20  C   UNL     1     -23.055  -5.500  12.078  0.00  0.00    +0.000 A 
ATOM     21  C   UNL     1     -22.367  -6.046  13.167  0.00  0.00    +0.000 A 
ATOM     22  C   UNL     1     -22.937  -7.033  13.972  0.00  0.00    +0.000 A 
ATOM     23  C   UNL     1     -24.225  -7.492  13.707  0.00  0.00    +0.000 A 
ATOM     24  C   UNL     1     -24.934  -6.956  12.637  0.00  0.00    +0.000 A 
ATOM     25  C   UNL     1     -24.353  -5.970  11.838  0.00  0.00    +0.000 A 
BRANCH  23  26
ATOM     26  O   UNL     1     -24.876  -8.455  14.436  0.00  0.00    +0.000 OA
BRANCH  26  27
ATOM     27  C   UNL     1     -24.522  -8.522  15.717  0.00  0.00    +0.000 C 
ATOM     28  C   UNL     1     -24.114  -8.617  17.192  0.00  0.00    +0.000 C 
ENDBRANCH  26  27
ENDBRANCH  23  26
ENDBRANCH   2  20
BRANCH   3  29
ATOM     29  O   UNL     1     -23.785  -2.077   9.357  0.00  0.00    +0.000 OA
ATOM     30  H   UNL     1     -23.479  -1.680   8.525  0.00  0.00    +0.000 HD
ENDBRANCH   3  29
TORSDOF 6
ENDMDL
