MODEL 1
REMARK VINA RESULT:      -6.1      0.000      0.000
REMARK  Name = 5280445_Luteolin.pdbqt.pdb
REMARK  5 active torsions:
REMARK  status: ('A' for Active; 'I' for Inactive)
REMARK    1  A    between atoms: C_5  and  C_12
REMARK    2  A    between atoms: C_8  and  O_22
REMARK    3  A    between atoms: C_10  and  O_24
REMARK    4  A    between atoms: C_15  and  O_18
REMARK    5  A    between atoms: C_17  and  O_20
REMARK                            x       y       z     vdW  Elec       q    Type
REMARK                         _______ _______ _______ _____ _____    ______ ____
ROOT
ATOM      1  O   UNL     1     -11.903  -3.322  21.950  0.00  0.00    +0.000 OA
ATOM      2  O   UNL     1     -11.072  -5.979  24.978  0.00  0.00    +0.000 OA
ATOM      3  C   UNL     1     -12.320  -4.045  24.295  0.00  0.00    +0.000 A 
ATOM      4  C   UNL     1     -12.535  -3.185  23.189  0.00  0.00    +0.000 A 
ATOM      5  C   UNL     1     -10.993  -4.370  21.767  0.00  0.00    +0.000 A 
ATOM      6  C   UNL     1     -11.365  -5.157  24.129  0.00  0.00    +0.000 A 
ATOM      7  C   UNL     1     -10.843  -5.114  22.811  0.00  0.00    +0.000 A 
ATOM      8  C   UNL     1     -12.994  -3.838  25.498  0.00  0.00    +0.000 A 
ATOM      9  C   UNL     1     -13.428  -2.126  23.307  0.00  0.00    +0.000 A 
ATOM     10  C   UNL     1     -14.094  -1.932  24.516  0.00  0.00    +0.000 A 
ATOM     11  C   UNL     1     -13.885  -2.775  25.608  0.00  0.00    +0.000 A 
ENDROOT
BRANCH   5  12
ATOM     12  C   UNL     1     -10.336  -4.510  20.474  0.00  0.00    +0.000 A 
ATOM     13  C   UNL     1      -9.213  -5.332  20.336  0.00  0.00    +0.000 A 
ATOM     14  C   UNL     1     -10.816  -3.827  19.349  0.00  0.00    +0.000 A 
ATOM     15  C   UNL     1      -8.594  -5.458  19.099  0.00  0.00    +0.000 A 
ATOM     16  C   UNL     1     -10.195  -3.953  18.106  0.00  0.00    +0.000 A 
ATOM     17  C   UNL     1      -9.081  -4.775  17.991  0.00  0.00    +0.000 A 
BRANCH  15  18
ATOM     18  O   UNL     1      -7.499  -6.265  18.979  0.00  0.00    +0.000 OA
ATOM     19  H   UNL     1      -6.819  -5.859  19.554  0.00  0.00    +0.000 HD
ENDBRANCH  15  18
BRANCH  17  20
ATOM     20  O   UNL     1      -8.436  -4.933  16.795  0.00  0.00    +0.000 OA
ATOM     21  H   UNL     1      -7.621  -4.398  16.826  0.00  0.00    +0.000 HD
ENDBRANCH  17  20
ENDBRANCH   5  12
BRANCH   8  22
ATOM     22  O   UNL     1     -12.827  -4.632  26.598  0.00  0.00    +0.000 OA
ATOM     23  H   UNL     1     -12.115  -4.263  27.165  0.00  0.00    +0.000 HD
ENDBRANCH   8  22
BRANCH  10  24
ATOM     24  O   UNL     1     -14.966  -0.885  24.610  0.00  0.00    +0.000 OA
ATOM     25  H   UNL     1     -15.564  -0.915  23.842  0.00  0.00    +0.000 HD
ENDBRANCH  10  24
TORSDOF 5
ENDMDL
MODEL 2
REMARK VINA RESULT:      -6.0     18.871     20.787
REMARK  Name = 5280445_Luteolin.pdbqt.pdb
REMARK  5 active torsions:
REMARK  status: ('A' for Active; 'I' for Inactive)
REMARK    1  A    between atoms: C_5  and  C_12
REMARK    2  A    between atoms: C_8  and  O_22
REMARK    3  A    between atoms: C_10  and  O_24
REMARK    4  A    between atoms: C_15  and  O_18
REMARK    5  A    between atoms: C_17  and  O_20
REMARK                            x       y       z     vdW  Elec       q    Type
REMARK                         _______ _______ _______ _____ _____    ______ ____
ROOT
ATOM      1  O   UNL     1       2.941 -13.023  12.491  0.00  0.00    +0.000 OA
ATOM      2  O   UNL     1       7.045 -12.750  12.585  0.00  0.00    +0.000 OA
ATOM      3  C   UNL     1       4.970 -11.618  12.161  0.00  0.00    +0.000 A 
ATOM      4  C   UNL     1       3.567 -11.817  12.160  0.00  0.00    +0.000 A 
ATOM      5  C   UNL     1       3.734 -14.120  12.849  0.00  0.00    +0.000 A 
ATOM      6  C   UNL     1       5.828 -12.758  12.535  0.00  0.00    +0.000 A 
ATOM      7  C   UNL     1       5.001 -13.872  12.830  0.00  0.00    +0.000 A 
ATOM      8  C   UNL     1       5.513 -10.381  11.819  0.00  0.00    +0.000 A 
ATOM      9  C   UNL     1       2.725 -10.766  11.813  0.00  0.00    +0.000 A 
ATOM     10  C   UNL     1       3.283  -9.535  11.473  0.00  0.00    +0.000 A 
ATOM     11  C   UNL     1       4.664  -9.334  11.472  0.00  0.00    +0.000 A 
ENDROOT
BRANCH   5  12
ATOM     12  C   UNL     1       3.079 -15.375  13.194  0.00  0.00    +0.000 A 
ATOM     13  C   UNL     1       2.524 -16.180  12.196  0.00  0.00    +0.000 A 
ATOM     14  C   UNL     1       2.996 -15.796  14.528  0.00  0.00    +0.000 A 
ATOM     15  C   UNL     1       1.901 -17.375  12.535  0.00  0.00    +0.000 A 
ATOM     16  C   UNL     1       2.371 -16.996  14.869  0.00  0.00    +0.000 A 
ATOM     17  C   UNL     1       1.825 -17.781  13.862  0.00  0.00    +0.000 A 
BRANCH  15  18
ATOM     18  O   UNL     1       1.363 -18.152  11.550  0.00  0.00    +0.000 OA
ATOM     19  H   UNL     1       0.437 -17.847  11.462  0.00  0.00    +0.000 HD
ENDBRANCH  15  18
BRANCH  17  20
ATOM     20  O   UNL     1       1.202 -18.966  14.145  0.00  0.00    +0.000 OA
ATOM     21  H   UNL     1       1.852 -19.544  14.584  0.00  0.00    +0.000 HD
ENDBRANCH  17  20
ENDBRANCH   5  12
BRANCH   8  22
ATOM     22  O   UNL     1       6.857 -10.129  11.801  0.00  0.00    +0.000 OA
ATOM     23  H   UNL     1       7.217 -10.330  10.910  0.00  0.00    +0.000 HD
ENDBRANCH   8  22
BRANCH  10  24
ATOM     24  O   UNL     1       2.438  -8.516  11.135  0.00  0.00    +0.000 OA
ATOM     25  H   UNL     1       2.684  -8.198  10.248  0.00  0.00    +0.000 HD
ENDBRANCH  10  24
TORSDOF 5
ENDMDL
MODEL 3
REMARK VINA RESULT:      -5.9      5.236      6.600
REMARK  Name = 5280445_Luteolin.pdbqt.pdb
REMARK  5 active torsions:
REMARK  status: ('A' for Active; 'I' for Inactive)
REMARK    1  A    between atoms: C_5  and  C_12
REMARK    2  A    between atoms: C_8  and  O_22
REMARK    3  A    between atoms: C_10  and  O_24
REMARK    4  A    between atoms: C_15  and  O_18
REMARK    5  A    between atoms: C_17  and  O_20
REMARK                            x       y       z     vdW  Elec       q    Type
REMARK                         _______ _______ _______ _____ _____    ______ ____
ROOT
ATOM      1  O   UNL     1      -7.957  -2.654  22.740  0.00  0.00    +0.000 OA
ATOM      2  O   UNL     1      -9.937  -1.417  19.354  0.00  0.00    +0.000 OA
ATOM      3  C   UNL     1      -9.793  -3.051  21.108  0.00  0.00    +0.000 A 
ATOM      4  C   UNL     1      -9.045  -3.390  22.262  0.00  0.00    +0.000 A 
ATOM      5  C   UNL     1      -7.562  -1.503  22.048  0.00  0.00    +0.000 A 
ATOM      6  C   UNL     1      -9.399  -1.842  20.360  0.00  0.00    +0.000 A 
ATOM      7  C   UNL     1      -8.284  -1.250  21.009  0.00  0.00    +0.000 A 
ATOM      8  C   UNL     1     -10.867  -3.840  20.699  0.00  0.00    +0.000 A 
ATOM      9  C   UNL     1      -9.387  -4.523  22.993  0.00  0.00    +0.000 A 
ATOM     10  C   UNL     1     -10.463  -5.302  22.573  0.00  0.00    +0.000 A 
ATOM     11  C   UNL     1     -11.203  -4.972  21.436  0.00  0.00    +0.000 A 
ENDROOT
BRANCH   5  12
ATOM     12  C   UNL     1      -6.428  -0.738  22.550  0.00  0.00    +0.000 A 
ATOM     13  C   UNL     1      -5.250  -1.387  22.931  0.00  0.00    +0.000 A 
ATOM     14  C   UNL     1      -6.497   0.658  22.656  0.00  0.00    +0.000 A 
ATOM     15  C   UNL     1      -4.175  -0.648  23.408  0.00  0.00    +0.000 A 
ATOM     16  C   UNL     1      -5.417   1.400  23.135  0.00  0.00    +0.000 A 
ATOM     17  C   UNL     1      -4.257   0.736  23.509  0.00  0.00    +0.000 A 
BRANCH  15  18
ATOM     18  O   UNL     1      -3.030  -1.294  23.777  0.00  0.00    +0.000 OA
ATOM     19  H   UNL     1      -2.495  -0.620  24.242  0.00  0.00    +0.000 HD
ENDBRANCH  15  18
BRANCH  17  20
ATOM     20  O   UNL     1      -3.170   1.418  23.985  0.00  0.00    +0.000 OA
ATOM     21  H   UNL     1      -3.393   1.747  24.875  0.00  0.00    +0.000 HD
ENDBRANCH  17  20
ENDBRANCH   5  12
BRANCH   8  22
ATOM     22  O   UNL     1     -11.626  -3.565  19.595  0.00  0.00    +0.000 OA
ATOM     23  H   UNL     1     -11.708  -2.592  19.488  0.00  0.00    +0.000 HD
ENDBRANCH   8  22
BRANCH  10  24
ATOM     24  O   UNL     1     -10.781  -6.410  23.305  0.00  0.00    +0.000 OA
ATOM     25  H   UNL     1     -10.804  -6.158  24.245  0.00  0.00    +0.000 HD
ENDBRANCH  10  24
TORSDOF 5
ENDMDL
MODEL 4
REMARK VINA RESULT:      -5.9     16.093     18.109
REMARK  Name = 5280445_Luteolin.pdbqt.pdb
REMARK  5 active torsions:
REMARK  status: ('A' for Active; 'I' for Inactive)
REMARK    1  A    between atoms: C_5  and  C_12
REMARK    2  A    between atoms: C_8  and  O_22
REMARK    3  A    between atoms: C_10  and  O_24
REMARK    4  A    between atoms: C_15  and  O_18
REMARK    5  A    between atoms: C_17  and  O_20
REMARK                            x       y       z     vdW  Elec       q    Type
REMARK                         _______ _______ _______ _____ _____    ______ ____
ROOT
ATOM      1  O   UNL     1     -21.914  -2.300   7.846  0.00  0.00    +0.000 OA
ATOM      2  O   UNL     1     -21.926  -4.405  11.379  0.00  0.00    +0.000 OA
ATOM      3  C   UNL     1     -21.788  -4.510   8.985  0.00  0.00    +0.000 A 
ATOM      4  C   UNL     1     -21.795  -3.693   7.827  0.00  0.00    +0.000 A 
ATOM      5  C   UNL     1     -22.036  -1.649   9.079  0.00  0.00    +0.000 A 
ATOM      6  C   UNL     1     -21.915  -3.848  10.297  0.00  0.00    +0.000 A 
ATOM      7  C   UNL     1     -22.022  -2.449  10.092  0.00  0.00    +0.000 A 
ATOM      8  C   UNL     1     -21.664  -5.895   8.877  0.00  0.00    +0.000 A 
ATOM      9  C   UNL     1     -21.677  -4.280   6.572  0.00  0.00    +0.000 A 
ATOM     10  C   UNL     1     -21.554  -5.666   6.480  0.00  0.00    +0.000 A 
ATOM     11  C   UNL     1     -21.546  -6.475   7.618  0.00  0.00    +0.000 A 
ENDROOT
BRANCH   5  12
ATOM     12  C   UNL     1     -22.160  -0.197   9.095  0.00  0.00    +0.000 A 
ATOM     13  C   UNL     1     -21.103   0.598   9.549  0.00  0.00    +0.000 A 
ATOM     14  C   UNL     1     -23.336   0.427   8.657  0.00  0.00    +0.000 A 
ATOM     15  C   UNL     1     -21.232   1.981   9.561  0.00  0.00    +0.000 A 
ATOM     16  C   UNL     1     -23.465   1.816   8.669  0.00  0.00    +0.000 A 
ATOM     17  C   UNL     1     -22.404   2.587   9.124  0.00  0.00    +0.000 A 
BRANCH  15  18
ATOM     18  O   UNL     1     -20.191   2.745  10.007  0.00  0.00    +0.000 OA
ATOM     19  H   UNL     1     -19.416   2.446   9.491  0.00  0.00    +0.000 HD
ENDBRANCH  15  18
BRANCH  17  20
ATOM     20  O   UNL     1     -22.480   3.952   9.156  0.00  0.00    +0.000 OA
ATOM     21  H   UNL     1     -22.327   4.236  10.075  0.00  0.00    +0.000 HD
ENDBRANCH  17  20
ENDBRANCH   5  12
BRANCH   8  22
ATOM     22  O   UNL     1     -21.651  -6.734   9.957  0.00  0.00    +0.000 OA
ATOM     23  H   UNL     1     -22.563  -6.833  10.306  0.00  0.00    +0.000 HD
ENDBRANCH   8  22
BRANCH  10  24
ATOM     24  O   UNL     1     -21.440  -6.222   5.238  0.00  0.00    +0.000 OA
ATOM     25  H   UNL     1     -21.381  -5.501   4.586  0.00  0.00    +0.000 HD
ENDBRANCH  10  24
TORSDOF 5
ENDMDL
MODEL 5
REMARK VINA RESULT:      -5.8      4.125      5.430
REMARK  Name = 5280445_Luteolin.pdbqt.pdb
REMARK  5 active torsions:
REMARK  status: ('A' for Active; 'I' for Inactive)
REMARK    1  A    between atoms: C_5  and  C_12
REMARK    2  A    between atoms: C_8  and  O_22
REMARK    3  A    between atoms: C_10  and  O_24
REMARK    4  A    between atoms: C_15  and  O_18
REMARK    5  A    between atoms: C_17  and  O_20
REMARK                            x       y       z     vdW  Elec       q    Type
REMARK                         _______ _______ _______ _____ _____    ______ ____
ROOT
ATOM      1  O   UNL     1     -10.319  -0.731  22.001  0.00  0.00    +0.000 OA
ATOM      2  O   UNL     1      -9.198   2.437  19.630  0.00  0.00    +0.000 OA
ATOM      3  C   UNL     1     -10.261   1.734  21.665  0.00  0.00    +0.000 A 
ATOM      4  C   UNL     1     -10.604   0.576  22.406  0.00  0.00    +0.000 A 
ATOM      5  C   UNL     1      -9.654  -0.934  20.786  0.00  0.00    +0.000 A 
ATOM      6  C   UNL     1      -9.559   1.549  20.380  0.00  0.00    +0.000 A 
ATOM      7  C   UNL     1      -9.371   0.160  20.162  0.00  0.00    +0.000 A 
ATOM      8  C   UNL     1     -10.581   3.004  22.142  0.00  0.00    +0.000 A 
ATOM      9  C   UNL     1     -11.265   0.710  23.622  0.00  0.00    +0.000 A 
ATOM     10  C   UNL     1     -11.579   1.986  24.086  0.00  0.00    +0.000 A 
ATOM     11  C   UNL     1     -11.244   3.130  23.359  0.00  0.00    +0.000 A 
ENDROOT
BRANCH   5  12
ATOM     12  C   UNL     1      -9.359  -2.298  20.367  0.00  0.00    +0.000 A 
ATOM     13  C   UNL     1      -9.828  -2.778  19.141  0.00  0.00    +0.000 A 
ATOM     14  C   UNL     1      -8.601  -3.149  21.182  0.00  0.00    +0.000 A 
ATOM     15  C   UNL     1      -9.542  -4.080  18.751  0.00  0.00    +0.000 A 
ATOM     16  C   UNL     1      -8.313  -4.457  20.791  0.00  0.00    +0.000 A 
ATOM     17  C   UNL     1      -8.789  -4.914  19.569  0.00  0.00    +0.000 A 
BRANCH  15  18
ATOM     18  O   UNL     1     -10.007  -4.536  17.551  0.00  0.00    +0.000 OA
ATOM     19  H   UNL     1      -9.765  -5.484  17.527  0.00  0.00    +0.000 HD
ENDBRANCH  15  18
BRANCH  17  20
ATOM     20  O   UNL     1      -8.534  -6.188  19.140  0.00  0.00    +0.000 OA
ATOM     21  H   UNL     1      -8.262  -6.136  18.205  0.00  0.00    +0.000 HD
ENDBRANCH  17  20
ENDBRANCH   5  12
BRANCH   8  22
ATOM     22  O   UNL     1     -10.278   4.157  21.473  0.00  0.00    +0.000 OA
ATOM     23  H   UNL     1     -11.071   4.736  21.438  0.00  0.00    +0.000 HD
ENDBRANCH   8  22
BRANCH  10  24
ATOM     24  O   UNL     1     -12.230   2.095  25.281  0.00  0.00    +0.000 OA
ATOM     25  H   UNL     1     -11.663   1.710  25.973  0.00  0.00    +0.000 HD
ENDBRANCH  10  24
TORSDOF 5
ENDMDL
MODEL 6
REMARK VINA RESULT:      -5.7     16.511     18.797
REMARK  Name = 5280445_Luteolin.pdbqt.pdb
REMARK  5 active torsions:
REMARK  status: ('A' for Active; 'I' for Inactive)
REMARK    1  A    between atoms: C_5  and  C_12
REMARK    2  A    between atoms: C_8  and  O_22
REMARK    3  A    between atoms: C_10  and  O_24
REMARK    4  A    between atoms: C_15  and  O_18
REMARK    5  A    between atoms: C_17  and  O_20
REMARK                            x       y       z     vdW  Elec       q    Type
REMARK                         _______ _______ _______ _____ _____    ______ ____
ROOT
ATOM      1  O   UNL     1     -22.995  -4.193   7.486  0.00  0.00    +0.000 OA
ATOM      2  O   UNL     1     -21.246  -6.286  10.566  0.00  0.00    +0.000 OA
ATOM      3  C   UNL     1     -22.475  -6.403   8.506  0.00  0.00    +0.000 A 
ATOM      4  C   UNL     1     -23.044  -5.590   7.495  0.00  0.00    +0.000 A 
ATOM      5  C   UNL     1     -22.346  -3.533   8.536  0.00  0.00    +0.000 A 
ATOM      6  C   UNL     1     -21.784  -5.732   9.624  0.00  0.00    +0.000 A 
ATOM      7  C   UNL     1     -21.850  -4.330   9.422  0.00  0.00    +0.000 A 
ATOM      8  C   UNL     1     -22.568  -7.793   8.438  0.00  0.00    +0.000 A 
ATOM      9  C   UNL     1     -23.703  -6.186   6.425  0.00  0.00    +0.000 A 
ATOM     10  C   UNL     1     -23.788  -7.576   6.371  0.00  0.00    +0.000 A 
ATOM     11  C   UNL     1     -23.229  -8.381   7.364  0.00  0.00    +0.000 A 
ENDROOT
BRANCH   5  12
ATOM     12  C   UNL     1     -22.295  -2.076   8.524  0.00  0.00    +0.000 A 
ATOM     13  C   UNL     1     -22.508  -1.371   7.336  0.00  0.00    +0.000 A 
ATOM     14  C   UNL     1     -22.035  -1.359   9.700  0.00  0.00    +0.000 A 
ATOM     15  C   UNL     1     -22.457   0.017   7.336  0.00  0.00    +0.000 A 
ATOM     16  C   UNL     1     -21.984   0.035   9.700  0.00  0.00    +0.000 A 
ATOM     17  C   UNL     1     -22.198   0.716   8.509  0.00  0.00    +0.000 A 
BRANCH  15  18
ATOM     18  O   UNL     1     -22.667   0.694   6.168  0.00  0.00    +0.000 OA
ATOM     19  H   UNL     1     -21.898   1.292   6.078  0.00  0.00    +0.000 HD
ENDBRANCH  15  18
BRANCH  17  20
ATOM     20  O   UNL     1     -22.158   2.083   8.456  0.00  0.00    +0.000 OA
ATOM     21  H   UNL     1     -21.462   2.334   7.823  0.00  0.00    +0.000 HD
ENDBRANCH  17  20
ENDBRANCH   5  12
BRANCH   8  22
ATOM     22  O   UNL     1     -22.040  -8.629   9.382  0.00  0.00    +0.000 OA
ATOM     23  H   UNL     1     -21.119  -8.355   9.585  0.00  0.00    +0.000 HD
ENDBRANCH   8  22
BRANCH  10  24
ATOM     24  O   UNL     1     -24.440  -8.140   5.312  0.00  0.00    +0.000 OA
ATOM     25  H   UNL     1     -24.300  -9.103   5.345  0.00  0.00    +0.000 HD
ENDBRANCH  10  24
TORSDOF 5
ENDMDL
MODEL 7
REMARK VINA RESULT:      -5.7     19.525     21.460
REMARK  Name = 5280445_Luteolin.pdbqt.pdb
REMARK  5 active torsions:
REMARK  status: ('A' for Active; 'I' for Inactive)
REMARK    1  A    between atoms: C_5  and  C_12
REMARK    2  A    between atoms: C_8  and  O_22
REMARK    3  A    between atoms: C_10  and  O_24
REMARK    4  A    between atoms: C_15  and  O_18
REMARK    5  A    between atoms: C_17  and  O_20
REMARK                            x       y       z     vdW  Elec       q    Type
REMARK                         _______ _______ _______ _____ _____    ______ ____
ROOT
ATOM      1  O   UNL     1       5.124 -13.990  12.860  0.00  0.00    +0.000 OA
ATOM      2  O   UNL     1       2.875 -10.658  11.990  0.00  0.00    +0.000 OA
ATOM      3  C   UNL     1       5.078 -11.580  12.239  0.00  0.00    +0.000 A 
ATOM      4  C   UNL     1       5.758 -12.783  12.553  0.00  0.00    +0.000 A 
ATOM      5  C   UNL     1       3.724 -14.037  12.864  0.00  0.00    +0.000 A 
ATOM      6  C   UNL     1       3.602 -11.602  12.237  0.00  0.00    +0.000 A 
ATOM      7  C   UNL     1       3.167 -12.910  12.571  0.00  0.00    +0.000 A 
ATOM      8  C   UNL     1       5.788 -10.417  11.944  0.00  0.00    +0.000 A 
ATOM      9  C   UNL     1       7.148 -12.801  12.565  0.00  0.00    +0.000 A 
ATOM     10  C   UNL     1       7.845 -11.631  12.267  0.00  0.00    +0.000 A 
ATOM     11  C   UNL     1       7.179 -10.444  11.958  0.00  0.00    +0.000 A 
ENDROOT
BRANCH   5  12
ATOM     12  C   UNL     1       3.066 -15.297  13.184  0.00  0.00    +0.000 A 
ATOM     13  C   UNL     1       2.534 -16.095  12.167  0.00  0.00    +0.000 A 
ATOM     14  C   UNL     1       2.956 -15.730  14.512  0.00  0.00    +0.000 A 
ATOM     15  C   UNL     1       1.908 -17.294  12.483  0.00  0.00    +0.000 A 
ATOM     16  C   UNL     1       2.327 -16.934  14.830  0.00  0.00    +0.000 A 
ATOM     17  C   UNL     1       1.805 -17.712  13.805  0.00  0.00    +0.000 A 
BRANCH  15  18
ATOM     18  O   UNL     1       1.393 -18.064  11.480  0.00  0.00    +0.000 OA
ATOM     19  H   UNL     1       0.424 -18.046  11.616  0.00  0.00    +0.000 HD
ENDBRANCH  15  18
BRANCH  17  20
ATOM     20  O   UNL     1       1.179 -18.901  14.064  0.00  0.00    +0.000 OA
ATOM     21  H   UNL     1       1.218 -19.052  15.025  0.00  0.00    +0.000 HD
ENDBRANCH  17  20
ENDBRANCH   5  12
BRANCH   8  22
ATOM     22  O   UNL     1       5.188  -9.228  11.635  0.00  0.00    +0.000 OA
ATOM     23  H   UNL     1       4.535  -9.366  10.915  0.00  0.00    +0.000 HD
ENDBRANCH   8  22
BRANCH  10  24
ATOM     24  O   UNL     1       9.210 -11.672  12.285  0.00  0.00    +0.000 OA
ATOM     25  H   UNL     1       9.532 -10.887  12.764  0.00  0.00    +0.000 HD
ENDBRANCH  10  24
TORSDOF 5
ENDMDL
MODEL 8
REMARK VINA RESULT:      -5.7     14.473     17.173
REMARK  Name = 5280445_Luteolin.pdbqt.pdb
REMARK  5 active torsions:
REMARK  status: ('A' for Active; 'I' for Inactive)
REMARK    1  A    between atoms: C_5  and  C_12
REMARK    2  A    between atoms: C_8  and  O_22
REMARK    3  A    between atoms: C_10  and  O_24
REMARK    4  A    between atoms: C_15  and  O_18
REMARK    5  A    between atoms: C_17  and  O_20
REMARK                            x       y       z     vdW  Elec       q    Type
REMARK                         _______ _______ _______ _____ _____    ______ ____
ROOT
ATOM      1  O   UNL     1     -21.226  -5.118  10.882  0.00  0.00    +0.000 OA
ATOM      2  O   UNL     1     -23.970  -5.389   7.830  0.00  0.00    +0.000 OA
ATOM      3  C   UNL     1     -21.654  -5.192   8.431  0.00  0.00    +0.000 A 
ATOM      4  C   UNL     1     -20.793  -5.104   9.553  0.00  0.00    +0.000 A 
ATOM      5  C   UNL     1     -22.597  -5.224  11.145  0.00  0.00    +0.000 A 
ATOM      6  C   UNL     1     -23.103  -5.305   8.681  0.00  0.00    +0.000 A 
ATOM      7  C   UNL     1     -23.324  -5.301  10.082  0.00  0.00    +0.000 A 
ATOM      8  C   UNL     1     -21.139  -5.172   7.135  0.00  0.00    +0.000 A 
ATOM      9  C   UNL     1     -19.420  -4.997   9.357  0.00  0.00    +0.000 A 
ATOM     10  C   UNL     1     -18.920  -4.977   8.056  0.00  0.00    +0.000 A 
ATOM     11  C   UNL     1     -19.764  -5.064   6.948  0.00  0.00    +0.000 A 
ENDROOT
BRANCH   5  12
ATOM     12  C   UNL     1     -23.045  -5.239  12.532  0.00  0.00    +0.000 A 
ATOM     13  C   UNL     1     -22.683  -6.289  13.381  0.00  0.00    +0.000 A 
ATOM     14  C   UNL     1     -23.843  -4.204  13.037  0.00  0.00    +0.000 A 
ATOM     15  C   UNL     1     -23.117  -6.293  14.701  0.00  0.00    +0.000 A 
ATOM     16  C   UNL     1     -24.279  -4.208  14.362  0.00  0.00    +0.000 A 
ATOM     17  C   UNL     1     -23.908  -5.260  15.189  0.00  0.00    +0.000 A 
BRANCH  15  18
ATOM     18  O   UNL     1     -22.755  -7.325  15.520  0.00  0.00    +0.000 OA
ATOM     19  H   UNL     1     -22.446  -8.031  14.919  0.00  0.00    +0.000 HD
ENDBRANCH  15  18
BRANCH  17  20
ATOM     20  O   UNL     1     -24.309  -5.311  16.496  0.00  0.00    +0.000 OA
ATOM     21  H   UNL     1     -25.113  -5.860  16.538  0.00  0.00    +0.000 HD
ENDBRANCH  17  20
ENDBRANCH   5  12
BRANCH   8  22
ATOM     22  O   UNL     1     -21.919  -5.253   6.015  0.00  0.00    +0.000 OA
ATOM     23  H   UNL     1     -22.345  -4.384   5.849  0.00  0.00    +0.000 HD
ENDBRANCH   8  22
BRANCH  10  24
ATOM     24  O   UNL     1     -17.569  -4.871   7.887  0.00  0.00    +0.000 OA
ATOM     25  H   UNL     1     -17.136  -5.130   8.720  0.00  0.00    +0.000 HD
ENDBRANCH  10  24
TORSDOF 5
ENDMDL
MODEL 9
REMARK VINA RESULT:      -5.6     15.704     18.174
REMARK  Name = 5280445_Luteolin.pdbqt.pdb
REMARK  5 active torsions:
REMARK  status: ('A' for Active; 'I' for Inactive)
REMARK    1  A    between atoms: C_5  and  C_12
REMARK    2  A    between atoms: C_8  and  O_22
REMARK    3  A    between atoms: C_10  and  O_24
REMARK    4  A    between atoms: C_15  and  O_18
REMARK    5  A    between atoms: C_17  and  O_20
REMARK                            x       y       z     vdW  Elec       q    Type
REMARK                         _______ _______ _______ _____ _____    ______ ____
ROOT
ATOM      1  O   UNL     1     -21.765  -3.024   9.645  0.00  0.00    +0.000 OA
ATOM      2  O   UNL     1     -22.592  -2.556   5.643  0.00  0.00    +0.000 OA
ATOM      3  C   UNL     1     -22.190  -4.097   7.440  0.00  0.00    +0.000 A 
ATOM      4  C   UNL     1     -21.905  -4.149   8.827  0.00  0.00    +0.000 A 
ATOM      5  C   UNL     1     -21.909  -1.752   9.077  0.00  0.00    +0.000 A 
ATOM      6  C   UNL     1     -22.347  -2.770   6.816  0.00  0.00    +0.000 A 
ATOM      7  C   UNL     1     -22.167  -1.776   7.812  0.00  0.00    +0.000 A 
ATOM      8  C   UNL     1     -22.315  -5.270   6.696  0.00  0.00    +0.000 A 
ATOM      9  C   UNL     1     -21.750  -5.382   9.450  0.00  0.00    +0.000 A 
ATOM     10  C   UNL     1     -21.878  -6.545   8.694  0.00  0.00    +0.000 A 
ATOM     11  C   UNL     1     -22.158  -6.500   7.327  0.00  0.00    +0.000 A 
ENDROOT
BRANCH   5  12
ATOM     12  C   UNL     1     -21.762  -0.581   9.932  0.00  0.00    +0.000 A 
ATOM     13  C   UNL     1     -21.435   0.661   9.380  0.00  0.00    +0.000 A 
ATOM     14  C   UNL     1     -21.947  -0.679  11.317  0.00  0.00    +0.000 A 
ATOM     15  C   UNL     1     -21.297   1.770  10.204  0.00  0.00    +0.000 A 
ATOM     16  C   UNL     1     -21.808   0.435  12.146  0.00  0.00    +0.000 A 
ATOM     17  C   UNL     1     -21.483   1.659  11.578  0.00  0.00    +0.000 A 
BRANCH  15  18
ATOM     18  O   UNL     1     -20.977   2.978   9.652  0.00  0.00    +0.000 OA
ATOM     19  H   UNL     1     -21.288   3.644  10.298  0.00  0.00    +0.000 HD
ENDBRANCH  15  18
BRANCH  17  20
ATOM     20  O   UNL     1     -21.335   2.782  12.346  0.00  0.00    +0.000 OA
ATOM     21  H   UNL     1     -20.490   2.704  12.824  0.00  0.00    +0.000 HD
ENDBRANCH  17  20
ENDBRANCH   5  12
BRANCH   8  22
ATOM     22  O   UNL     1     -22.588  -5.284   5.356  0.00  0.00    +0.000 OA
ATOM     23  H   UNL     1     -23.387  -5.830   5.189  0.00  0.00    +0.000 HD
ENDBRANCH   8  22
BRANCH  10  24
ATOM     24  O   UNL     1     -21.721  -7.745   9.326  0.00  0.00    +0.000 OA
ATOM     25  H   UNL     1     -20.775  -7.973   9.317  0.00  0.00    +0.000 HD
ENDBRANCH  10  24
TORSDOF 5
ENDMDL
