MODEL 1
REMARK VINA RESULT:      -4.9      0.000      0.000
REMARK  Name = 5281416_Esculetin.pdbqt.pdb
REMARK  2 active torsions:
REMARK  status: ('A' for Active; 'I' for Inactive)
REMARK    1  A    between atoms: C_7  and  O_12
REMARK    2  A    between atoms: C_8  and  O_14
REMARK                            x       y       z     vdW  Elec       q    Type
REMARK                         _______ _______ _______ _____ _____    ______ ____
ROOT
ATOM      1  O   UNL     1       5.856  -8.839  12.138  0.00  0.00    +0.000 OA
ATOM      2  O   UNL     1       5.477  -6.534  12.357  0.00  0.00    +0.000 OA
ATOM      3  C   UNL     1       3.830 -10.293  12.095  0.00  0.00    +0.000 A 
ATOM      4  C   UNL     1       5.244 -10.148  12.049  0.00  0.00    +0.000 A 
ATOM      5  C   UNL     1       3.238 -11.543  12.010  0.00  0.00    +0.000 A 
ATOM      6  C   UNL     1       6.081 -11.246  11.917  0.00  0.00    +0.000 A 
ATOM      7  C   UNL     1       4.081 -12.643  11.877  0.00  0.00    +0.000 A 
ATOM      8  C   UNL     1       5.476 -12.496  11.832  0.00  0.00    +0.000 A 
ATOM      9  C   UNL     1       3.128  -9.070  12.232  0.00  0.00    +0.000 A 
ATOM     10  C   UNL     1       3.652  -8.000  12.304  0.00  0.00    +0.000 A 
ATOM     11  C   UNL     1       5.051  -7.675  12.275  0.00  0.00    +0.000 A 
ENDROOT
BRANCH   7  12
ATOM     12  O   UNL     1       3.572 -13.913  11.787  0.00  0.00    +0.000 OA
ATOM     13  H   UNL     1       3.582 -14.303  12.681  0.00  0.00    +0.000 HD
ENDBRANCH   7  12
BRANCH   8  14
ATOM     14  O   UNL     1       6.266 -13.605  11.702  0.00  0.00    +0.000 OA
ATOM     15  H   UNL     1       7.096 -13.387  12.171  0.00  0.00    +0.000 HD
ENDBRANCH   8  14
TORSDOF 2
ENDMDL
MODEL 2
REMARK VINA RESULT:      -4.6      1.766      2.412
REMARK  Name = 5281416_Esculetin.pdbqt.pdb
REMARK  2 active torsions:
REMARK  status: ('A' for Active; 'I' for Inactive)
REMARK    1  A    between atoms: C_7  and  O_12
REMARK    2  A    between atoms: C_8  and  O_14
REMARK                            x       y       z     vdW  Elec       q    Type
REMARK                         _______ _______ _______ _____ _____    ______ ____
ROOT
ATOM      1  O   UNL     1       6.132  -9.307  13.919  0.00  0.00    +0.000 OA
ATOM      2  O   UNL     1       7.462  -7.492  14.584  0.00  0.00    +0.000 OA
ATOM      3  C   UNL     1       4.304  -8.802  12.300  0.00  0.00    +0.000 A 
ATOM      4  C   UNL     1       5.016  -9.735  13.104  0.00  0.00    +0.000 A 
ATOM      5  C   UNL     1       3.234  -9.205  11.517  0.00  0.00    +0.000 A 
ATOM      6  C   UNL     1       4.668 -11.078  13.135  0.00  0.00    +0.000 A 
ATOM      7  C   UNL     1       2.888 -10.554  11.550  0.00  0.00    +0.000 A 
ATOM      8  C   UNL     1       3.592 -11.471  12.345  0.00  0.00    +0.000 A 
ATOM      9  C   UNL     1       4.790  -7.475  12.386  0.00  0.00    +0.000 A 
ATOM     10  C   UNL     1       5.714  -7.142  13.066  0.00  0.00    +0.000 A 
ATOM     11  C   UNL     1       6.536  -7.943  13.930  0.00  0.00    +0.000 A 
ENDROOT
BRANCH   7  12
ATOM     12  O   UNL     1       1.842 -11.031  10.804  0.00  0.00    +0.000 OA
ATOM     13  H   UNL     1       1.741 -10.451  10.026  0.00  0.00    +0.000 HD
ENDBRANCH   7  12
BRANCH   8  14
ATOM     14  O   UNL     1       3.218 -12.786  12.347  0.00  0.00    +0.000 OA
ATOM     15  H   UNL     1       3.442 -13.120  11.455  0.00  0.00    +0.000 HD
ENDBRANCH   8  14
TORSDOF 2
ENDMDL
MODEL 3
REMARK VINA RESULT:      -4.5     26.087     27.370
REMARK  Name = 5281416_Esculetin.pdbqt.pdb
REMARK  2 active torsions:
REMARK  status: ('A' for Active; 'I' for Inactive)
REMARK    1  A    between atoms: C_7  and  O_12
REMARK    2  A    between atoms: C_8  and  O_14
REMARK                            x       y       z     vdW  Elec       q    Type
REMARK                         _______ _______ _______ _____ _____    ______ ____
ROOT
ATOM      1  O   UNL     1     -21.018  -6.040  11.717  0.00  0.00    +0.000 OA
ATOM      2  O   UNL     1     -21.568  -6.893  13.832  0.00  0.00    +0.000 OA
ATOM      3  C   UNL     1     -22.381  -4.111  10.916  0.00  0.00    +0.000 A 
ATOM      4  C   UNL     1     -21.331  -5.048  10.711  0.00  0.00    +0.000 A 
ATOM      5  C   UNL     1     -22.686  -3.159   9.957  0.00  0.00    +0.000 A 
ATOM      6  C   UNL     1     -20.574  -5.043   9.548  0.00  0.00    +0.000 A 
ATOM      7  C   UNL     1     -21.925  -3.157   8.791  0.00  0.00    +0.000 A 
ATOM      8  C   UNL     1     -20.888  -4.083   8.592  0.00  0.00    +0.000 A 
ATOM      9  C   UNL     1     -23.051  -4.256  12.156  0.00  0.00    +0.000 A 
ATOM     10  C   UNL     1     -22.778  -5.082  12.973  0.00  0.00    +0.000 A 
ATOM     11  C   UNL     1     -21.759  -6.095  12.930  0.00  0.00    +0.000 A 
ENDROOT
BRANCH   7  12
ATOM     12  O   UNL     1     -22.164  -2.247   7.795  0.00  0.00    +0.000 OA
ATOM     13  H   UNL     1     -22.415  -2.741   6.993  0.00  0.00    +0.000 HD
ENDBRANCH   7  12
BRANCH   8  14
ATOM     14  O   UNL     1     -20.166  -4.045   7.431  0.00  0.00    +0.000 OA
ATOM     15  H   UNL     1     -20.402  -3.195   7.008  0.00  0.00    +0.000 HD
ENDBRANCH   8  14
TORSDOF 2
ENDMDL
MODEL 4
REMARK VINA RESULT:      -4.5     24.152     25.502
REMARK  Name = 5281416_Esculetin.pdbqt.pdb
REMARK  2 active torsions:
REMARK  status: ('A' for Active; 'I' for Inactive)
REMARK    1  A    between atoms: C_7  and  O_12
REMARK    2  A    between atoms: C_8  and  O_14
REMARK                            x       y       z     vdW  Elec       q    Type
REMARK                         _______ _______ _______ _____ _____    ______ ____
ROOT
ATOM      1  O   UNL     1     -13.496   7.098   5.471  0.00  0.00    +0.000 OA
ATOM      2  O   UNL     1     -14.267   6.320   7.546  0.00  0.00    +0.000 OA
ATOM      3  C   UNL     1     -11.952   5.585   4.228  0.00  0.00    +0.000 A 
ATOM      4  C   UNL     1     -12.673   6.808   4.317  0.00  0.00    +0.000 A 
ATOM      5  C   UNL     1     -11.161   5.301   3.127  0.00  0.00    +0.000 A 
ATOM      6  C   UNL     1     -12.612   7.759   3.309  0.00  0.00    +0.000 A 
ATOM      7  C   UNL     1     -11.102   6.257   2.116  0.00  0.00    +0.000 A 
ATOM      8  C   UNL     1     -11.815   7.463   2.208  0.00  0.00    +0.000 A 
ATOM      9  C   UNL     1     -12.126   4.729   5.344  0.00  0.00    +0.000 A 
ATOM     10  C   UNL     1     -12.811   4.987   6.287  0.00  0.00    +0.000 A 
ATOM     11  C   UNL     1     -13.599   6.163   6.537  0.00  0.00    +0.000 A 
ENDROOT
BRANCH   7  12
ATOM     12  O   UNL     1     -10.343   6.051   0.995  0.00  0.00    +0.000 OA
ATOM     13  H   UNL     1     -10.730   5.301   0.506  0.00  0.00    +0.000 HD
ENDBRANCH   7  12
BRANCH   8  14
ATOM     14  O   UNL     1     -11.728   8.374   1.191  0.00  0.00    +0.000 OA
ATOM     15  H   UNL     1     -11.896   9.243   1.609  0.00  0.00    +0.000 HD
ENDBRANCH   8  14
TORSDOF 2
ENDMDL
MODEL 5
REMARK VINA RESULT:      -4.4      1.362      4.571
REMARK  Name = 5281416_Esculetin.pdbqt.pdb
REMARK  2 active torsions:
REMARK  status: ('A' for Active; 'I' for Inactive)
REMARK    1  A    between atoms: C_7  and  O_12
REMARK    2  A    between atoms: C_8  and  O_14
REMARK                            x       y       z     vdW  Elec       q    Type
REMARK                         _______ _______ _______ _____ _____    ______ ____
ROOT
ATOM      1  O   UNL     1       5.257 -11.445  12.294  0.00  0.00    +0.000 OA
ATOM      2  O   UNL     1       3.777 -13.234  11.951  0.00  0.00    +0.000 OA
ATOM      3  C   UNL     1       4.280  -9.157  12.133  0.00  0.00    +0.000 A 
ATOM      4  C   UNL     1       5.400 -10.007  12.350  0.00  0.00    +0.000 A 
ATOM      5  C   UNL     1       4.410  -7.778  12.186  0.00  0.00    +0.000 A 
ATOM      6  C   UNL     1       6.658  -9.490  12.623  0.00  0.00    +0.000 A 
ATOM      7  C   UNL     1       5.674  -7.263  12.459  0.00  0.00    +0.000 A 
ATOM      8  C   UNL     1       6.777  -8.105  12.673  0.00  0.00    +0.000 A 
ATOM      9  C   UNL     1       3.072  -9.848  11.868  0.00  0.00    +0.000 A 
ATOM     10  C   UNL     1       2.976 -11.037  11.825  0.00  0.00    +0.000 A 
ATOM     11  C   UNL     1       3.992 -12.035  12.019  0.00  0.00    +0.000 A 
ENDROOT
BRANCH   7  12
ATOM     12  O   UNL     1       5.884  -5.911  12.528  0.00  0.00    +0.000 OA
ATOM     13  H   UNL     1       6.832  -5.747  12.369  0.00  0.00    +0.000 HD
ENDBRANCH   7  12
BRANCH   8  14
ATOM     14  O   UNL     1       8.001  -7.556  12.939  0.00  0.00    +0.000 OA
ATOM     15  H   UNL     1       7.861  -6.977  13.715  0.00  0.00    +0.000 HD
ENDBRANCH   8  14
TORSDOF 2
ENDMDL
MODEL 6
REMARK VINA RESULT:      -4.4      1.590      4.403
REMARK  Name = 5281416_Esculetin.pdbqt.pdb
REMARK  2 active torsions:
REMARK  status: ('A' for Active; 'I' for Inactive)
REMARK    1  A    between atoms: C_7  and  O_12
REMARK    2  A    between atoms: C_8  and  O_14
REMARK                            x       y       z     vdW  Elec       q    Type
REMARK                         _______ _______ _______ _____ _____    ______ ____
ROOT
ATOM      1  O   UNL     1       6.972 -11.444  12.362  0.00  0.00    +0.000 OA
ATOM      2  O   UNL     1       7.983 -13.561  12.336  0.00  0.00    +0.000 OA
ATOM      3  C   UNL     1       4.496 -11.399  12.069  0.00  0.00    +0.000 A 
ATOM      4  C   UNL     1       5.727 -10.713  12.264  0.00  0.00    +0.000 A 
ATOM      5  C   UNL     1       3.300 -10.706  11.973  0.00  0.00    +0.000 A 
ATOM      6  C   UNL     1       5.777  -9.331  12.366  0.00  0.00    +0.000 A 
ATOM      7  C   UNL     1       3.354  -9.318  12.076  0.00  0.00    +0.000 A 
ATOM      8  C   UNL     1       4.570  -8.645  12.269  0.00  0.00    +0.000 A 
ATOM      9  C   UNL     1       4.626 -12.807  11.986  0.00  0.00    +0.000 A 
ATOM     10  C   UNL     1       5.664 -13.391  12.070  0.00  0.00    +0.000 A 
ATOM     11  C   UNL     1       6.985 -12.863  12.265  0.00  0.00    +0.000 A 
ENDROOT
BRANCH   7  12
ATOM     12  O   UNL     1       2.215  -8.561  11.992  0.00  0.00    +0.000 OA
ATOM     13  H   UNL     1       1.984  -8.472  11.049  0.00  0.00    +0.000 HD
ENDBRANCH   7  12
BRANCH   8  14
ATOM     14  O   UNL     1       4.576  -7.281  12.365  0.00  0.00    +0.000 OA
ATOM     15  H   UNL     1       5.419  -7.057  12.808  0.00  0.00    +0.000 HD
ENDBRANCH   8  14
TORSDOF 2
ENDMDL
MODEL 7
REMARK VINA RESULT:      -4.4     26.644     28.058
REMARK  Name = 5281416_Esculetin.pdbqt.pdb
REMARK  2 active torsions:
REMARK  status: ('A' for Active; 'I' for Inactive)
REMARK    1  A    between atoms: C_7  and  O_12
REMARK    2  A    between atoms: C_8  and  O_14
REMARK                            x       y       z     vdW  Elec       q    Type
REMARK                         _______ _______ _______ _____ _____    ______ ____
ROOT
ATOM      1  O   UNL     1     -22.419  -6.900  14.919  0.00  0.00    +0.000 OA
ATOM      2  O   UNL     1     -23.467  -7.903  16.764  0.00  0.00    +0.000 OA
ATOM      3  C   UNL     1     -23.608  -7.090  12.735  0.00  0.00    +0.000 A 
ATOM      4  C   UNL     1     -22.500  -6.631  13.500  0.00  0.00    +0.000 A 
ATOM      5  C   UNL     1     -23.692  -6.836  11.376  0.00  0.00    +0.000 A 
ATOM      6  C   UNL     1     -21.464  -5.915  12.916  0.00  0.00    +0.000 A 
ATOM      7  C   UNL     1     -22.651  -6.117  10.793  0.00  0.00    +0.000 A 
ATOM      8  C   UNL     1     -21.559  -5.666  11.551  0.00  0.00    +0.000 A 
ATOM      9  C   UNL     1     -24.573  -7.804  13.488  0.00  0.00    +0.000 A 
ATOM     10  C   UNL     1     -24.488  -8.015  14.660  0.00  0.00    +0.000 A 
ATOM     11  C   UNL     1     -23.449  -7.629  15.575  0.00  0.00    +0.000 A 
ENDROOT
BRANCH   7  12
ATOM     12  O   UNL     1     -22.660  -5.825   9.454  0.00  0.00    +0.000 OA
ATOM     13  H   UNL     1     -22.103  -6.485   9.001  0.00  0.00    +0.000 HD
ENDBRANCH   7  12
BRANCH   8  14
ATOM     14  O   UNL     1     -20.559  -4.964  10.937  0.00  0.00    +0.000 OA
ATOM     15  H   UNL     1     -20.192  -5.572  10.263  0.00  0.00    +0.000 HD
ENDBRANCH   8  14
TORSDOF 2
ENDMDL
MODEL 8
REMARK VINA RESULT:      -4.2     23.762     25.527
REMARK  Name = 5281416_Esculetin.pdbqt.pdb
REMARK  2 active torsions:
REMARK  status: ('A' for Active; 'I' for Inactive)
REMARK    1  A    between atoms: C_7  and  O_12
REMARK    2  A    between atoms: C_8  and  O_14
REMARK                            x       y       z     vdW  Elec       q    Type
REMARK                         _______ _______ _______ _____ _____    ______ ____
ROOT
ATOM      1  O   UNL     1     -12.312   8.042   2.507  0.00  0.00    +0.000 OA
ATOM      2  O   UNL     1     -11.417   8.528   0.393  0.00  0.00    +0.000 OA
ATOM      3  C   UNL     1     -11.664   5.850   3.504  0.00  0.00    +0.000 A 
ATOM      4  C   UNL     1     -12.377   7.078   3.584  0.00  0.00    +0.000 A 
ATOM      5  C   UNL     1     -11.722   4.923   4.532  0.00  0.00    +0.000 A 
ATOM      6  C   UNL     1     -13.155   7.392   4.689  0.00  0.00    +0.000 A 
ATOM      7  C   UNL     1     -12.503   5.241   5.639  0.00  0.00    +0.000 A 
ATOM      8  C   UNL     1     -13.206   6.454   5.715  0.00  0.00    +0.000 A 
ATOM      9  C   UNL     1     -10.921   5.691   2.308  0.00  0.00    +0.000 A 
ATOM     10  C   UNL     1     -10.880   6.499   1.431  0.00  0.00    +0.000 A 
ATOM     11  C   UNL     1     -11.532   7.777   1.348  0.00  0.00    +0.000 A 
ENDROOT
BRANCH   7  12
ATOM     12  O   UNL     1     -12.612   4.377   6.697  0.00  0.00    +0.000 OA
ATOM     13  H   UNL     1     -12.015   3.624   6.529  0.00  0.00    +0.000 HD
ENDBRANCH   7  12
BRANCH   8  14
ATOM     14  O   UNL     1     -13.961   6.726   6.822  0.00  0.00    +0.000 OA
ATOM     15  H   UNL     1     -14.203   7.671   6.744  0.00  0.00    +0.000 HD
ENDBRANCH   8  14
TORSDOF 2
ENDMDL
MODEL 9
REMARK VINA RESULT:      -4.1      5.200      6.370
REMARK  Name = 5281416_Esculetin.pdbqt.pdb
REMARK  2 active torsions:
REMARK  status: ('A' for Active; 'I' for Inactive)
REMARK    1  A    between atoms: C_7  and  O_12
REMARK    2  A    between atoms: C_8  and  O_14
REMARK                            x       y       z     vdW  Elec       q    Type
REMARK                         _______ _______ _______ _____ _____    ______ ____
ROOT
ATOM      1  O   UNL     1       2.593 -15.271  15.891  0.00  0.00    +0.000 OA
ATOM      2  O   UNL     1       3.133 -13.404  17.207  0.00  0.00    +0.000 OA
ATOM      3  C   UNL     1       2.718 -14.954  13.421  0.00  0.00    +0.000 A 
ATOM      4  C   UNL     1       2.456 -15.785  14.546  0.00  0.00    +0.000 A 
ATOM      5  C   UNL     1       2.589 -15.440  12.130  0.00  0.00    +0.000 A 
ATOM      6  C   UNL     1       2.064 -17.107  14.393  0.00  0.00    +0.000 A 
ATOM      7  C   UNL     1       2.195 -16.767  11.980  0.00  0.00    +0.000 A 
ATOM      8  C   UNL     1       1.938 -17.584  13.093  0.00  0.00    +0.000 A 
ATOM      9  C   UNL     1       3.107 -13.634  13.756  0.00  0.00    +0.000 A 
ATOM     10  C   UNL     1       3.214 -13.229  14.874  0.00  0.00    +0.000 A 
ATOM     11  C   UNL     1       2.992 -13.924  16.112  0.00  0.00    +0.000 A 
ENDROOT
BRANCH   7  12
ATOM     12  O   UNL     1       2.045 -17.322  10.736  0.00  0.00    +0.000 OA
ATOM     13  H   UNL     1       1.362 -16.812  10.263  0.00  0.00    +0.000 HD
ENDBRANCH   7  12
BRANCH   8  14
ATOM     14  O   UNL     1       1.554 -18.882  12.899  0.00  0.00    +0.000 OA
ATOM     15  H   UNL     1       2.180 -19.241  12.239  0.00  0.00    +0.000 HD
ENDBRANCH   8  14
TORSDOF 2
ENDMDL
