MODEL 1
REMARK VINA RESULT:      -6.3      0.000      0.000
REMARK  Name = 5281224_Astaxanthin.pdbqt.pdb
REMARK  16 active torsions:
REMARK  status: ('A' for Active; 'I' for Inactive)
REMARK    1  A    between atoms: C_1  and  C_5
REMARK    2  A    between atoms: C_2  and  C_27
REMARK    3  A    between atoms: C_3  and  C_5
REMARK    4  A    between atoms: C_3  and  C_7
REMARK    5  A    between atoms: C_6  and  C_10
REMARK    6  A    between atoms: C_8  and  C_10
REMARK    7  A    between atoms: C_8  and  C_12
REMARK    8  A    between atoms: C_11  and  C_16
REMARK    9  A    between atoms: C_17  and  O_23
REMARK   10  A    between atoms: C_25  and  C_27
REMARK   11  A    between atoms: C_25  and  C_29
REMARK   12  A    between atoms: C_28  and  C_32
REMARK   13  A    between atoms: C_30  and  C_32
REMARK   14  A    between atoms: C_30  and  C_34
REMARK   15  A    between atoms: C_33  and  C_38
REMARK   16  A    between atoms: C_39  and  O_45
REMARK                            x       y       z     vdW  Elec       q    Type
REMARK                         _______ _______ _______ _____ _____    ______ ____
ROOT
ATOM      1  C   UNL     1       6.340  -2.033  10.033  0.00  0.00    +0.000 C 
ATOM      2  C   UNL     1       6.312  -2.886  10.877  0.00  0.00    +0.000 C 
ENDROOT
BRANCH   2   3
ATOM      3  C   UNL     1       6.269  -3.975  11.956  0.00  0.00    +0.000 C 
BRANCH   3   4
ATOM      4  C   UNL     1       6.226  -4.893  12.870  0.00  0.00    +0.000 C 
ATOM      5  C   UNL     1       6.962  -4.698  14.161  0.00  0.00    +0.000 C 
BRANCH   4   7
ATOM      6  C   UNL     1       4.977  -7.144  12.404  0.00  0.00    +0.000 C 
ATOM      7  C   UNL     1       5.552  -6.112  12.616  0.00  0.00    +0.000 C 
BRANCH   6   8
ATOM      8  C   UNL     1       4.240  -8.461  12.133  0.00  0.00    +0.000 C 
BRANCH   8   9
ATOM      9  C   UNL     1       3.623  -9.579  11.906  0.00  0.00    +0.000 C 
ATOM     10  C   UNL     1       2.528  -9.634  10.884  0.00  0.00    +0.000 C 
BRANCH   9  12
ATOM     11  C   UNL     1       4.468 -11.782  13.043  0.00  0.00    +0.000 C 
ATOM     12  C   UNL     1       4.087 -10.773  12.511  0.00  0.00    +0.000 C 
BRANCH  11  16
ATOM     13  O   UNL     1       7.529 -15.599  13.325  0.00  0.00    +0.000 OA
ATOM     14  C   UNL     1       4.159 -13.448  14.971  0.00  0.00    +0.000 C 
ATOM     15  C   UNL     1       4.824 -14.666  15.401  0.00  0.00    +0.000 C 
ATOM     16  C   UNL     1       4.920 -12.994  13.699  0.00  0.00    +0.000 C 
ATOM     17  C   UNL     1       5.888 -15.463  14.989  0.00  0.00    +0.000 C 
ATOM     18  C   UNL     1       4.293 -12.355  16.058  0.00  0.00    +0.000 C 
ATOM     19  C   UNL     1       2.686 -13.743  14.612  0.00  0.00    +0.000 C 
ATOM     20  C   UNL     1       5.984 -13.682  13.190  0.00  0.00    +0.000 C 
ATOM     21  C   UNL     1       6.576 -14.976  13.772  0.00  0.00    +0.000 C 
ATOM     22  C   UNL     1       6.679 -13.138  11.933  0.00  0.00    +0.000 C 
BRANCH  17  23
ATOM     23  O   UNL     1       6.272 -16.598  15.652  0.00  0.00    +0.000 OA
ATOM     24  H   UNL     1       7.236 -16.591  15.820  0.00  0.00    +0.000 HD
ENDBRANCH  17  23
ENDBRANCH  11  16
ENDBRANCH   9  12
ENDBRANCH   8   9
ENDBRANCH   6   8
ENDBRANCH   4   7
ENDBRANCH   3   4
ENDBRANCH   2   3
BRANCH   1  25
ATOM     25  C   UNL     1       6.365  -0.943   8.955  0.00  0.00    +0.000 C 
BRANCH  25  26
ATOM     26  C   UNL     1       6.380  -0.021   8.045  0.00  0.00    +0.000 C 
ATOM     27  C   UNL     1       7.635   0.763   7.798  0.00  0.00    +0.000 C 
BRANCH  26  29
ATOM     28  C   UNL     1       4.188   0.583   6.752  0.00  0.00    +0.000 C 
ATOM     29  C   UNL     1       5.194   0.305   7.347  0.00  0.00    +0.000 C 
BRANCH  28  30
ATOM     30  C   UNL     1       2.905   0.939   5.990  0.00  0.00    +0.000 C 
BRANCH  30  31
ATOM     31  C   UNL     1       1.821   1.231   5.344  0.00  0.00    +0.000 C 
ATOM     32  C   UNL     1       1.419   2.664   5.165  0.00  0.00    +0.000 C 
BRANCH  31  34
ATOM     33  C   UNL     1       0.513  -0.673   4.107  0.00  0.00    +0.000 C 
ATOM     34  C   UNL     1       1.104   0.207   4.675  0.00  0.00    +0.000 C 
BRANCH  33  38
ATOM     35  O   UNL     1       0.547  -4.568   1.132  0.00  0.00    +0.000 OA
ATOM     36  C   UNL     1      -1.715  -1.852   3.624  0.00  0.00    +0.000 C 
ATOM     37  C   UNL     1      -2.126  -2.995   2.826  0.00  0.00    +0.000 C 
ATOM     38  C   UNL     1      -0.182  -1.743   3.418  0.00  0.00    +0.000 C 
ATOM     39  C   UNL     1      -1.537  -3.941   1.993  0.00  0.00    +0.000 C 
ATOM     40  C   UNL     1      -2.007  -2.112   5.120  0.00  0.00    +0.000 C 
ATOM     41  C   UNL     1      -2.396  -0.567   3.104  0.00  0.00    +0.000 C 
ATOM     42  C   UNL     1       0.522  -2.608   2.630  0.00  0.00    +0.000 C 
ATOM     43  C   UNL     1      -0.074  -3.786   1.841  0.00  0.00    +0.000 C 
ATOM     44  C   UNL     1       2.040  -2.422   2.505  0.00  0.00    +0.000 C 
BRANCH  39  45
ATOM     45  O   UNL     1      -2.245  -4.932   1.370  0.00  0.00    +0.000 OA
ATOM     46  H   UNL     1      -2.278  -4.779   0.403  0.00  0.00    +0.000 HD
ENDBRANCH  39  45
ENDBRANCH  33  38
ENDBRANCH  31  34
ENDBRANCH  30  31
ENDBRANCH  28  30
ENDBRANCH  26  29
ENDBRANCH  25  26
ENDBRANCH   1  25
TORSDOF 16
ENDMDL
MODEL 2
REMARK VINA RESULT:      -6.2      6.181     17.147
REMARK  Name = 5281224_Astaxanthin.pdbqt.pdb
REMARK  16 active torsions:
REMARK  status: ('A' for Active; 'I' for Inactive)
REMARK    1  A    between atoms: C_1  and  C_5
REMARK    2  A    between atoms: C_2  and  C_27
REMARK    3  A    between atoms: C_3  and  C_5
REMARK    4  A    between atoms: C_3  and  C_7
REMARK    5  A    between atoms: C_6  and  C_10
REMARK    6  A    between atoms: C_8  and  C_10
REMARK    7  A    between atoms: C_8  and  C_12
REMARK    8  A    between atoms: C_11  and  C_16
REMARK    9  A    between atoms: C_17  and  O_23
REMARK   10  A    between atoms: C_25  and  C_27
REMARK   11  A    between atoms: C_25  and  C_29
REMARK   12  A    between atoms: C_28  and  C_32
REMARK   13  A    between atoms: C_30  and  C_32
REMARK   14  A    between atoms: C_30  and  C_34
REMARK   15  A    between atoms: C_33  and  C_38
REMARK   16  A    between atoms: C_39  and  O_45
REMARK                            x       y       z     vdW  Elec       q    Type
REMARK                         _______ _______ _______ _____ _____    ______ ____
ROOT
ATOM      1  C   UNL     1       3.308 -13.142  13.349  0.00  0.00    +0.000 C 
ATOM      2  C   UNL     1       3.297 -12.072  12.808  0.00  0.00    +0.000 C 
ENDROOT
BRANCH   2   3
ATOM      3  C   UNL     1       3.288 -10.706  12.110  0.00  0.00    +0.000 C 
BRANCH   3   4
ATOM      4  C   UNL     1       3.284  -9.554  11.515  0.00  0.00    +0.000 C 
ATOM      5  C   UNL     1       2.482  -9.363  10.263  0.00  0.00    +0.000 C 
BRANCH   4   7
ATOM      6  C   UNL     1       4.785  -7.612  12.419  0.00  0.00    +0.000 C 
ATOM      7  C   UNL     1       4.097  -8.503  12.002  0.00  0.00    +0.000 C 
BRANCH   6   8
ATOM      8  C   UNL     1       5.662  -6.474  12.954  0.00  0.00    +0.000 C 
BRANCH   8   9
ATOM      9  C   UNL     1       6.398  -5.508  13.411  0.00  0.00    +0.000 C 
ATOM     10  C   UNL     1       7.016  -5.620  14.772  0.00  0.00    +0.000 C 
BRANCH   9  12
ATOM     11  C   UNL     1       7.026  -3.516  11.831  0.00  0.00    +0.000 C 
ATOM     12  C   UNL     1       6.739  -4.424  12.566  0.00  0.00    +0.000 C 
BRANCH  11  16
ATOM     13  O   UNL     1       5.938  -0.598   8.046  0.00  0.00    +0.000 OA
ATOM     14  C   UNL     1       8.740  -1.736  11.136  0.00  0.00    +0.000 C 
ATOM     15  C   UNL     1       8.806  -0.711  10.109  0.00  0.00    +0.000 C 
ATOM     16  C   UNL     1       7.370  -2.433  10.930  0.00  0.00    +0.000 C 
ATOM     17  C   UNL     1       8.013  -0.237   9.070  0.00  0.00    +0.000 C 
ATOM     18  C   UNL     1       8.771  -1.087  12.540  0.00  0.00    +0.000 C 
ATOM     19  C   UNL     1       9.875  -2.765  10.938  0.00  0.00    +0.000 C 
ATOM     20  C   UNL     1       6.493  -2.063   9.951  0.00  0.00    +0.000 C 
ATOM     21  C   UNL     1       6.717  -0.939   8.926  0.00  0.00    +0.000 C 
ATOM     22  C   UNL     1       5.155  -2.807   9.841  0.00  0.00    +0.000 C 
BRANCH  17  23
ATOM     23  O   UNL     1       8.390   0.794   8.251  0.00  0.00    +0.000 OA
ATOM     24  H   UNL     1       8.904   1.462   8.749  0.00  0.00    +0.000 HD
ENDBRANCH  17  23
ENDBRANCH  11  16
ENDBRANCH   9  12
ENDBRANCH   8   9
ENDBRANCH   6   8
ENDBRANCH   4   7
ENDBRANCH   3   4
ENDBRANCH   2   3
BRANCH   1  25
ATOM     25  C   UNL     1       3.330 -14.514  14.034  0.00  0.00    +0.000 C 
BRANCH  25  26
ATOM     26  C   UNL     1       3.351 -15.675  14.610  0.00  0.00    +0.000 C 
ATOM     27  C   UNL     1       3.665 -16.901  13.805  0.00  0.00    +0.000 C 
BRANCH  26  29
ATOM     28  C   UNL     1       2.693 -15.901  17.131  0.00  0.00    +0.000 C 
ATOM     29  C   UNL     1       2.995 -15.796  15.973  0.00  0.00    +0.000 C 
BRANCH  28  30
ATOM     30  C   UNL     1       2.309 -16.039  18.610  0.00  0.00    +0.000 C 
BRANCH  30  31
ATOM     31  C   UNL     1       1.977 -16.150  19.857  0.00  0.00    +0.000 C 
ATOM     32  C   UNL     1       3.029 -16.062  20.921  0.00  0.00    +0.000 C 
BRANCH  31  34
ATOM     33  C   UNL     1      -0.556 -16.210  20.525  0.00  0.00    +0.000 C 
ATOM     34  C   UNL     1       0.608 -16.194  20.220  0.00  0.00    +0.000 C 
BRANCH  33  38
ATOM     35  O   UNL     1      -5.139 -14.596  19.886  0.00  0.00    +0.000 OA
ATOM     36  C   UNL     1      -2.395 -17.139  22.055  0.00  0.00    +0.000 C 
ATOM     37  C   UNL     1      -3.826 -16.930  22.193  0.00  0.00    +0.000 C 
ATOM     38  C   UNL     1      -1.958 -16.210  20.893  0.00  0.00    +0.000 C 
ATOM     39  C   UNL     1      -4.823 -16.167  21.592  0.00  0.00    +0.000 C 
ATOM     40  C   UNL     1      -2.106 -18.608  21.665  0.00  0.00    +0.000 C 
ATOM     41  C   UNL     1      -1.667 -16.719  23.351  0.00  0.00    +0.000 C 
ATOM     42  C   UNL     1      -2.834 -15.413  20.214  0.00  0.00    +0.000 C 
ATOM     43  C   UNL     1      -4.344 -15.306  20.488  0.00  0.00    +0.000 C 
ATOM     44  C   UNL     1      -2.302 -14.542  19.068  0.00  0.00    +0.000 C 
BRANCH  39  45
ATOM     45  O   UNL     1      -6.134 -16.211  21.982  0.00  0.00    +0.000 OA
ATOM     46  H   UNL     1      -6.338 -15.474  22.594  0.00  0.00    +0.000 HD
ENDBRANCH  39  45
ENDBRANCH  33  38
ENDBRANCH  31  34
ENDBRANCH  30  31
ENDBRANCH  28  30
ENDBRANCH  26  29
ENDBRANCH  25  26
ENDBRANCH   1  25
TORSDOF 16
ENDMDL
MODEL 3
REMARK VINA RESULT:      -6.1     22.532     28.691
REMARK  Name = 5281224_Astaxanthin.pdbqt.pdb
REMARK  16 active torsions:
REMARK  status: ('A' for Active; 'I' for Inactive)
REMARK    1  A    between atoms: C_1  and  C_5
REMARK    2  A    between atoms: C_2  and  C_27
REMARK    3  A    between atoms: C_3  and  C_5
REMARK    4  A    between atoms: C_3  and  C_7
REMARK    5  A    between atoms: C_6  and  C_10
REMARK    6  A    between atoms: C_8  and  C_10
REMARK    7  A    between atoms: C_8  and  C_12
REMARK    8  A    between atoms: C_11  and  C_16
REMARK    9  A    between atoms: C_17  and  O_23
REMARK   10  A    between atoms: C_25  and  C_27
REMARK   11  A    between atoms: C_25  and  C_29
REMARK   12  A    between atoms: C_28  and  C_32
REMARK   13  A    between atoms: C_30  and  C_32
REMARK   14  A    between atoms: C_30  and  C_34
REMARK   15  A    between atoms: C_33  and  C_38
REMARK   16  A    between atoms: C_39  and  O_45
REMARK                            x       y       z     vdW  Elec       q    Type
REMARK                         _______ _______ _______ _____ _____    ______ ____
ROOT
ATOM      1  C   UNL     1     -20.721  -5.658   0.789  0.00  0.00    +0.000 C 
ATOM      2  C   UNL     1     -20.014  -5.329  -0.122  0.00  0.00    +0.000 C 
ENDROOT
BRANCH   2   3
ATOM      3  C   UNL     1     -19.102  -4.909  -1.283  0.00  0.00    +0.000 C 
BRANCH   3   4
ATOM      4  C   UNL     1     -18.337  -4.556  -2.267  0.00  0.00    +0.000 C 
ATOM      5  C   UNL     1     -18.257  -5.411  -3.496  0.00  0.00    +0.000 C 
BRANCH   4   7
ATOM      6  C   UNL     1     -16.820  -2.436  -2.052  0.00  0.00    +0.000 C 
ATOM      7  C   UNL     1     -17.517  -3.408  -2.149  0.00  0.00    +0.000 C 
BRANCH   6   8
ATOM      8  C   UNL     1     -15.929  -1.194  -1.932  0.00  0.00    +0.000 C 
BRANCH   8   9
ATOM      9  C   UNL     1     -15.169  -0.147  -1.836  0.00  0.00    +0.000 C 
ATOM     10  C   UNL     1     -13.679  -0.299  -1.868  0.00  0.00    +0.000 C 
BRANCH   9  12
ATOM     11  C   UNL     1     -16.236   2.246  -1.849  0.00  0.00    +0.000 C 
ATOM     12  C   UNL     1     -15.749   1.146  -1.855  0.00  0.00    +0.000 C 
BRANCH  11  16
ATOM     13  O   UNL     1     -16.286   6.919  -3.326  0.00  0.00    +0.000 OA
ATOM     14  C   UNL     1     -18.069   3.791  -0.931  0.00  0.00    +0.000 C 
ATOM     15  C   UNL     1     -18.425   5.188  -1.107  0.00  0.00    +0.000 C 
ATOM     16  C   UNL     1     -16.820   3.573  -1.824  0.00  0.00    +0.000 C 
ATOM     17  C   UNL     1     -17.963   6.291  -1.818  0.00  0.00    +0.000 C 
ATOM     18  C   UNL     1     -19.215   2.881  -1.434  0.00  0.00    +0.000 C 
ATOM     19  C   UNL     1     -17.702   3.515   0.543  0.00  0.00    +0.000 C 
ATOM     20  C   UNL     1     -16.267   4.569  -2.577  0.00  0.00    +0.000 C 
ATOM     21  C   UNL     1     -16.772   6.019  -2.654  0.00  0.00    +0.000 C 
ATOM     22  C   UNL     1     -15.039   4.245  -3.439  0.00  0.00    +0.000 C 
BRANCH  17  23
ATOM     23  O   UNL     1     -18.559   7.522  -1.758  0.00  0.00    +0.000 OA
ATOM     24  H   UNL     1     -18.026   8.190  -2.236  0.00  0.00    +0.000 HD
ENDBRANCH  17  23
ENDBRANCH  11  16
ENDBRANCH   9  12
ENDBRANCH   8   9
ENDBRANCH   6   8
ENDBRANCH   4   7
ENDBRANCH   3   4
ENDBRANCH   2   3
BRANCH   1  25
ATOM     25  C   UNL     1     -21.617  -6.079   1.960  0.00  0.00    +0.000 C 
BRANCH  25  26
ATOM     26  C   UNL     1     -22.374  -6.429   2.952  0.00  0.00    +0.000 C 
ATOM     27  C   UNL     1     -23.746  -6.975   2.688  0.00  0.00    +0.000 C 
BRANCH  26  29
ATOM     28  C   UNL     1     -21.576  -6.039   5.412  0.00  0.00    +0.000 C 
ATOM     29  C   UNL     1     -21.941  -6.218   4.281  0.00  0.00    +0.000 C 
BRANCH  28  30
ATOM     30  C   UNL     1     -21.113  -5.811   6.856  0.00  0.00    +0.000 C 
BRANCH  30  31
ATOM     31  C   UNL     1     -20.716  -5.612   8.073  0.00  0.00    +0.000 C 
ATOM     32  C   UNL     1     -19.502  -4.774   8.337  0.00  0.00    +0.000 C 
BRANCH  31  34
ATOM     33  C   UNL     1     -22.211  -6.413  10.071  0.00  0.00    +0.000 C 
ATOM     34  C   UNL     1     -21.517  -6.055   9.156  0.00  0.00    +0.000 C 
BRANCH  33  38
ATOM     35  O   UNL     1     -25.563  -9.439  11.976  0.00  0.00    +0.000 OA
ATOM     36  C   UNL     1     -22.979  -6.009  12.486  0.00  0.00    +0.000 C 
ATOM     37  C   UNL     1     -23.919  -6.648  13.391  0.00  0.00    +0.000 C 
ATOM     38  C   UNL     1     -23.057  -6.829  11.173  0.00  0.00    +0.000 C 
ATOM     39  C   UNL     1     -24.800  -7.726  13.376  0.00  0.00    +0.000 C 
ATOM     40  C   UNL     1     -21.544  -6.101  13.055  0.00  0.00    +0.000 C 
ATOM     41  C   UNL     1     -23.412  -4.552  12.210  0.00  0.00    +0.000 C 
ATOM     42  C   UNL     1     -23.876  -7.912  11.024  0.00  0.00    +0.000 C 
ATOM     43  C   UNL     1     -24.825  -8.470  12.097  0.00  0.00    +0.000 C 
ATOM     44  C   UNL     1     -23.866  -8.665   9.686  0.00  0.00    +0.000 C 
BRANCH  39  45
ATOM     45  O   UNL     1     -25.574  -8.073  14.450  0.00  0.00    +0.000 OA
ATOM     46  H   UNL     1     -25.662  -9.046  14.513  0.00  0.00    +0.000 HD
ENDBRANCH  39  45
ENDBRANCH  33  38
ENDBRANCH  31  34
ENDBRANCH  30  31
ENDBRANCH  28  30
ENDBRANCH  26  29
ENDBRANCH  25  26
ENDBRANCH   1  25
TORSDOF 16
ENDMDL
MODEL 4
REMARK VINA RESULT:      -6.0     11.701     17.254
REMARK  Name = 5281224_Astaxanthin.pdbqt.pdb
REMARK  16 active torsions:
REMARK  status: ('A' for Active; 'I' for Inactive)
REMARK    1  A    between atoms: C_1  and  C_5
REMARK    2  A    between atoms: C_2  and  C_27
REMARK    3  A    between atoms: C_3  and  C_5
REMARK    4  A    between atoms: C_3  and  C_7
REMARK    5  A    between atoms: C_6  and  C_10
REMARK    6  A    between atoms: C_8  and  C_10
REMARK    7  A    between atoms: C_8  and  C_12
REMARK    8  A    between atoms: C_11  and  C_16
REMARK    9  A    between atoms: C_17  and  O_23
REMARK   10  A    between atoms: C_25  and  C_27
REMARK   11  A    between atoms: C_25  and  C_29
REMARK   12  A    between atoms: C_28  and  C_32
REMARK   13  A    between atoms: C_30  and  C_32
REMARK   14  A    between atoms: C_30  and  C_34
REMARK   15  A    between atoms: C_33  and  C_38
REMARK   16  A    between atoms: C_39  and  O_45
REMARK                            x       y       z     vdW  Elec       q    Type
REMARK                         _______ _______ _______ _____ _____    ______ ____
ROOT
ATOM      1  C   UNL     1      -6.981   1.127   1.071  0.00  0.00    +0.000 C 
ATOM      2  C   UNL     1      -6.070   0.471   1.492  0.00  0.00    +0.000 C 
ENDROOT
BRANCH   2   3
ATOM      3  C   UNL     1      -4.899  -0.364   2.027  0.00  0.00    +0.000 C 
BRANCH   3   4
ATOM      4  C   UNL     1      -3.914  -1.071   2.483  0.00  0.00    +0.000 C 
ATOM      5  C   UNL     1      -2.737  -0.394   3.119  0.00  0.00    +0.000 C 
BRANCH   4   7
ATOM      6  C   UNL     1      -3.906  -3.667   2.159  0.00  0.00    +0.000 C 
ATOM      7  C   UNL     1      -3.911  -2.476   2.308  0.00  0.00    +0.000 C 
BRANCH   6   8
ATOM      8  C   UNL     1      -3.895  -5.188   1.969  0.00  0.00    +0.000 C 
BRANCH   8   9
ATOM      9  C   UNL     1      -3.881  -6.476   1.815  0.00  0.00    +0.000 C 
ATOM     10  C   UNL     1      -4.712  -7.345   2.710  0.00  0.00    +0.000 C 
BRANCH   9  12
ATOM     11  C   UNL     1      -2.634  -7.548  -0.225  0.00  0.00    +0.000 C 
ATOM     12  C   UNL     1      -3.204  -7.045   0.708  0.00  0.00    +0.000 C 
BRANCH  11  16
ATOM     13  O   UNL     1       1.490  -9.034  -2.416  0.00  0.00    +0.000 OA
ATOM     14  C   UNL     1      -2.818  -8.683  -2.520  0.00  0.00    +0.000 C 
ATOM     15  C   UNL     1      -1.877  -9.247  -3.472  0.00  0.00    +0.000 C 
ATOM     16  C   UNL     1      -1.950  -8.170  -1.342  0.00  0.00    +0.000 C 
ATOM     17  C   UNL     1      -0.502  -9.427  -3.582  0.00  0.00    +0.000 C 
ATOM     18  C   UNL     1      -3.776  -9.781  -2.002  0.00  0.00    +0.000 C 
ATOM     19  C   UNL     1      -3.574  -7.495  -3.157  0.00  0.00    +0.000 C 
ATOM     20  C   UNL     1      -0.590  -8.288  -1.320  0.00  0.00    +0.000 C 
ATOM     21  C   UNL     1       0.271  -8.922  -2.425  0.00  0.00    +0.000 C 
ATOM     22  C   UNL     1       0.175  -7.762  -0.098  0.00  0.00    +0.000 C 
BRANCH  17  23
ATOM     23  O   UNL     1       0.089 -10.026  -4.662  0.00  0.00    +0.000 OA
ATOM     24  H   UNL     1       1.024  -9.747  -4.745  0.00  0.00    +0.000 HD
ENDBRANCH  17  23
ENDBRANCH  11  16
ENDBRANCH   9  12
ENDBRANCH   8   9
ENDBRANCH   6   8
ENDBRANCH   4   7
ENDBRANCH   3   4
ENDBRANCH   2   3
BRANCH   1  25
ATOM     25  C   UNL     1      -8.139   1.972   0.527  0.00  0.00    +0.000 C 
BRANCH  25  26
ATOM     26  C   UNL     1      -9.118   2.689   0.071  0.00  0.00    +0.000 C 
ATOM     27  C   UNL     1      -9.248   4.125   0.486  0.00  0.00    +0.000 C 
BRANCH  26  29
ATOM     28  C   UNL     1     -10.950   1.592  -1.439  0.00  0.00    +0.000 C 
ATOM     29  C   UNL     1     -10.110   2.096  -0.744  0.00  0.00    +0.000 C 
BRANCH  28  30
ATOM     30  C   UNL     1     -12.021   0.948  -2.329  0.00  0.00    +0.000 C 
BRANCH  30  31
ATOM     31  C   UNL     1     -12.928   0.412  -3.082  0.00  0.00    +0.000 C 
ATOM     32  C   UNL     1     -12.545  -0.204  -4.394  0.00  0.00    +0.000 C 
BRANCH  31  34
ATOM     33  C   UNL     1     -15.368   0.154  -2.162  0.00  0.00    +0.000 C 
ATOM     34  C   UNL     1     -14.251   0.268  -2.595  0.00  0.00    +0.000 C 
BRANCH  33  38
ATOM     35  O   UNL     1     -19.185  -2.624  -0.847  0.00  0.00    +0.000 OA
ATOM     36  C   UNL     1     -17.440   1.317  -1.191  0.00  0.00    +0.000 C 
ATOM     37  C   UNL     1     -18.735   0.878  -0.699  0.00  0.00    +0.000 C 
ATOM     38  C   UNL     1     -16.707   0.021  -1.622  0.00  0.00    +0.000 C 
ATOM     39  C   UNL     1     -19.426  -0.318  -0.531  0.00  0.00    +0.000 C 
ATOM     40  C   UNL     1     -16.640   1.997  -0.055  0.00  0.00    +0.000 C 
ATOM     41  C   UNL     1     -17.620   2.238  -2.418  0.00  0.00    +0.000 C 
ATOM     42  C   UNL     1     -17.268  -1.219  -1.507  0.00  0.00    +0.000 C 
ATOM     43  C   UNL     1     -18.672  -1.518  -0.956  0.00  0.00    +0.000 C 
ATOM     44  C   UNL     1     -16.451  -2.441  -1.948  0.00  0.00    +0.000 C 
BRANCH  39  45
ATOM     45  O   UNL     1     -20.691  -0.383  -0.013  0.00  0.00    +0.000 OA
ATOM     46  H   UNL     1     -21.261  -0.961  -0.561  0.00  0.00    +0.000 HD
ENDBRANCH  39  45
ENDBRANCH  33  38
ENDBRANCH  31  34
ENDBRANCH  30  31
ENDBRANCH  28  30
ENDBRANCH  26  29
ENDBRANCH  25  26
ENDBRANCH   1  25
TORSDOF 16
ENDMDL
MODEL 5
REMARK VINA RESULT:      -6.0      8.418     16.755
REMARK  Name = 5281224_Astaxanthin.pdbqt.pdb
REMARK  16 active torsions:
REMARK  status: ('A' for Active; 'I' for Inactive)
REMARK    1  A    between atoms: C_1  and  C_5
REMARK    2  A    between atoms: C_2  and  C_27
REMARK    3  A    between atoms: C_3  and  C_5
REMARK    4  A    between atoms: C_3  and  C_7
REMARK    5  A    between atoms: C_6  and  C_10
REMARK    6  A    between atoms: C_8  and  C_10
REMARK    7  A    between atoms: C_8  and  C_12
REMARK    8  A    between atoms: C_11  and  C_16
REMARK    9  A    between atoms: C_17  and  O_23
REMARK   10  A    between atoms: C_25  and  C_27
REMARK   11  A    between atoms: C_25  and  C_29
REMARK   12  A    between atoms: C_28  and  C_32
REMARK   13  A    between atoms: C_30  and  C_32
REMARK   14  A    between atoms: C_30  and  C_34
REMARK   15  A    between atoms: C_33  and  C_38
REMARK   16  A    between atoms: C_39  and  O_45
REMARK                            x       y       z     vdW  Elec       q    Type
REMARK                         _______ _______ _______ _____ _____    ______ ____
ROOT
ATOM      1  C   UNL     1       3.450 -13.162  13.351  0.00  0.00    +0.000 C 
ATOM      2  C   UNL     1       3.388 -12.081  12.834  0.00  0.00    +0.000 C 
ENDROOT
BRANCH   2   3
ATOM      3  C   UNL     1       3.315 -10.701  12.168  0.00  0.00    +0.000 C 
BRANCH   3   4
ATOM      4  C   UNL     1       3.258  -9.538  11.601  0.00  0.00    +0.000 C 
ATOM      5  C   UNL     1       2.563  -9.382  10.281  0.00  0.00    +0.000 C 
BRANCH   4   7
ATOM      6  C   UNL     1       4.482  -7.494  12.682  0.00  0.00    +0.000 C 
ATOM      7  C   UNL     1       3.918  -8.432  12.187  0.00  0.00    +0.000 C 
BRANCH   6   8
ATOM      8  C   UNL     1       5.203  -6.296  13.310  0.00  0.00    +0.000 C 
BRANCH   8   9
ATOM      9  C   UNL     1       5.820  -5.286  13.841  0.00  0.00    +0.000 C 
ATOM     10  C   UNL     1       6.685  -4.407  12.990  0.00  0.00    +0.000 C 
BRANCH   9  12
ATOM     11  C   UNL     1       5.310  -4.637  16.328  0.00  0.00    +0.000 C 
ATOM     12  C   UNL     1       5.554  -4.929  15.186  0.00  0.00    +0.000 C 
BRANCH  11  16
ATOM     13  O   UNL     1       4.598  -5.940  20.999  0.00  0.00    +0.000 OA
ATOM     14  C   UNL     1       4.738  -2.801  18.028  0.00  0.00    +0.000 C 
ATOM     15  C   UNL     1       4.461  -2.764  19.453  0.00  0.00    +0.000 C 
ATOM     16  C   UNL     1       5.000  -4.294  17.702  0.00  0.00    +0.000 C 
ATOM     17  C   UNL     1       4.377  -3.660  20.514  0.00  0.00    +0.000 C 
ATOM     18  C   UNL     1       6.013  -1.984  17.711  0.00  0.00    +0.000 C 
ATOM     19  C   UNL     1       3.510  -2.309  17.231  0.00  0.00    +0.000 C 
ATOM     20  C   UNL     1       4.954  -5.276  18.650  0.00  0.00    +0.000 C 
ATOM     21  C   UNL     1       4.641  -5.068  20.141  0.00  0.00    +0.000 C 
ATOM     22  C   UNL     1       5.245  -6.723  18.226  0.00  0.00    +0.000 C 
BRANCH  17  23
ATOM     23  O   UNL     1       4.083  -3.277  21.795  0.00  0.00    +0.000 OA
ATOM     24  H   UNL     1       4.470  -2.400  21.992  0.00  0.00    +0.000 HD
ENDBRANCH  17  23
ENDBRANCH  11  16
ENDBRANCH   9  12
ENDBRANCH   8   9
ENDBRANCH   6   8
ENDBRANCH   4   7
ENDBRANCH   3   4
ENDBRANCH   2   3
BRANCH   1  25
ATOM     25  C   UNL     1       3.537 -14.546  14.006  0.00  0.00    +0.000 C 
BRANCH  25  26
ATOM     26  C   UNL     1       3.615 -15.717  14.555  0.00  0.00    +0.000 C 
ATOM     27  C   UNL     1       3.919 -16.919  13.712  0.00  0.00    +0.000 C 
BRANCH  26  29
ATOM     28  C   UNL     1       3.084 -16.009  17.100  0.00  0.00    +0.000 C 
ATOM     29  C   UNL     1       3.327 -15.873  15.931  0.00  0.00    +0.000 C 
BRANCH  28  30
ATOM     30  C   UNL     1       2.775 -16.185  18.592  0.00  0.00    +0.000 C 
BRANCH  30  31
ATOM     31  C   UNL     1       2.507 -16.328  19.852  0.00  0.00    +0.000 C 
ATOM     32  C   UNL     1       3.618 -16.332  20.858  0.00  0.00    +0.000 C 
BRANCH  31  34
ATOM     33  C   UNL     1       0.013 -16.296  20.655  0.00  0.00    +0.000 C 
ATOM     34  C   UNL     1       1.158 -16.322  20.288  0.00  0.00    +0.000 C 
BRANCH  33  38
ATOM     35  O   UNL     1      -3.319 -15.962  24.233  0.00  0.00    +0.000 OA
ATOM     36  C   UNL     1      -2.471 -16.318  20.008  0.00  0.00    +0.000 C 
ATOM     37  C   UNL     1      -3.728 -16.245  20.734  0.00  0.00    +0.000 C 
ATOM     38  C   UNL     1      -1.368 -16.245  21.095  0.00  0.00    +0.000 C 
ATOM     39  C   UNL     1      -4.155 -16.134  22.054  0.00  0.00    +0.000 C 
ATOM     40  C   UNL     1      -2.330 -15.102  19.062  0.00  0.00    +0.000 C 
ATOM     41  C   UNL     1      -2.366 -17.664  19.258  0.00  0.00    +0.000 C 
ATOM     42  C   UNL     1      -1.648 -16.131  22.426  0.00  0.00    +0.000 C 
ATOM     43  C   UNL     1      -3.056 -16.065  23.042  0.00  0.00    +0.000 C 
ATOM     44  C   UNL     1      -0.482 -16.050  23.421  0.00  0.00    +0.000 C 
BRANCH  39  45
ATOM     45  O   UNL     1      -5.475 -16.088  22.410  0.00  0.00    +0.000 OA
ATOM     46  H   UNL     1      -5.981 -15.523  21.791  0.00  0.00    +0.000 HD
ENDBRANCH  39  45
ENDBRANCH  33  38
ENDBRANCH  31  34
ENDBRANCH  30  31
ENDBRANCH  28  30
ENDBRANCH  26  29
ENDBRANCH  25  26
ENDBRANCH   1  25
TORSDOF 16
ENDMDL
MODEL 6
REMARK VINA RESULT:      -5.8     18.334     23.575
REMARK  Name = 5281224_Astaxanthin.pdbqt.pdb
REMARK  16 active torsions:
REMARK  status: ('A' for Active; 'I' for Inactive)
REMARK    1  A    between atoms: C_1  and  C_5
REMARK    2  A    between atoms: C_2  and  C_27
REMARK    3  A    between atoms: C_3  and  C_5
REMARK    4  A    between atoms: C_3  and  C_7
REMARK    5  A    between atoms: C_6  and  C_10
REMARK    6  A    between atoms: C_8  and  C_10
REMARK    7  A    between atoms: C_8  and  C_12
REMARK    8  A    between atoms: C_11  and  C_16
REMARK    9  A    between atoms: C_17  and  O_23
REMARK   10  A    between atoms: C_25  and  C_27
REMARK   11  A    between atoms: C_25  and  C_29
REMARK   12  A    between atoms: C_28  and  C_32
REMARK   13  A    between atoms: C_30  and  C_32
REMARK   14  A    between atoms: C_30  and  C_34
REMARK   15  A    between atoms: C_33  and  C_38
REMARK   16  A    between atoms: C_39  and  O_45
REMARK                            x       y       z     vdW  Elec       q    Type
REMARK                         _______ _______ _______ _____ _____    ______ ____
ROOT
ATOM      1  C   UNL     1     -19.483  -8.754   0.410  0.00  0.00    +0.000 C 
ATOM      2  C   UNL     1     -18.843  -9.693   0.023  0.00  0.00    +0.000 C 
ENDROOT
BRANCH   2   3
ATOM      3  C   UNL     1     -18.021 -10.887  -0.478  0.00  0.00    +0.000 C 
BRANCH   3   4
ATOM      4  C   UNL     1     -17.331 -11.898  -0.905  0.00  0.00    +0.000 C 
ATOM      5  C   UNL     1     -17.989 -12.950  -1.746  0.00  0.00    +0.000 C 
BRANCH   4   7
ATOM      6  C   UNL     1     -14.835 -12.180  -0.174  0.00  0.00    +0.000 C 
ATOM      7  C   UNL     1     -15.980 -12.049  -0.511  0.00  0.00    +0.000 C 
BRANCH   6   8
ATOM      8  C   UNL     1     -13.374 -12.349   0.258  0.00  0.00    +0.000 C 
BRANCH   8   9
ATOM      9  C   UNL     1     -12.140 -12.489   0.631  0.00  0.00    +0.000 C 
ATOM     10  C   UNL     1     -11.050 -11.767  -0.101  0.00  0.00    +0.000 C 
BRANCH   9  12
ATOM     11  C   UNL     1     -11.574 -13.789   2.834  0.00  0.00    +0.000 C 
ATOM     12  C   UNL     1     -11.842 -13.201   1.820  0.00  0.00    +0.000 C 
BRANCH  11  16
ATOM     13  O   UNL     1     -12.910 -16.342   6.799  0.00  0.00    +0.000 OA
ATOM     14  C   UNL     1      -9.742 -14.553   4.462  0.00  0.00    +0.000 C 
ATOM     15  C   UNL     1      -9.714 -15.300   5.708  0.00  0.00    +0.000 C 
ATOM     16  C   UNL     1     -11.238 -14.487   4.060  0.00  0.00    +0.000 C 
ATOM     17  C   UNL     1     -10.620 -15.920   6.562  0.00  0.00    +0.000 C 
ATOM     18  C   UNL     1      -8.958 -15.312   3.366  0.00  0.00    +0.000 C 
ATOM     19  C   UNL     1      -9.206 -13.122   4.686  0.00  0.00    +0.000 C 
ATOM     20  C   UNL     1     -12.230 -15.057   4.806  0.00  0.00    +0.000 C 
ATOM     21  C   UNL     1     -12.030 -15.826   6.123  0.00  0.00    +0.000 C 
ATOM     22  C   UNL     1     -13.679 -14.948   4.312  0.00  0.00    +0.000 C 
BRANCH  17  23
ATOM     23  O   UNL     1     -10.243 -16.569   7.708  0.00  0.00    +0.000 OA
ATOM     24  H   UNL     1     -11.024 -16.935   8.172  0.00  0.00    +0.000 HD
ENDBRANCH  17  23
ENDBRANCH  11  16
ENDBRANCH   9  12
ENDBRANCH   8   9
ENDBRANCH   6   8
ENDBRANCH   4   7
ENDBRANCH   3   4
ENDBRANCH   2   3
BRANCH   1  25
ATOM     25  C   UNL     1     -20.297  -7.549   0.896  0.00  0.00    +0.000 C 
BRANCH  25  26
ATOM     26  C   UNL     1     -20.981  -6.528   1.307  0.00  0.00    +0.000 C 
ATOM     27  C   UNL     1     -21.088  -5.306   0.444  0.00  0.00    +0.000 C 
BRANCH  26  29
ATOM     28  C   UNL     1     -22.035  -6.533   3.700  0.00  0.00    +0.000 C 
ATOM     29  C   UNL     1     -21.551  -6.532   2.601  0.00  0.00    +0.000 C 
BRANCH  28  30
ATOM     30  C   UNL     1     -22.652  -6.531   5.105  0.00  0.00    +0.000 C 
BRANCH  30  31
ATOM     31  C   UNL     1     -23.181  -6.528   6.287  0.00  0.00    +0.000 C 
ATOM     32  C   UNL     1     -23.907  -7.741   6.786  0.00  0.00    +0.000 C 
BRANCH  31  34
ATOM     33  C   UNL     1     -22.747  -4.526   7.921  0.00  0.00    +0.000 C 
ATOM     34  C   UNL     1     -22.938  -5.441   7.164  0.00  0.00    +0.000 C 
BRANCH  33  38
ATOM     35  O   UNL     1     -21.731   0.191   8.781  0.00  0.00    +0.000 OA
ATOM     36  C   UNL     1     -22.656  -3.727  10.358  0.00  0.00    +0.000 C 
ATOM     37  C   UNL     1     -22.396  -2.460  11.021  0.00  0.00    +0.000 C 
ATOM     38  C   UNL     1     -22.533  -3.426   8.842  0.00  0.00    +0.000 C 
ATOM     39  C   UNL     1     -22.090  -1.150  10.664  0.00  0.00    +0.000 C 
ATOM     40  C   UNL     1     -24.096  -4.204  10.665  0.00  0.00    +0.000 C 
ATOM     41  C   UNL     1     -21.591  -4.770  10.764  0.00  0.00    +0.000 C 
ATOM     42  C   UNL     1     -22.242  -2.184   8.356  0.00  0.00    +0.000 C 
ATOM     43  C   UNL     1     -21.992  -0.927   9.205  0.00  0.00    +0.000 C 
ATOM     44  C   UNL     1     -22.159  -1.989   6.836  0.00  0.00    +0.000 C 
BRANCH  39  45
ATOM     45  O   UNL     1     -21.901  -0.152  11.581  0.00  0.00    +0.000 OA
ATOM     46  H   UNL     1     -22.697  -0.040  12.141  0.00  0.00    +0.000 HD
ENDBRANCH  39  45
ENDBRANCH  33  38
ENDBRANCH  31  34
ENDBRANCH  30  31
ENDBRANCH  28  30
ENDBRANCH  26  29
ENDBRANCH  25  26
ENDBRANCH   1  25
TORSDOF 16
ENDMDL
MODEL 7
REMARK VINA RESULT:      -5.8     10.098     14.947
REMARK  Name = 5281224_Astaxanthin.pdbqt.pdb
REMARK  16 active torsions:
REMARK  status: ('A' for Active; 'I' for Inactive)
REMARK    1  A    between atoms: C_1  and  C_5
REMARK    2  A    between atoms: C_2  and  C_27
REMARK    3  A    between atoms: C_3  and  C_5
REMARK    4  A    between atoms: C_3  and  C_7
REMARK    5  A    between atoms: C_6  and  C_10
REMARK    6  A    between atoms: C_8  and  C_10
REMARK    7  A    between atoms: C_8  and  C_12
REMARK    8  A    between atoms: C_11  and  C_16
REMARK    9  A    between atoms: C_17  and  O_23
REMARK   10  A    between atoms: C_25  and  C_27
REMARK   11  A    between atoms: C_25  and  C_29
REMARK   12  A    between atoms: C_28  and  C_32
REMARK   13  A    between atoms: C_30  and  C_32
REMARK   14  A    between atoms: C_30  and  C_34
REMARK   15  A    between atoms: C_33  and  C_38
REMARK   16  A    between atoms: C_39  and  O_45
REMARK                            x       y       z     vdW  Elec       q    Type
REMARK                         _______ _______ _______ _____ _____    ______ ____
ROOT
ATOM      1  C   UNL     1      -2.287   3.832   8.070  0.00  0.00    +0.000 C 
ATOM      2  C   UNL     1      -1.245   3.275   7.863  0.00  0.00    +0.000 C 
ENDROOT
BRANCH   2   3
ATOM      3  C   UNL     1       0.089   2.567   7.593  0.00  0.00    +0.000 C 
BRANCH   3   4
ATOM      4  C   UNL     1       1.219   1.976   7.366  0.00  0.00    +0.000 C 
ATOM      5  C   UNL     1       2.437   2.362   8.150  0.00  0.00    +0.000 C 
BRANCH   4   7
ATOM      6  C   UNL     1       1.405   0.216   5.439  0.00  0.00    +0.000 C 
ATOM      7  C   UNL     1       1.322   1.023   6.324  0.00  0.00    +0.000 C 
BRANCH   6   8
ATOM      8  C   UNL     1       1.509  -0.813   4.307  0.00  0.00    +0.000 C 
BRANCH   8   9
ATOM      9  C   UNL     1       1.604  -1.686   3.352  0.00  0.00    +0.000 C 
ATOM     10  C   UNL     1       2.954  -2.098   2.848  0.00  0.00    +0.000 C 
BRANCH   9  12
ATOM     11  C   UNL     1      -0.541  -2.942   2.525  0.00  0.00    +0.000 C 
ATOM     12  C   UNL     1       0.443  -2.358   2.896  0.00  0.00    +0.000 C 
BRANCH  11  16
ATOM     13  O   UNL     1      -2.687  -7.008   0.827  0.00  0.00    +0.000 OA
ATOM     14  C   UNL     1      -3.075  -2.900   2.121  0.00  0.00    +0.000 C 
ATOM     15  C   UNL     1      -4.061  -3.854   1.641  0.00  0.00    +0.000 C 
ATOM     16  C   UNL     1      -1.724  -3.659   2.091  0.00  0.00    +0.000 C 
ATOM     17  C   UNL     1      -4.092  -5.172   1.197  0.00  0.00    +0.000 C 
ATOM     18  C   UNL     1      -3.393  -2.492   3.578  0.00  0.00    +0.000 C 
ATOM     19  C   UNL     1      -3.004  -1.684   1.171  0.00  0.00    +0.000 C 
ATOM     20  C   UNL     1      -1.615  -4.958   1.681  0.00  0.00    +0.000 C 
ATOM     21  C   UNL     1      -2.773  -5.844   1.195  0.00  0.00    +0.000 C 
ATOM     22  C   UNL     1      -0.231  -5.623   1.704  0.00  0.00    +0.000 C 
BRANCH  17  23
ATOM     23  O   UNL     1      -5.243  -5.800   0.801  0.00  0.00    +0.000 OA
ATOM     24  H   UNL     1      -5.947  -5.688   1.471  0.00  0.00    +0.000 HD
ENDBRANCH  17  23
ENDBRANCH  11  16
ENDBRANCH   9  12
ENDBRANCH   8   9
ENDBRANCH   6   8
ENDBRANCH   4   7
ENDBRANCH   3   4
ENDBRANCH   2   3
BRANCH   1  25
ATOM     25  C   UNL     1      -3.618   4.549   8.324  0.00  0.00    +0.000 C 
BRANCH  25  26
ATOM     26  C   UNL     1      -4.742   5.160   8.536  0.00  0.00    +0.000 C 
ATOM     27  C   UNL     1      -5.042   5.722   9.894  0.00  0.00    +0.000 C 
BRANCH  26  29
ATOM     28  C   UNL     1      -6.547   5.267   6.647  0.00  0.00    +0.000 C 
ATOM     29  C   UNL     1      -5.718   5.219   7.515  0.00  0.00    +0.000 C 
BRANCH  28  30
ATOM     30  C   UNL     1      -7.606   5.324   5.538  0.00  0.00    +0.000 C 
BRANCH  30  31
ATOM     31  C   UNL     1      -8.506   5.373   4.608  0.00  0.00    +0.000 C 
ATOM     32  C   UNL     1      -8.329   4.575   3.352  0.00  0.00    +0.000 C 
BRANCH  31  34
ATOM     33  C   UNL     1     -10.770   6.614   5.060  0.00  0.00    +0.000 C 
ATOM     34  C   UNL     1      -9.727   6.054   4.846  0.00  0.00    +0.000 C 
BRANCH  33  38
ATOM     35  O   UNL     1     -15.390   6.494   6.689  0.00  0.00    +0.000 OA
ATOM     36  C   UNL     1     -12.142   8.781   4.980  0.00  0.00    +0.000 C 
ATOM     37  C   UNL     1     -13.496   9.160   5.349  0.00  0.00    +0.000 C 
ATOM     38  C   UNL     1     -12.033   7.274   5.326  0.00  0.00    +0.000 C 
ATOM     39  C   UNL     1     -14.627   8.558   5.892  0.00  0.00    +0.000 C 
ATOM     40  C   UNL     1     -11.117   9.570   5.829  0.00  0.00    +0.000 C 
ATOM     41  C   UNL     1     -11.928   8.978   3.463  0.00  0.00    +0.000 C 
ATOM     42  C   UNL     1     -13.065   6.562   5.867  0.00  0.00    +0.000 C 
ATOM     43  C   UNL     1     -14.458   7.122   6.204  0.00  0.00    +0.000 C 
ATOM     44  C   UNL     1     -12.849   5.077   6.187  0.00  0.00    +0.000 C 
BRANCH  39  45
ATOM     45  O   UNL     1     -15.794   9.233   6.123  0.00  0.00    +0.000 OA
ATOM     46  H   UNL     1     -16.447   8.655   6.568  0.00  0.00    +0.000 HD
ENDBRANCH  39  45
ENDBRANCH  33  38
ENDBRANCH  31  34
ENDBRANCH  30  31
ENDBRANCH  28  30
ENDBRANCH  26  29
ENDBRANCH  25  26
ENDBRANCH   1  25
TORSDOF 16
ENDMDL
MODEL 8
REMARK VINA RESULT:      -5.8     22.206     27.969
REMARK  Name = 5281224_Astaxanthin.pdbqt.pdb
REMARK  16 active torsions:
REMARK  status: ('A' for Active; 'I' for Inactive)
REMARK    1  A    between atoms: C_1  and  C_5
REMARK    2  A    between atoms: C_2  and  C_27
REMARK    3  A    between atoms: C_3  and  C_5
REMARK    4  A    between atoms: C_3  and  C_7
REMARK    5  A    between atoms: C_6  and  C_10
REMARK    6  A    between atoms: C_8  and  C_10
REMARK    7  A    between atoms: C_8  and  C_12
REMARK    8  A    between atoms: C_11  and  C_16
REMARK    9  A    between atoms: C_17  and  O_23
REMARK   10  A    between atoms: C_25  and  C_27
REMARK   11  A    between atoms: C_25  and  C_29
REMARK   12  A    between atoms: C_28  and  C_32
REMARK   13  A    between atoms: C_30  and  C_32
REMARK   14  A    between atoms: C_30  and  C_34
REMARK   15  A    between atoms: C_33  and  C_38
REMARK   16  A    between atoms: C_39  and  O_45
REMARK                            x       y       z     vdW  Elec       q    Type
REMARK                         _______ _______ _______ _____ _____    ______ ____
ROOT
ATOM      1  C   UNL     1     -21.087  -0.263  19.091  0.00  0.00    +0.000 C 
ATOM      2  C   UNL     1     -21.902  -0.987  18.589  0.00  0.00    +0.000 C 
ENDROOT
BRANCH   2   3
ATOM      3  C   UNL     1     -22.946  -1.906  17.942  0.00  0.00    +0.000 C 
BRANCH   3   4
ATOM      4  C   UNL     1     -23.824  -2.686  17.394  0.00  0.00    +0.000 C 
ATOM      5  C   UNL     1     -25.073  -3.046  18.139  0.00  0.00    +0.000 C 
BRANCH   4   7
ATOM      6  C   UNL     1     -23.342  -3.747  15.052  0.00  0.00    +0.000 C 
ATOM      7  C   UNL     1     -23.565  -3.260  16.126  0.00  0.00    +0.000 C 
BRANCH   6   8
ATOM      8  C   UNL     1     -23.054  -4.369  13.681  0.00  0.00    +0.000 C 
BRANCH   8   9
ATOM      9  C   UNL     1     -22.805  -4.889  12.518  0.00  0.00    +0.000 C 
ATOM     10  C   UNL     1     -22.836  -6.377  12.343  0.00  0.00    +0.000 C 
BRANCH   9  12
ATOM     11  C   UNL     1     -22.550  -3.328  10.430  0.00  0.00    +0.000 C 
ATOM     12  C   UNL     1     -22.655  -4.047  11.389  0.00  0.00    +0.000 C 
BRANCH  11  16
ATOM     13  O   UNL     1     -22.270   1.149   8.456  0.00  0.00    +0.000 OA
ATOM     14  C   UNL     1     -22.356  -3.135   7.877  0.00  0.00    +0.000 C 
ATOM     15  C   UNL     1     -22.255  -2.039   6.930  0.00  0.00    +0.000 C 
ATOM     16  C   UNL     1     -22.441  -2.462   9.272  0.00  0.00    +0.000 C 
ATOM     17  C   UNL     1     -22.219  -0.648   6.957  0.00  0.00    +0.000 C 
ATOM     18  C   UNL     1     -21.084  -4.013   7.816  0.00  0.00    +0.000 C 
ATOM     19  C   UNL     1     -23.644  -3.947   7.619  0.00  0.00    +0.000 C 
ATOM     20  C   UNL     1     -22.411  -1.108   9.442  0.00  0.00    +0.000 C 
ATOM     21  C   UNL     1     -22.299  -0.066   8.316  0.00  0.00    +0.000 C 
ATOM     22  C   UNL     1     -22.486  -0.542  10.867  0.00  0.00    +0.000 C 
BRANCH  17  23
ATOM     23  O   UNL     1     -22.111   0.119   5.829  0.00  0.00    +0.000 OA
ATOM     24  H   UNL     1     -22.542   0.989   5.959  0.00  0.00    +0.000 HD
ENDBRANCH  17  23
ENDBRANCH  11  16
ENDBRANCH   9  12
ENDBRANCH   8   9
ENDBRANCH   6   8
ENDBRANCH   4   7
ENDBRANCH   3   4
ENDBRANCH   2   3
BRANCH   1  25
ATOM     25  C   UNL     1     -20.049   0.669  19.727  0.00  0.00    +0.000 C 
BRANCH  25  26
ATOM     26  C   UNL     1     -19.168   1.453  20.265  0.00  0.00    +0.000 C 
ATOM     27  C   UNL     1     -18.885   2.791  19.650  0.00  0.00    +0.000 C 
BRANCH  26  29
ATOM     28  C   UNL     1     -17.774   0.635  22.321  0.00  0.00    +0.000 C 
ATOM     29  C   UNL     1     -18.414   1.012  21.377  0.00  0.00    +0.000 C 
BRANCH  28  30
ATOM     30  C   UNL     1     -16.957   0.150  23.526  0.00  0.00    +0.000 C 
BRANCH  30  31
ATOM     31  C   UNL     1     -16.274  -0.256  24.549  0.00  0.00    +0.000 C 
ATOM     32  C   UNL     1     -16.879  -0.208  25.920  0.00  0.00    +0.000 C 
BRANCH  31  34
ATOM     33  C   UNL     1     -13.963  -1.440  24.199  0.00  0.00    +0.000 C 
ATOM     34  C   UNL     1     -15.021  -0.889  24.351  0.00  0.00    +0.000 C 
BRANCH  33  38
ATOM     35  O   UNL     1      -9.221  -1.373  22.965  0.00  0.00    +0.000 OA
ATOM     36  C   UNL     1     -12.631  -3.627  24.377  0.00  0.00    +0.000 C 
ATOM     37  C   UNL     1     -11.257  -4.023  24.116  0.00  0.00    +0.000 C 
ATOM     38  C   UNL     1     -12.691  -2.117  24.031  0.00  0.00    +0.000 C 
ATOM     39  C   UNL     1     -10.078  -3.433  23.670  0.00  0.00    +0.000 C 
ATOM     40  C   UNL     1     -12.965  -3.816  25.875  0.00  0.00    +0.000 C 
ATOM     41  C   UNL     1     -13.594  -4.405  23.454  0.00  0.00    +0.000 C 
ATOM     42  C   UNL     1     -11.607  -1.415  23.587  0.00  0.00    +0.000 C 
ATOM     43  C   UNL     1     -10.200  -1.992  23.361  0.00  0.00    +0.000 C 
ATOM     44  C   UNL     1     -11.770   0.081  23.288  0.00  0.00    +0.000 C 
BRANCH  39  45
ATOM     45  O   UNL     1      -8.904  -4.123  23.533  0.00  0.00    +0.000 OA
ATOM     46  H   UNL     1      -8.153  -3.605  23.890  0.00  0.00    +0.000 HD
ENDBRANCH  39  45
ENDBRANCH  33  38
ENDBRANCH  31  34
ENDBRANCH  30  31
ENDBRANCH  28  30
ENDBRANCH  26  29
ENDBRANCH  25  26
ENDBRANCH   1  25
TORSDOF 16
ENDMDL
MODEL 9
REMARK VINA RESULT:      -5.8     18.698     26.433
REMARK  Name = 5281224_Astaxanthin.pdbqt.pdb
REMARK  16 active torsions:
REMARK  status: ('A' for Active; 'I' for Inactive)
REMARK    1  A    between atoms: C_1  and  C_5
REMARK    2  A    between atoms: C_2  and  C_27
REMARK    3  A    between atoms: C_3  and  C_5
REMARK    4  A    between atoms: C_3  and  C_7
REMARK    5  A    between atoms: C_6  and  C_10
REMARK    6  A    between atoms: C_8  and  C_10
REMARK    7  A    between atoms: C_8  and  C_12
REMARK    8  A    between atoms: C_11  and  C_16
REMARK    9  A    between atoms: C_17  and  O_23
REMARK   10  A    between atoms: C_25  and  C_27
REMARK   11  A    between atoms: C_25  and  C_29
REMARK   12  A    between atoms: C_28  and  C_32
REMARK   13  A    between atoms: C_30  and  C_32
REMARK   14  A    between atoms: C_30  and  C_34
REMARK   15  A    between atoms: C_33  and  C_38
REMARK   16  A    between atoms: C_39  and  O_45
REMARK                            x       y       z     vdW  Elec       q    Type
REMARK                         _______ _______ _______ _____ _____    ______ ____
ROOT
ATOM      1  C   UNL     1     -20.708  -5.743   0.782  0.00  0.00    +0.000 C 
ATOM      2  C   UNL     1     -20.006  -5.410  -0.132  0.00  0.00    +0.000 C 
ENDROOT
BRANCH   2   3
ATOM      3  C   UNL     1     -19.106  -4.977  -1.296  0.00  0.00    +0.000 C 
BRANCH   3   4
ATOM      4  C   UNL     1     -18.348  -4.616  -2.283  0.00  0.00    +0.000 C 
ATOM      5  C   UNL     1     -18.289  -5.452  -3.526  0.00  0.00    +0.000 C 
BRANCH   4   7
ATOM      6  C   UNL     1     -16.812  -2.510  -2.054  0.00  0.00    +0.000 C 
ATOM      7  C   UNL     1     -17.517  -3.477  -2.157  0.00  0.00    +0.000 C 
BRANCH   6   8
ATOM      8  C   UNL     1     -15.913  -1.275  -1.926  0.00  0.00    +0.000 C 
BRANCH   8   9
ATOM      9  C   UNL     1     -15.155  -0.229  -1.810  0.00  0.00    +0.000 C 
ATOM     10  C   UNL     1     -15.749   1.081  -1.390  0.00  0.00    +0.000 C 
BRANCH   9  12
ATOM     11  C   UNL     1     -12.556  -0.481  -2.014  0.00  0.00    +0.000 C 
ATOM     12  C   UNL     1     -13.750  -0.362  -1.932  0.00  0.00    +0.000 C 
BRANCH  11  16
ATOM     13  O   UNL     1      -8.588  -3.133  -3.129  0.00  0.00    +0.000 OA
ATOM     14  C   UNL     1     -10.245   0.573  -1.640  0.00  0.00    +0.000 C 
ATOM     15  C   UNL     1      -8.871   0.143  -1.832  0.00  0.00    +0.000 C 
ATOM     16  C   UNL     1     -11.116  -0.627  -2.095  0.00  0.00    +0.000 C 
ATOM     17  C   UNL     1      -8.194  -0.985  -2.285  0.00  0.00    +0.000 C 
ATOM     18  C   UNL     1     -10.554   1.792  -2.541  0.00  0.00    +0.000 C 
ATOM     19  C   UNL     1     -10.510   0.863  -0.146  0.00  0.00    +0.000 C 
ATOM     20  C   UNL     1     -10.580  -1.792  -2.565  0.00  0.00    +0.000 C 
ATOM     21  C   UNL     1      -9.079  -2.094  -2.708  0.00  0.00    +0.000 C 
ATOM     22  C   UNL     1     -11.530  -2.915  -3.004  0.00  0.00    +0.000 C 
BRANCH  17  23
ATOM     23  O   UNL     1      -6.829  -1.065  -2.343  0.00  0.00    +0.000 OA
ATOM     24  H   UNL     1      -6.425  -0.181  -2.227  0.00  0.00    +0.000 HD
ENDBRANCH  17  23
ENDBRANCH  11  16
ENDBRANCH   9  12
ENDBRANCH   8   9
ENDBRANCH   6   8
ENDBRANCH   4   7
ENDBRANCH   3   4
ENDBRANCH   2   3
BRANCH   1  25
ATOM     25  C   UNL     1     -21.605  -6.159   1.954  0.00  0.00    +0.000 C 
BRANCH  25  26
ATOM     26  C   UNL     1     -22.366  -6.506   2.944  0.00  0.00    +0.000 C 
ATOM     27  C   UNL     1     -23.715  -7.102   2.676  0.00  0.00    +0.000 C 
BRANCH  26  29
ATOM     28  C   UNL     1     -21.617  -6.017   5.402  0.00  0.00    +0.000 C 
ATOM     29  C   UNL     1     -21.961  -6.243   4.274  0.00  0.00    +0.000 C 
BRANCH  28  30
ATOM     30  C   UNL     1     -21.177  -5.725   6.843  0.00  0.00    +0.000 C 
BRANCH  30  31
ATOM     31  C   UNL     1     -20.805  -5.488   8.060  0.00  0.00    +0.000 C 
ATOM     32  C   UNL     1     -19.675  -4.540   8.326  0.00  0.00    +0.000 C 
BRANCH  31  34
ATOM     33  C   UNL     1     -22.212  -6.413  10.068  0.00  0.00    +0.000 C 
ATOM     34  C   UNL     1     -21.567  -5.999   9.141  0.00  0.00    +0.000 C 
BRANCH  33  38
ATOM     35  O   UNL     1     -22.858  -6.920  14.900  0.00  0.00    +0.000 OA
ATOM     36  C   UNL     1     -24.301  -7.656  10.890  0.00  0.00    +0.000 C 
ATOM     37  C   UNL     1     -24.847  -8.012  12.190  0.00  0.00    +0.000 C 
ATOM     38  C   UNL     1     -22.984  -6.897  11.196  0.00  0.00    +0.000 C 
ATOM     39  C   UNL     1     -24.510  -7.854  13.531  0.00  0.00    +0.000 C 
ATOM     40  C   UNL     1     -25.271  -6.707  10.147  0.00  0.00    +0.000 C 
ATOM     41  C   UNL     1     -23.984  -8.931  10.078  0.00  0.00    +0.000 C 
ATOM     42  C   UNL     1     -22.539  -6.669  12.466  0.00  0.00    +0.000 C 
ATOM     43  C   UNL     1     -23.246  -7.119  13.756  0.00  0.00    +0.000 C 
ATOM     44  C   UNL     1     -21.229  -5.893  12.661  0.00  0.00    +0.000 C 
BRANCH  39  45
ATOM     45  O   UNL     1     -25.282  -8.332  14.555  0.00  0.00    +0.000 OA
ATOM     46  H   UNL     1     -25.689  -9.189  14.312  0.00  0.00    +0.000 HD
ENDBRANCH  39  45
ENDBRANCH  33  38
ENDBRANCH  31  34
ENDBRANCH  30  31
ENDBRANCH  28  30
ENDBRANCH  26  29
ENDBRANCH  25  26
ENDBRANCH   1  25
TORSDOF 16
ENDMDL
