MODEL 1
REMARK VINA RESULT:      -6.6      0.000      0.000
REMARK  Name = 5281698_sexangularetin.pdbqt.pdb
REMARK  6 active torsions:
REMARK  status: ('A' for Active; 'I' for Inactive)
REMARK    1  A    between atoms: C_5  and  C_12
REMARK    2  A    between atoms: C_6  and  O_20
REMARK    3  A    between atoms: C_8  and  O_22
REMARK    4  A    between atoms: C_9  and  O_24
REMARK    5  A    between atoms: C_10  and  O_26
REMARK    6  A    between atoms: C_17  and  O_18
REMARK                            x       y       z     vdW  Elec       q    Type
REMARK                         _______ _______ _______ _____ _____    ______ ____
ROOT
ATOM      1  O   UNL     1     -11.270  -3.627  21.661  0.00  0.00    +0.000 OA
ATOM      2  O   UNL     1     -10.084   0.159  22.484  0.00  0.00    +0.000 OA
ATOM      3  C   UNL     1     -11.502  -1.640  23.027  0.00  0.00    +0.000 A 
ATOM      4  C   UNL     1     -11.871  -2.940  22.686  0.00  0.00    +0.000 A 
ATOM      5  C   UNL     1     -10.297  -3.001  20.889  0.00  0.00    +0.000 A 
ATOM      6  C   UNL     1     -12.876  -3.587  23.418  0.00  0.00    +0.000 A 
ATOM      7  C   UNL     1     -10.460  -0.984  22.235  0.00  0.00    +0.000 A 
ATOM      8  C   UNL     1      -9.862  -1.748  21.117  0.00  0.00    +0.000 A 
ATOM      9  C   UNL     1     -12.110  -0.992  24.108  0.00  0.00    +0.000 A 
ATOM     10  C   UNL     1     -13.450  -2.946  24.522  0.00  0.00    +0.000 A 
ATOM     11  C   UNL     1     -13.078  -1.648  24.861  0.00  0.00    +0.000 A 
ENDROOT
BRANCH   5  12
ATOM     12  C   UNL     1      -9.780  -3.864  19.807  0.00  0.00    +0.000 A 
ATOM     13  C   UNL     1     -10.174  -3.628  18.485  0.00  0.00    +0.000 A 
ATOM     14  C   UNL     1      -8.848  -4.878  20.049  0.00  0.00    +0.000 A 
ATOM     15  C   UNL     1      -9.672  -4.395  17.435  0.00  0.00    +0.000 A 
ATOM     16  C   UNL     1      -8.340  -5.654  19.009  0.00  0.00    +0.000 A 
ATOM     17  C   UNL     1      -8.757  -5.405  17.708  0.00  0.00    +0.000 A 
BRANCH  17  18
ATOM     18  O   UNL     1      -8.247  -6.174  16.703  0.00  0.00    +0.000 OA
ATOM     19  H   UNL     1      -7.289  -6.267  16.849  0.00  0.00    +0.000 HD
ENDBRANCH  17  18
ENDBRANCH   5  12
BRANCH   6  20
ATOM     20  O   UNL     1     -13.248  -4.879  23.134  0.00  0.00    +0.000 OA
ATOM     21  C   UNL     1     -12.440  -5.803  23.824  0.00  0.00    +0.000 C 
ENDBRANCH   6  20
BRANCH   8  22
ATOM     22  O   UNL     1      -8.870  -1.120  20.389  0.00  0.00    +0.000 OA
ATOM     23  H   UNL     1      -9.316  -0.396  19.901  0.00  0.00    +0.000 HD
ENDBRANCH   8  22
BRANCH   9  24
ATOM     24  O   UNL     1     -11.791   0.280  24.496  0.00  0.00    +0.000 OA
ATOM     25  H   UNL     1     -11.249   0.238  25.316  0.00  0.00    +0.000 HD
ENDBRANCH   9  24
BRANCH  10  26
ATOM     26  O   UNL     1     -14.371  -3.603  25.288  0.00  0.00    +0.000 OA
ATOM     27  H   UNL     1     -14.319  -4.557  25.089  0.00  0.00    +0.000 HD
ENDBRANCH  10  26
TORSDOF 6
ENDMDL
MODEL 2
REMARK VINA RESULT:      -6.4      1.330      3.586
REMARK  Name = 5281698_sexangularetin.pdbqt.pdb
REMARK  6 active torsions:
REMARK  status: ('A' for Active; 'I' for Inactive)
REMARK    1  A    between atoms: C_5  and  C_12
REMARK    2  A    between atoms: C_6  and  O_20
REMARK    3  A    between atoms: C_8  and  O_22
REMARK    4  A    between atoms: C_9  and  O_24
REMARK    5  A    between atoms: C_10  and  O_26
REMARK    6  A    between atoms: C_17  and  O_18
REMARK                            x       y       z     vdW  Elec       q    Type
REMARK                         _______ _______ _______ _____ _____    ______ ____
ROOT
ATOM      1  O   UNL     1     -10.171  -2.198  20.929  0.00  0.00    +0.000 OA
ATOM      2  O   UNL     1     -12.859  -3.796  23.504  0.00  0.00    +0.000 OA
ATOM      3  C   UNL     1     -11.637  -1.899  22.834  0.00  0.00    +0.000 A 
ATOM      4  C   UNL     1     -10.699  -1.414  21.924  0.00  0.00    +0.000 A 
ATOM      5  C   UNL     1     -10.527  -3.540  20.846  0.00  0.00    +0.000 A 
ATOM      6  C   UNL     1     -10.288  -0.076  22.003  0.00  0.00    +0.000 A 
ATOM      7  C   UNL     1     -12.035  -3.305  22.736  0.00  0.00    +0.000 A 
ATOM      8  C   UNL     1     -11.416  -4.124  21.671  0.00  0.00    +0.000 A 
ATOM      9  C   UNL     1     -12.184  -1.054  23.805  0.00  0.00    +0.000 A 
ATOM     10  C   UNL     1     -10.870   0.772  22.952  0.00  0.00    +0.000 A 
ATOM     11  C   UNL     1     -11.807   0.284  23.859  0.00  0.00    +0.000 A 
ENDROOT
BRANCH   5  12
ATOM     12  C   UNL     1      -9.841  -4.248  19.745  0.00  0.00    +0.000 A 
ATOM     13  C   UNL     1     -10.136  -3.915  18.417  0.00  0.00    +0.000 A 
ATOM     14  C   UNL     1      -8.848  -5.203  19.983  0.00  0.00    +0.000 A 
ATOM     15  C   UNL     1      -9.478  -4.533  17.356  0.00  0.00    +0.000 A 
ATOM     16  C   UNL     1      -8.183  -5.830  18.930  0.00  0.00    +0.000 A 
ATOM     17  C   UNL     1      -8.505  -5.488  17.623  0.00  0.00    +0.000 A 
BRANCH  17  18
ATOM     18  O   UNL     1      -7.842  -6.111  16.607  0.00  0.00    +0.000 OA
ATOM     19  H   UNL     1      -7.319  -5.442  16.130  0.00  0.00    +0.000 HD
ENDBRANCH  17  18
ENDBRANCH   5  12
BRANCH   6  20
ATOM     20  O   UNL     1      -9.390   0.449  21.106  0.00  0.00    +0.000 OA
ATOM     21  C   UNL     1      -8.069   0.322  21.577  0.00  0.00    +0.000 C 
ENDBRANCH   6  20
BRANCH   8  22
ATOM     22  O   UNL     1     -11.814  -5.444  21.583  0.00  0.00    +0.000 OA
ATOM     23  H   UNL     1     -11.736  -5.682  20.635  0.00  0.00    +0.000 HD
ENDBRANCH   8  22
BRANCH   9  24
ATOM     24  O   UNL     1     -13.109  -1.467  24.724  0.00  0.00    +0.000 OA
ATOM     25  H   UNL     1     -13.023  -2.439  24.849  0.00  0.00    +0.000 HD
ENDBRANCH   9  24
BRANCH  10  26
ATOM     26  O   UNL     1     -10.532   2.096  22.980  0.00  0.00    +0.000 OA
ATOM     27  H   UNL     1     -10.054   2.313  22.158  0.00  0.00    +0.000 HD
ENDBRANCH  10  26
TORSDOF 6
ENDMDL
MODEL 3
REMARK VINA RESULT:      -5.5      2.303      4.679
REMARK  Name = 5281698_sexangularetin.pdbqt.pdb
REMARK  6 active torsions:
REMARK  status: ('A' for Active; 'I' for Inactive)
REMARK    1  A    between atoms: C_5  and  C_12
REMARK    2  A    between atoms: C_6  and  O_20
REMARK    3  A    between atoms: C_8  and  O_22
REMARK    4  A    between atoms: C_9  and  O_24
REMARK    5  A    between atoms: C_10  and  O_26
REMARK    6  A    between atoms: C_17  and  O_18
REMARK                            x       y       z     vdW  Elec       q    Type
REMARK                         _______ _______ _______ _____ _____    ______ ____
ROOT
ATOM      1  O   UNL     1     -10.959  -1.747  22.801  0.00  0.00    +0.000 OA
ATOM      2  O   UNL     1     -10.179  -5.420  21.277  0.00  0.00    +0.000 OA
ATOM      3  C   UNL     1     -11.473  -4.114  22.747  0.00  0.00    +0.000 A 
ATOM      4  C   UNL     1     -11.684  -2.827  23.239  0.00  0.00    +0.000 A 
ATOM      5  C   UNL     1      -9.936  -1.933  21.877  0.00  0.00    +0.000 A 
ATOM      6  C   UNL     1     -12.681  -2.610  24.201  0.00  0.00    +0.000 A 
ATOM      7  C   UNL     1     -10.415  -4.312  21.755  0.00  0.00    +0.000 A 
ATOM      8  C   UNL     1      -9.634  -3.128  21.335  0.00  0.00    +0.000 A 
ATOM      9  C   UNL     1     -12.265  -5.179  23.189  0.00  0.00    +0.000 A 
ATOM     10  C   UNL     1     -13.494  -3.674  24.607  0.00  0.00    +0.000 A 
ATOM     11  C   UNL     1     -13.281  -4.958  24.113  0.00  0.00    +0.000 A 
ENDROOT
BRANCH   5  12
ATOM     12  C   UNL     1      -9.232  -0.679  21.540  0.00  0.00    +0.000 A 
ATOM     13  C   UNL     1      -9.771   0.180  20.574  0.00  0.00    +0.000 A 
ATOM     14  C   UNL     1      -8.070  -0.278  22.207  0.00  0.00    +0.000 A 
ATOM     15  C   UNL     1      -9.156   1.391  20.263  0.00  0.00    +0.000 A 
ATOM     16  C   UNL     1      -7.444   0.930  21.904  0.00  0.00    +0.000 A 
ATOM     17  C   UNL     1      -7.994   1.756  20.932  0.00  0.00    +0.000 A 
BRANCH  17  18
ATOM     18  O   UNL     1      -7.368   2.935  20.651  0.00  0.00    +0.000 OA
ATOM     19  H   UNL     1      -6.460   2.886  20.998  0.00  0.00    +0.000 HD
ENDBRANCH  17  18
ENDBRANCH   5  12
BRANCH   6  20
ATOM     20  O   UNL     1     -12.940  -1.352  24.689  0.00  0.00    +0.000 OA
ATOM     21  C   UNL     1     -13.846  -0.663  23.859  0.00  0.00    +0.000 C 
ENDBRANCH   6  20
BRANCH   8  22
ATOM     22  O   UNL     1      -8.649  -3.330  20.387  0.00  0.00    +0.000 OA
ATOM     23  H   UNL     1      -9.093  -3.776  19.634  0.00  0.00    +0.000 HD
ENDBRANCH   8  22
BRANCH   9  24
ATOM     24  O   UNL     1     -12.112  -6.463  22.743  0.00  0.00    +0.000 OA
ATOM     25  H   UNL     1     -11.175  -6.597  22.474  0.00  0.00    +0.000 HD
ENDBRANCH   9  24
BRANCH  10  26
ATOM     26  O   UNL     1     -14.519  -3.451  25.483  0.00  0.00    +0.000 OA
ATOM     27  H   UNL     1     -15.363  -3.628  25.027  0.00  0.00    +0.000 HD
ENDBRANCH  10  26
TORSDOF 6
ENDMDL
MODEL 4
REMARK VINA RESULT:      -5.5      1.372      3.644
REMARK  Name = 5281698_sexangularetin.pdbqt.pdb
REMARK  6 active torsions:
REMARK  status: ('A' for Active; 'I' for Inactive)
REMARK    1  A    between atoms: C_5  and  C_12
REMARK    2  A    between atoms: C_6  and  O_20
REMARK    3  A    between atoms: C_8  and  O_22
REMARK    4  A    between atoms: C_9  and  O_24
REMARK    5  A    between atoms: C_10  and  O_26
REMARK    6  A    between atoms: C_17  and  O_18
REMARK                            x       y       z     vdW  Elec       q    Type
REMARK                         _______ _______ _______ _____ _____    ______ ____
ROOT
ATOM      1  O   UNL     1     -10.537  -2.501  22.287  0.00  0.00    +0.000 OA
ATOM      2  O   UNL     1     -13.105  -4.840  24.373  0.00  0.00    +0.000 OA
ATOM      3  C   UNL     1     -11.933  -2.802  24.244  0.00  0.00    +0.000 A 
ATOM      4  C   UNL     1     -11.037  -2.052  23.484  0.00  0.00    +0.000 A 
ATOM      5  C   UNL     1     -10.878  -3.768  21.829  0.00  0.00    +0.000 A 
ATOM      6  C   UNL     1     -10.641  -0.785  23.935  0.00  0.00    +0.000 A 
ATOM      7  C   UNL     1     -12.317  -4.127  23.754  0.00  0.00    +0.000 A 
ATOM      8  C   UNL     1     -11.728  -4.587  22.477  0.00  0.00    +0.000 A 
ATOM      9  C   UNL     1     -12.454  -2.288  25.436  0.00  0.00    +0.000 A 
ATOM     10  C   UNL     1     -11.197  -0.263  25.108  0.00  0.00    +0.000 A 
ATOM     11  C   UNL     1     -12.092  -1.015  25.865  0.00  0.00    +0.000 A 
ENDROOT
BRANCH   5  12
ATOM     12  C   UNL     1     -10.226  -4.110  20.548  0.00  0.00    +0.000 A 
ATOM     13  C   UNL     1      -9.201  -5.064  20.526  0.00  0.00    +0.000 A 
ATOM     14  C   UNL     1     -10.645  -3.561  19.333  0.00  0.00    +0.000 A 
ATOM     15  C   UNL     1      -8.595  -5.442  19.330  0.00  0.00    +0.000 A 
ATOM     16  C   UNL     1     -10.045  -3.928  18.130  0.00  0.00    +0.000 A 
ATOM     17  C   UNL     1      -9.023  -4.869  18.139  0.00  0.00    +0.000 A 
BRANCH  17  18
ATOM     18  O   UNL     1      -8.449  -5.217  16.951  0.00  0.00    +0.000 OA
ATOM     19  H   UNL     1      -8.158  -4.403  16.505  0.00  0.00    +0.000 HD
ENDBRANCH  17  18
ENDBRANCH   5  12
BRANCH   6  20
ATOM     20  O   UNL     1      -9.784  -0.002  23.201  0.00  0.00    +0.000 OA
ATOM     21  C   UNL     1     -10.490   0.799  22.282  0.00  0.00    +0.000 C 
ENDBRANCH   6  20
BRANCH   8  22
ATOM     22  O   UNL     1     -12.112  -5.834  22.022  0.00  0.00    +0.000 OA
ATOM     23  H   UNL     1     -11.850  -5.864  21.078  0.00  0.00    +0.000 HD
ENDBRANCH   8  22
BRANCH   9  24
ATOM     24  O   UNL     1     -13.337  -2.972  26.225  0.00  0.00    +0.000 OA
ATOM     25  H   UNL     1     -13.210  -2.695  27.161  0.00  0.00    +0.000 HD
ENDBRANCH   9  24
BRANCH  10  26
ATOM     26  O   UNL     1     -10.876   1.003  25.509  0.00  0.00    +0.000 OA
ATOM     27  H   UNL     1     -10.373   1.438  24.796  0.00  0.00    +0.000 HD
ENDBRANCH  10  26
TORSDOF 6
ENDMDL
MODEL 5
REMARK VINA RESULT:      -5.5      3.305      6.621
REMARK  Name = 5281698_sexangularetin.pdbqt.pdb
REMARK  6 active torsions:
REMARK  status: ('A' for Active; 'I' for Inactive)
REMARK    1  A    between atoms: C_5  and  C_12
REMARK    2  A    between atoms: C_6  and  O_20
REMARK    3  A    between atoms: C_8  and  O_22
REMARK    4  A    between atoms: C_9  and  O_24
REMARK    5  A    between atoms: C_10  and  O_26
REMARK    6  A    between atoms: C_17  and  O_18
REMARK                            x       y       z     vdW  Elec       q    Type
REMARK                         _______ _______ _______ _____ _____    ______ ____
ROOT
ATOM      1  O   UNL     1      -9.065  -4.441  23.996  0.00  0.00    +0.000 OA
ATOM      2  O   UNL     1     -11.510  -4.359  20.766  0.00  0.00    +0.000 OA
ATOM      3  C   UNL     1      -9.677  -3.405  21.894  0.00  0.00    +0.000 A 
ATOM      4  C   UNL     1      -8.879  -3.480  23.034  0.00  0.00    +0.000 A 
ATOM      5  C   UNL     1     -10.117  -5.343  23.875  0.00  0.00    +0.000 A 
ATOM      6  C   UNL     1      -7.834  -2.562  23.207  0.00  0.00    +0.000 A 
ATOM      7  C   UNL     1     -10.770  -4.367  21.747  0.00  0.00    +0.000 A 
ATOM      8  C   UNL     1     -10.958  -5.365  22.824  0.00  0.00    +0.000 A 
ATOM      9  C   UNL     1      -9.425  -2.436  20.916  0.00  0.00    +0.000 A 
ATOM     10  C   UNL     1      -7.564  -1.623  22.205  0.00  0.00    +0.000 A 
ATOM     11  C   UNL     1      -8.363  -1.550  21.068  0.00  0.00    +0.000 A 
ENDROOT
BRANCH   5  12
ATOM     12  C   UNL     1     -10.199  -6.285  25.010  0.00  0.00    +0.000 A 
ATOM     13  C   UNL     1      -9.154  -7.190  25.237  0.00  0.00    +0.000 A 
ATOM     14  C   UNL     1     -11.262  -6.261  25.918  0.00  0.00    +0.000 A 
ATOM     15  C   UNL     1      -9.179  -8.062  26.323  0.00  0.00    +0.000 A 
ATOM     16  C   UNL     1     -11.300  -7.130  27.008  0.00  0.00    +0.000 A 
ATOM     17  C   UNL     1     -10.255  -8.024  27.201  0.00  0.00    +0.000 A 
BRANCH  17  18
ATOM     18  O   UNL     1     -10.310  -8.865  28.274  0.00  0.00    +0.000 OA
ATOM     19  H   UNL     1      -9.398  -9.054  28.558  0.00  0.00    +0.000 HD
ENDBRANCH  17  18
ENDBRANCH   5  12
BRANCH   6  20
ATOM     20  O   UNL     1      -7.005  -2.622  24.301  0.00  0.00    +0.000 OA
ATOM     21  C   UNL     1      -7.483  -1.806  25.346  0.00  0.00    +0.000 C 
ENDBRANCH   6  20
BRANCH   8  22
ATOM     22  O   UNL     1     -11.984  -6.276  22.663  0.00  0.00    +0.000 OA
ATOM     23  H   UNL     1     -11.690  -6.886  21.954  0.00  0.00    +0.000 HD
ENDBRANCH   8  22
BRANCH   9  24
ATOM     24  O   UNL     1     -10.168  -2.311  19.775  0.00  0.00    +0.000 OA
ATOM     25  H   UNL     1     -10.706  -3.126  19.653  0.00  0.00    +0.000 HD
ENDBRANCH   9  24
BRANCH  10  26
ATOM     26  O   UNL     1      -6.497  -0.779  22.333  0.00  0.00    +0.000 OA
ATOM     27  H   UNL     1      -6.440  -0.486  23.262  0.00  0.00    +0.000 HD
ENDBRANCH  10  26
TORSDOF 6
ENDMDL
MODEL 6
REMARK VINA RESULT:      -5.5     15.761     20.529
REMARK  Name = 5281698_sexangularetin.pdbqt.pdb
REMARK  6 active torsions:
REMARK  status: ('A' for Active; 'I' for Inactive)
REMARK    1  A    between atoms: C_5  and  C_12
REMARK    2  A    between atoms: C_6  and  O_20
REMARK    3  A    between atoms: C_8  and  O_22
REMARK    4  A    between atoms: C_9  and  O_24
REMARK    5  A    between atoms: C_10  and  O_26
REMARK    6  A    between atoms: C_17  and  O_18
REMARK                            x       y       z     vdW  Elec       q    Type
REMARK                         _______ _______ _______ _____ _____    ______ ____
ROOT
ATOM      1  O   UNL     1     -11.540 -18.963   9.718  0.00  0.00    +0.000 OA
ATOM      2  O   UNL     1      -7.939 -17.918   8.183  0.00  0.00    +0.000 OA
ATOM      3  C   UNL     1      -9.601 -19.571   8.399  0.00  0.00    +0.000 A 
ATOM      4  C   UNL     1     -10.839 -19.872   8.965  0.00  0.00    +0.000 A 
ATOM      5  C   UNL     1     -10.988 -17.716   9.984  0.00  0.00    +0.000 A 
ATOM      6  C   UNL     1     -11.408 -21.135   8.750  0.00  0.00    +0.000 A 
ATOM      7  C   UNL     1      -9.025 -18.249   8.654  0.00  0.00    +0.000 A 
ATOM      8  C   UNL     1      -9.798 -17.312   9.499  0.00  0.00    +0.000 A 
ATOM      9  C   UNL     1      -8.941 -20.511   7.601  0.00  0.00    +0.000 A 
ATOM     10  C   UNL     1     -10.759 -22.054   7.918  0.00  0.00    +0.000 A 
ATOM     11  C   UNL     1      -9.523 -21.750   7.353  0.00  0.00    +0.000 A 
ENDROOT
BRANCH   5  12
ATOM     12  C   UNL     1     -11.852 -16.875  10.837  0.00  0.00    +0.000 A 
ATOM     13  C   UNL     1     -12.914 -16.166  10.261  0.00  0.00    +0.000 A 
ATOM     14  C   UNL     1     -11.691 -16.812  12.224  0.00  0.00    +0.000 A 
ATOM     15  C   UNL     1     -13.775 -15.398  11.041  0.00  0.00    +0.000 A 
ATOM     16  C   UNL     1     -12.544 -16.046  13.016  0.00  0.00    +0.000 A 
ATOM     17  C   UNL     1     -13.581 -15.344  12.416  0.00  0.00    +0.000 A 
BRANCH  17  18
ATOM     18  O   UNL     1     -14.407 -14.601  13.209  0.00  0.00    +0.000 OA
ATOM     19  H   UNL     1     -13.884 -13.878  13.598  0.00  0.00    +0.000 HD
ENDBRANCH  17  18
ENDBRANCH   5  12
BRANCH   6  20
ATOM     20  O   UNL     1     -12.640 -21.460   9.264  0.00  0.00    +0.000 OA
ATOM     21  C   UNL     1     -12.519 -22.051  10.537  0.00  0.00    +0.000 C 
ENDBRANCH   6  20
BRANCH   8  22
ATOM     22  O   UNL     1      -9.247 -16.064   9.717  0.00  0.00    +0.000 OA
ATOM     23  H   UNL     1      -9.829 -15.628  10.374  0.00  0.00    +0.000 HD
ENDBRANCH   8  22
BRANCH   9  24
ATOM     24  O   UNL     1      -7.727 -20.277   7.015  0.00  0.00    +0.000 OA
ATOM     25  H   UNL     1      -7.865 -19.755   6.193  0.00  0.00    +0.000 HD
ENDBRANCH   9  24
BRANCH  10  26
ATOM     26  O   UNL     1     -11.348 -23.255   7.640  0.00  0.00    +0.000 OA
ATOM     27  H   UNL     1     -10.815 -23.965   8.043  0.00  0.00    +0.000 HD
ENDBRANCH  10  26
TORSDOF 6
ENDMDL
MODEL 7
REMARK VINA RESULT:      -5.4     16.129     18.227
REMARK  Name = 5281698_sexangularetin.pdbqt.pdb
REMARK  6 active torsions:
REMARK  status: ('A' for Active; 'I' for Inactive)
REMARK    1  A    between atoms: C_5  and  C_12
REMARK    2  A    between atoms: C_6  and  O_20
REMARK    3  A    between atoms: C_8  and  O_22
REMARK    4  A    between atoms: C_9  and  O_24
REMARK    5  A    between atoms: C_10  and  O_26
REMARK    6  A    between atoms: C_17  and  O_18
REMARK                            x       y       z     vdW  Elec       q    Type
REMARK                         _______ _______ _______ _____ _____    ______ ____
ROOT
ATOM      1  O   UNL     1     -21.809  -1.816   8.995  0.00  0.00    +0.000 OA
ATOM      2  O   UNL     1     -22.784  -1.773   5.063  0.00  0.00    +0.000 OA
ATOM      3  C   UNL     1     -22.190  -3.052   6.947  0.00  0.00    +0.000 A 
ATOM      4  C   UNL     1     -21.850  -2.997   8.298  0.00  0.00    +0.000 A 
ATOM      5  C   UNL     1     -22.055  -0.617   8.335  0.00  0.00    +0.000 A 
ATOM      6  C   UNL     1     -21.558  -4.184   8.985  0.00  0.00    +0.000 A 
ATOM      7  C   UNL     1     -22.475  -1.796   6.252  0.00  0.00    +0.000 A 
ATOM      8  C   UNL     1     -22.386  -0.542   7.032  0.00  0.00    +0.000 A 
ATOM      9  C   UNL     1     -22.264  -4.283   6.285  0.00  0.00    +0.000 A 
ATOM     10  C   UNL     1     -21.674  -5.412   8.326  0.00  0.00    +0.000 A 
ATOM     11  C   UNL     1     -22.013  -5.464   6.976  0.00  0.00    +0.000 A 
ENDROOT
BRANCH   5  12
ATOM     12  C   UNL     1     -21.935   0.560   9.219  0.00  0.00    +0.000 A 
ATOM     13  C   UNL     1     -23.086   1.128   9.778  0.00  0.00    +0.000 A 
ATOM     14  C   UNL     1     -20.693   1.094   9.579  0.00  0.00    +0.000 A 
ATOM     15  C   UNL     1     -23.005   2.211  10.650  0.00  0.00    +0.000 A 
ATOM     16  C   UNL     1     -20.598   2.179  10.448  0.00  0.00    +0.000 A 
ATOM     17  C   UNL     1     -21.758   2.729  10.978  0.00  0.00    +0.000 A 
BRANCH  17  18
ATOM     18  O   UNL     1     -21.645   3.790  11.828  0.00  0.00    +0.000 OA
ATOM     19  H   UNL     1     -21.405   4.575  11.305  0.00  0.00    +0.000 HD
ENDBRANCH  17  18
ENDBRANCH   5  12
BRANCH   6  20
ATOM     20  O   UNL     1     -21.250  -4.175  10.324  0.00  0.00    +0.000 OA
ATOM     21  C   UNL     1     -22.409  -4.302  11.113  0.00  0.00    +0.000 C 
ENDBRANCH   6  20
BRANCH   8  22
ATOM     22  O   UNL     1     -22.673   0.634   6.365  0.00  0.00    +0.000 OA
ATOM     23  H   UNL     1     -21.813   0.968   6.034  0.00  0.00    +0.000 HD
ENDBRANCH   8  22
BRANCH   9  24
ATOM     24  O   UNL     1     -22.594  -4.405   4.964  0.00  0.00    +0.000 OA
ATOM     25  H   UNL     1     -23.469  -4.848   4.893  0.00  0.00    +0.000 HD
ENDBRANCH   9  24
BRANCH  10  26
ATOM     26  O   UNL     1     -21.469  -6.576   9.013  0.00  0.00    +0.000 OA
ATOM     27  H   UNL     1     -21.169  -6.357   9.914  0.00  0.00    +0.000 HD
ENDBRANCH  10  26
TORSDOF 6
ENDMDL
MODEL 8
REMARK VINA RESULT:      -5.4     19.104     21.939
REMARK  Name = 5281698_sexangularetin.pdbqt.pdb
REMARK  6 active torsions:
REMARK  status: ('A' for Active; 'I' for Inactive)
REMARK    1  A    between atoms: C_5  and  C_12
REMARK    2  A    between atoms: C_6  and  O_20
REMARK    3  A    between atoms: C_8  and  O_22
REMARK    4  A    between atoms: C_9  and  O_24
REMARK    5  A    between atoms: C_10  and  O_26
REMARK    6  A    between atoms: C_17  and  O_18
REMARK                            x       y       z     vdW  Elec       q    Type
REMARK                         _______ _______ _______ _____ _____    ______ ____
ROOT
ATOM      1  O   UNL     1      -3.256  -4.265   2.040  0.00  0.00    +0.000 OA
ATOM      2  O   UNL     1      -5.909  -2.343  -0.343  0.00  0.00    +0.000 OA
ATOM      3  C   UNL     1      -4.929  -4.386   0.293  0.00  0.00    +0.000 A 
ATOM      4  C   UNL     1      -3.992  -4.985   1.133  0.00  0.00    +0.000 A 
ATOM      5  C   UNL     1      -3.394  -2.882   2.097  0.00  0.00    +0.000 A 
ATOM      6  C   UNL     1      -3.799  -6.372   1.074  0.00  0.00    +0.000 A 
ATOM      7  C   UNL     1      -5.098  -2.934   0.366  0.00  0.00    +0.000 A 
ATOM      8  C   UNL     1      -4.260  -2.191   1.333  0.00  0.00    +0.000 A 
ATOM      9  C   UNL     1      -5.691  -5.164  -0.586  0.00  0.00    +0.000 A 
ATOM     10  C   UNL     1      -4.593  -7.147   0.221  0.00  0.00    +0.000 A 
ATOM     11  C   UNL     1      -5.528  -6.546  -0.617  0.00  0.00    +0.000 A 
ENDROOT
BRANCH   5  12
ATOM     12  C   UNL     1      -2.505  -2.258   3.098  0.00  0.00    +0.000 A 
ATOM     13  C   UNL     1      -3.018  -1.894   4.349  0.00  0.00    +0.000 A 
ATOM     14  C   UNL     1      -1.138  -2.075   2.865  0.00  0.00    +0.000 A 
ATOM     15  C   UNL     1      -2.198  -1.342   5.332  0.00  0.00    +0.000 A 
ATOM     16  C   UNL     1      -0.307  -1.523   3.839  0.00  0.00    +0.000 A 
ATOM     17  C   UNL     1      -0.846  -1.160   5.066  0.00  0.00    +0.000 A 
BRANCH  17  18
ATOM     18  O   UNL     1      -0.017  -0.623   6.007  0.00  0.00    +0.000 OA
ATOM     19  H   UNL     1       0.901  -0.757   5.713  0.00  0.00    +0.000 HD
ENDBRANCH  17  18
ENDBRANCH   5  12
BRANCH   6  20
ATOM     20  O   UNL     1      -2.907  -7.005   1.907  0.00  0.00    +0.000 OA
ATOM     21  C   UNL     1      -1.615  -7.024   1.346  0.00  0.00    +0.000 C 
ENDBRANCH   6  20
BRANCH   8  22
ATOM     22  O   UNL     1      -4.443  -0.823   1.400  0.00  0.00    +0.000 OA
ATOM     23  H   UNL     1      -3.544  -0.438   1.473  0.00  0.00    +0.000 HD
ENDBRANCH   8  22
BRANCH   9  24
ATOM     24  O   UNL     1      -6.627  -4.639  -1.433  0.00  0.00    +0.000 OA
ATOM     25  H   UNL     1      -7.500  -4.631  -0.979  0.00  0.00    +0.000 HD
ENDBRANCH   9  24
BRANCH  10  26
ATOM     26  O   UNL     1      -4.464  -8.507   0.219  0.00  0.00    +0.000 OA
ATOM     27  H   UNL     1      -4.528  -8.825  -0.701  0.00  0.00    +0.000 HD
ENDBRANCH  10  26
TORSDOF 6
ENDMDL
MODEL 9
REMARK VINA RESULT:      -5.3     15.903     17.882
REMARK  Name = 5281698_sexangularetin.pdbqt.pdb
REMARK  6 active torsions:
REMARK  status: ('A' for Active; 'I' for Inactive)
REMARK    1  A    between atoms: C_5  and  C_12
REMARK    2  A    between atoms: C_6  and  O_20
REMARK    3  A    between atoms: C_8  and  O_22
REMARK    4  A    between atoms: C_9  and  O_24
REMARK    5  A    between atoms: C_10  and  O_26
REMARK    6  A    between atoms: C_17  and  O_18
REMARK                            x       y       z     vdW  Elec       q    Type
REMARK                         _______ _______ _______ _____ _____    ______ ____
ROOT
ATOM      1  O   UNL     1     -22.616  -4.019   8.879  0.00  0.00    +0.000 OA
ATOM      2  O   UNL     1     -21.925  -0.035   9.134  0.00  0.00    +0.000 OA
ATOM      3  C   UNL     1     -22.402  -1.882   7.757  0.00  0.00    +0.000 A 
ATOM      4  C   UNL     1     -22.621  -3.259   7.736  0.00  0.00    +0.000 A 
ATOM      5  C   UNL     1     -22.328  -3.423  10.101  0.00  0.00    +0.000 A 
ATOM      6  C   UNL     1     -22.876  -3.899   6.515  0.00  0.00    +0.000 A 
ATOM      7  C   UNL     1     -22.123  -1.244   9.044  0.00  0.00    +0.000 A 
ATOM      8  C   UNL     1     -22.093  -2.105  10.247  0.00  0.00    +0.000 A 
ATOM      9  C   UNL     1     -22.460  -1.138   6.573  0.00  0.00    +0.000 A 
ATOM     10  C   UNL     1     -22.971  -3.141   5.342  0.00  0.00    +0.000 A 
ATOM     11  C   UNL     1     -22.752  -1.766   5.367  0.00  0.00    +0.000 A 
ENDROOT
BRANCH   5  12
ATOM     12  C   UNL     1     -22.326  -4.384  11.223  0.00  0.00    +0.000 A 
ATOM     13  C   UNL     1     -21.173  -5.131  11.494  0.00  0.00    +0.000 A 
ATOM     14  C   UNL     1     -23.424  -4.530  12.076  0.00  0.00    +0.000 A 
ATOM     15  C   UNL     1     -21.123  -6.015  12.569  0.00  0.00    +0.000 A 
ATOM     16  C   UNL     1     -23.389  -5.413  13.154  0.00  0.00    +0.000 A 
ATOM     17  C   UNL     1     -22.235  -6.149  13.392  0.00  0.00    +0.000 A 
BRANCH  17  18
ATOM     18  O   UNL     1     -22.218  -7.006  14.453  0.00  0.00    +0.000 OA
ATOM     19  H   UNL     1     -21.326  -6.991  14.841  0.00  0.00    +0.000 HD
ENDBRANCH  17  18
ENDBRANCH   5  12
BRANCH   6  20
ATOM     20  O   UNL     1     -23.127  -5.248   6.455  0.00  0.00    +0.000 OA
ATOM     21  C   UNL     1     -21.938  -5.978   6.261  0.00  0.00    +0.000 C 
ENDBRANCH   6  20
BRANCH   8  22
ATOM     22  O   UNL     1     -21.844  -1.484  11.456  0.00  0.00    +0.000 OA
ATOM     23  H   UNL     1     -22.251  -2.058  12.139  0.00  0.00    +0.000 HD
ENDBRANCH   8  22
BRANCH   9  24
ATOM     24  O   UNL     1     -22.257   0.214   6.526  0.00  0.00    +0.000 OA
ATOM     25  H   UNL     1     -21.409   0.425   6.978  0.00  0.00    +0.000 HD
ENDBRANCH   9  24
BRANCH  10  26
ATOM     26  O   UNL     1     -23.299  -3.749   4.163  0.00  0.00    +0.000 OA
ATOM     27  H   UNL     1     -22.884  -3.256   3.432  0.00  0.00    +0.000 HD
ENDBRANCH  10  26
TORSDOF 6
ENDMDL
