MODEL 1
REMARK VINA RESULT:      -7.3      0.000      0.000
REMARK  Name = 5281239_Fucoxanthin.pdbqt.pdb
REMARK  19 active torsions:
REMARK  status: ('A' for Active; 'I' for Inactive)
REMARK    1  A    between atoms: C_1  and  C_5
REMARK    2  A    between atoms: C_2  and  C_26
REMARK    3  A    between atoms: C_3  and  C_5
REMARK    4  A    between atoms: C_3  and  C_7
REMARK    5  A    between atoms: C_6  and  C_10
REMARK    6  A    between atoms: C_8  and  C_10
REMARK    7  A    between atoms: C_8  and  C_12
REMARK    8  A    between atoms: C_12  and  C_13
REMARK    9  A    between atoms: C_13  and  C_15
REMARK   10  A    between atoms: C_20  and  O_24
REMARK   11  A    between atoms: C_26  and  C_27
REMARK   12  A    between atoms: C_27  and  C_30
REMARK   13  A    between atoms: C_29  and  C_33
REMARK   14  A    between atoms: C_31  and  C_33
REMARK   15  A    between atoms: C_31  and  C_44
REMARK   16  A    between atoms: C_35  and  O_45
REMARK   17  A    between atoms: C_37  and  O_47
REMARK   18  A    between atoms: C_39  and  C_43
REMARK   19  A    between atoms: O_47  and  C_49
REMARK                            x       y       z     vdW  Elec       q    Type
REMARK                         _______ _______ _______ _____ _____    ______ ____
ROOT
ATOM      1  C   UNL     1     -18.186   0.558  22.125  0.00  0.00    +0.000 C 
ATOM      2  C   UNL     1     -18.943   0.753  21.215  0.00  0.00    +0.000 C 
ENDROOT
BRANCH   2   3
ATOM      3  C   UNL     1     -19.915   1.005  20.055  0.00  0.00    +0.000 C 
BRANCH   3   4
ATOM      4  C   UNL     1     -20.734   1.216  19.073  0.00  0.00    +0.000 C 
ATOM      5  C   UNL     1     -20.671   2.504  18.311  0.00  0.00    +0.000 C 
BRANCH   4   7
ATOM      6  C   UNL     1     -22.427  -0.649  18.365  0.00  0.00    +0.000 C 
ATOM      7  C   UNL     1     -21.651   0.208  18.691  0.00  0.00    +0.000 C 
BRANCH   6   8
ATOM      8  C   UNL     1     -23.414  -1.746  17.952  0.00  0.00    +0.000 C 
BRANCH   8   9
ATOM      9  C   UNL     1     -24.247  -2.680  17.611  0.00  0.00    +0.000 C 
ATOM     10  C   UNL     1     -25.285  -3.155  18.581  0.00  0.00    +0.000 C 
BRANCH   9  12
ATOM     11  C   UNL     1     -23.977  -3.881  15.298  0.00  0.00    +0.000 C 
ATOM     12  C   UNL     1     -24.101  -3.332  16.361  0.00  0.00    +0.000 C 
BRANCH  11  18
ATOM     13  C   UNL     1     -24.738  -4.141  12.925  0.00  0.00    +0.000 C 
ATOM     14  C   UNL     1     -22.828  -5.592  13.930  0.00  0.00    +0.000 C 
ATOM     15  C   UNL     1     -24.201  -4.718  11.686  0.00  0.00    +0.000 C 
ATOM     16  C   UNL     1     -23.162  -5.573  11.269  0.00  0.00    +0.000 C 
ATOM     17  C   UNL     1     -22.597  -5.890  12.521  0.00  0.00    +0.000 C 
ATOM     18  C   UNL     1     -23.845  -4.480  14.131  0.00  0.00    +0.000 C 
ATOM     19  C   UNL     1     -26.163  -4.694  13.194  0.00  0.00    +0.000 C 
ATOM     20  C   UNL     1     -24.795  -2.592  12.753  0.00  0.00    +0.000 C 
ATOM     21  C   UNL     1     -23.232  -6.849  14.707  0.00  0.00    +0.000 C 
BRANCH  14  22
ATOM     22  O   UNL     1     -21.595  -5.199  14.491  0.00  0.00    +0.000 OA
ATOM     23  H   UNL     1     -21.103  -4.916  13.699  0.00  0.00    +0.000 HD
ENDBRANCH  14  22
BRANCH  16  24
ATOM     24  O   UNL     1     -23.438  -6.575  10.348  0.00  0.00    +0.000 OA
BRANCH  24  26
ATOM     25  O   UNL     1     -21.758  -7.962   9.477  0.00  0.00    +0.000 OA
ATOM     26  C   UNL     1     -22.314  -6.895   9.660  0.00  0.00    +0.000 C 
ATOM     27  C   UNL     1     -21.636  -5.731   9.027  0.00  0.00    +0.000 C 
ENDBRANCH  24  26
ENDBRANCH  16  24
ENDBRANCH  11  18
ENDBRANCH   9  12
ENDBRANCH   8   9
ENDBRANCH   6   8
ENDBRANCH   4   7
ENDBRANCH   3   4
ENDBRANCH   2   3
BRANCH   1  28
ATOM     28  C   UNL     1     -17.226   0.315  23.295  0.00  0.00    +0.000 C 
BRANCH  28  29
ATOM     29  C   UNL     1     -16.406   0.113  24.277  0.00  0.00    +0.000 C 
ATOM     30  C   UNL     1     -16.840   0.388  25.685  0.00  0.00    +0.000 C 
BRANCH  29  32
ATOM     31  C   UNL     1     -13.965  -0.696  23.795  0.00  0.00    +0.000 C 
ATOM     32  C   UNL     1     -15.088  -0.331  24.013  0.00  0.00    +0.000 C 
BRANCH  31  33
ATOM     33  C   UNL     1     -12.525  -1.148  23.523  0.00  0.00    +0.000 C 
BRANCH  33  34
ATOM     34  C   UNL     1     -11.308  -1.539  23.288  0.00  0.00    +0.000 C 
ATOM     35  C   UNL     1     -10.572  -2.206  24.433  0.00  0.00    +0.000 C 
BRANCH  34  37
ATOM     36  O   UNL     1     -10.384  -0.159  21.570  0.00  0.00    +0.000 OA
ATOM     37  C   UNL     1     -10.675  -1.287  21.957  0.00  0.00    +0.000 C 
BRANCH  37  38
ATOM     38  C   UNL     1     -10.373  -2.376  21.060  0.00  0.00    +0.000 C 
BRANCH  38  40
ATOM     39  O   UNL     1     -11.293  -3.803  19.398  0.00  0.00    +0.000 OA
ATOM     40  C   UNL     1     -10.088  -3.456  20.133  0.00  0.00    +0.000 C 
ATOM     41  C   UNL     1     -10.255  -3.213  18.618  0.00  0.00    +0.000 C 
ATOM     42  C   UNL     1      -9.178  -4.651  20.594  0.00  0.00    +0.000 C 
ATOM     43  C   UNL     1      -9.644  -4.153  17.735  0.00  0.00    +0.000 C 
ATOM     44  C   UNL     1      -8.829  -5.410  19.391  0.00  0.00    +0.000 C 
ATOM     45  C   UNL     1      -8.919  -5.330  17.988  0.00  0.00    +0.000 C 
ATOM     46  C   UNL     1     -10.637  -1.852  18.030  0.00  0.00    +0.000 C 
ATOM     47  C   UNL     1      -7.925  -3.997  21.225  0.00  0.00    +0.000 C 
ATOM     48  C   UNL     1     -10.012  -5.447  21.622  0.00  0.00    +0.000 C 
BRANCH  45  49
ATOM     49  O   UNL     1      -7.906  -5.759  17.185  0.00  0.00    +0.000 OA
ATOM     50  H   UNL     1      -7.091  -5.239  17.306  0.00  0.00    +0.000 HD
ENDBRANCH  45  49
ENDBRANCH  38  40
ENDBRANCH  37  38
ENDBRANCH  34  37
ENDBRANCH  33  34
ENDBRANCH  31  33
ENDBRANCH  29  32
ENDBRANCH  28  29
ENDBRANCH   1  28
TORSDOF 19
ENDMDL
MODEL 2
REMARK VINA RESULT:      -6.0     18.615     21.312
REMARK  Name = 5281239_Fucoxanthin.pdbqt.pdb
REMARK  19 active torsions:
REMARK  status: ('A' for Active; 'I' for Inactive)
REMARK    1  A    between atoms: C_1  and  C_5
REMARK    2  A    between atoms: C_2  and  C_26
REMARK    3  A    between atoms: C_3  and  C_5
REMARK    4  A    between atoms: C_3  and  C_7
REMARK    5  A    between atoms: C_6  and  C_10
REMARK    6  A    between atoms: C_8  and  C_10
REMARK    7  A    between atoms: C_8  and  C_12
REMARK    8  A    between atoms: C_12  and  C_13
REMARK    9  A    between atoms: C_13  and  C_15
REMARK   10  A    between atoms: C_20  and  O_24
REMARK   11  A    between atoms: C_26  and  C_27
REMARK   12  A    between atoms: C_27  and  C_30
REMARK   13  A    between atoms: C_29  and  C_33
REMARK   14  A    between atoms: C_31  and  C_33
REMARK   15  A    between atoms: C_31  and  C_44
REMARK   16  A    between atoms: C_35  and  O_45
REMARK   17  A    between atoms: C_37  and  O_47
REMARK   18  A    between atoms: C_39  and  C_43
REMARK   19  A    between atoms: O_47  and  C_49
REMARK                            x       y       z     vdW  Elec       q    Type
REMARK                         _______ _______ _______ _____ _____    ______ ____
ROOT
ATOM      1  C   UNL     1     -11.006  -6.984  -2.311  0.00  0.00    +0.000 C 
ATOM      2  C   UNL     1     -11.692  -6.195  -2.900  0.00  0.00    +0.000 C 
ENDROOT
BRANCH   2   3
ATOM      3  C   UNL     1     -12.574  -5.192  -3.653  0.00  0.00    +0.000 C 
BRANCH   3   4
ATOM      4  C   UNL     1     -13.318  -4.346  -4.293  0.00  0.00    +0.000 C 
ATOM      5  C   UNL     1     -12.950  -3.931  -5.686  0.00  0.00    +0.000 C 
BRANCH   4   7
ATOM      6  C   UNL     1     -15.509  -3.440  -3.187  0.00  0.00    +0.000 C 
ATOM      7  C   UNL     1     -14.503  -3.855  -3.696  0.00  0.00    +0.000 C 
BRANCH   6   8
ATOM      8  C   UNL     1     -16.791  -2.913  -2.532  0.00  0.00    +0.000 C 
BRANCH   8   9
ATOM      9  C   UNL     1     -17.874  -2.473  -1.972  0.00  0.00    +0.000 C 
ATOM     10  C   UNL     1     -19.001  -3.413  -1.669  0.00  0.00    +0.000 C 
BRANCH   9  12
ATOM     11  C   UNL     1     -18.176   0.096  -1.559  0.00  0.00    +0.000 C 
ATOM     12  C   UNL     1     -18.039  -1.083  -1.751  0.00  0.00    +0.000 C 
BRANCH  11  18
ATOM     13  C   UNL     1     -19.592   2.152  -1.783  0.00  0.00    +0.000 C 
ATOM     14  C   UNL     1     -17.230   2.213  -0.694  0.00  0.00    +0.000 C 
ATOM     15  C   UNL     1     -19.646   3.486  -1.170  0.00  0.00    +0.000 C 
ATOM     16  C   UNL     1     -18.848   4.327  -0.371  0.00  0.00    +0.000 C 
ATOM     17  C   UNL     1     -17.703   3.515  -0.240  0.00  0.00    +0.000 C 
ATOM     18  C   UNL     1     -18.330   1.388  -1.344  0.00  0.00    +0.000 C 
ATOM     19  C   UNL     1     -19.580   2.278  -3.330  0.00  0.00    +0.000 C 
ATOM     20  C   UNL     1     -20.853   1.357  -1.326  0.00  0.00    +0.000 C 
ATOM     21  C   UNL     1     -16.026   2.351  -1.630  0.00  0.00    +0.000 C 
BRANCH  14  22
ATOM     22  O   UNL     1     -16.737   1.521   0.432  0.00  0.00    +0.000 OA
ATOM     23  H   UNL     1     -15.917   1.131   0.076  0.00  0.00    +0.000 HD
ENDBRANCH  14  22
BRANCH  16  24
ATOM     24  O   UNL     1     -18.725   5.668  -0.713  0.00  0.00    +0.000 OA
BRANCH  24  26
ATOM     25  O   UNL     1     -20.571   7.049  -0.284  0.00  0.00    +0.000 OA
ATOM     26  C   UNL     1     -19.580   6.416   0.027  0.00  0.00    +0.000 C 
ATOM     27  C   UNL     1     -19.235   6.481   1.473  0.00  0.00    +0.000 C 
ENDBRANCH  24  26
ENDBRANCH  16  24
ENDBRANCH  11  18
ENDBRANCH   9  12
ENDBRANCH   8   9
ENDBRANCH   6   8
ENDBRANCH   4   7
ENDBRANCH   3   4
ENDBRANCH   2   3
BRANCH   1  28
ATOM     28  C   UNL     1     -10.137  -8.000  -1.560  0.00  0.00    +0.000 C 
BRANCH  28  29
ATOM     29  C   UNL     1      -9.410  -8.866  -0.928  0.00  0.00    +0.000 C 
ATOM     30  C   UNL     1      -9.881 -10.281  -0.790  0.00  0.00    +0.000 C 
BRANCH  29  32
ATOM     31  C   UNL     1      -7.155  -8.129   0.175  0.00  0.00    +0.000 C 
ATOM     32  C   UNL     1      -8.189  -8.462  -0.338  0.00  0.00    +0.000 C 
BRANCH  31  33
ATOM     33  C   UNL     1      -5.838  -7.712   0.841  0.00  0.00    +0.000 C 
BRANCH  33  34
ATOM     34  C   UNL     1      -4.718  -7.360   1.398  0.00  0.00    +0.000 C 
ATOM     35  C   UNL     1      -4.695  -7.306   2.912  0.00  0.00    +0.000 C 
BRANCH  34  37
ATOM     36  O   UNL     1      -3.215  -7.624  -0.441  0.00  0.00    +0.000 OA
ATOM     37  C   UNL     1      -3.538  -6.988   0.557  0.00  0.00    +0.000 C 
BRANCH  37  38
ATOM     38  C   UNL     1      -2.721  -5.845   0.889  0.00  0.00    +0.000 C 
BRANCH  38  40
ATOM     39  O   UNL     1      -2.507  -3.496   0.602  0.00  0.00    +0.000 OA
ATOM     40  C   UNL     1      -1.906  -4.684   1.190  0.00  0.00    +0.000 C 
ATOM     41  C   UNL     1      -2.509  -3.536   2.028  0.00  0.00    +0.000 C 
ATOM     42  C   UNL     1      -0.342  -4.793   1.104  0.00  0.00    +0.000 C 
ATOM     43  C   UNL     1      -1.598  -2.594   2.594  0.00  0.00    +0.000 C 
ATOM     44  C   UNL     1       0.206  -3.591   1.737  0.00  0.00    +0.000 C 
ATOM     45  C   UNL     1      -0.200  -2.481   2.502  0.00  0.00    +0.000 C 
ATOM     46  C   UNL     1      -3.915  -3.595   2.631  0.00  0.00    +0.000 C 
ATOM     47  C   UNL     1       0.028  -6.064   1.907  0.00  0.00    +0.000 C 
ATOM     48  C   UNL     1      -0.006  -4.924  -0.398  0.00  0.00    +0.000 C 
BRANCH  45  49
ATOM     49  O   UNL     1       0.568  -1.997   3.516  0.00  0.00    +0.000 OA
ATOM     50  H   UNL     1       1.503  -1.901   3.261  0.00  0.00    +0.000 HD
ENDBRANCH  45  49
ENDBRANCH  38  40
ENDBRANCH  37  38
ENDBRANCH  34  37
ENDBRANCH  33  34
ENDBRANCH  31  33
ENDBRANCH  29  32
ENDBRANCH  28  29
ENDBRANCH   1  28
TORSDOF 19
ENDMDL
MODEL 3
REMARK VINA RESULT:      -5.9     10.491     12.789
REMARK  Name = 5281239_Fucoxanthin.pdbqt.pdb
REMARK  19 active torsions:
REMARK  status: ('A' for Active; 'I' for Inactive)
REMARK    1  A    between atoms: C_1  and  C_5
REMARK    2  A    between atoms: C_2  and  C_26
REMARK    3  A    between atoms: C_3  and  C_5
REMARK    4  A    between atoms: C_3  and  C_7
REMARK    5  A    between atoms: C_6  and  C_10
REMARK    6  A    between atoms: C_8  and  C_10
REMARK    7  A    between atoms: C_8  and  C_12
REMARK    8  A    between atoms: C_12  and  C_13
REMARK    9  A    between atoms: C_13  and  C_15
REMARK   10  A    between atoms: C_20  and  O_24
REMARK   11  A    between atoms: C_26  and  C_27
REMARK   12  A    between atoms: C_27  and  C_30
REMARK   13  A    between atoms: C_29  and  C_33
REMARK   14  A    between atoms: C_31  and  C_33
REMARK   15  A    between atoms: C_31  and  C_44
REMARK   16  A    between atoms: C_35  and  O_45
REMARK   17  A    between atoms: C_37  and  O_47
REMARK   18  A    between atoms: C_39  and  C_43
REMARK   19  A    between atoms: O_47  and  C_49
REMARK                            x       y       z     vdW  Elec       q    Type
REMARK                         _______ _______ _______ _____ _____    ______ ____
ROOT
ATOM      1  C   UNL     1      -9.363  -4.054  22.713  0.00  0.00    +0.000 C 
ATOM      2  C   UNL     1      -9.335  -4.912  23.551  0.00  0.00    +0.000 C 
ENDROOT
BRANCH   2   3
ATOM      3  C   UNL     1      -9.303  -6.005  24.626  0.00  0.00    +0.000 C 
BRANCH   3   4
ATOM      4  C   UNL     1      -9.280  -6.927  25.536  0.00  0.00    +0.000 C 
ATOM      5  C   UNL     1      -7.991  -7.273  26.218  0.00  0.00    +0.000 C 
BRANCH   4   7
ATOM      6  C   UNL     1     -11.498  -8.119  26.246  0.00  0.00    +0.000 C 
ATOM      7  C   UNL     1     -10.481  -7.571  25.920  0.00  0.00    +0.000 C 
BRANCH   6   8
ATOM      8  C   UNL     1     -12.794  -8.823  26.664  0.00  0.00    +0.000 C 
BRANCH   8   9
ATOM      9  C   UNL     1     -13.886  -9.421  27.027  0.00  0.00    +0.000 C 
ATOM     10  C   UNL     1     -14.561  -9.045  28.310  0.00  0.00    +0.000 C 
BRANCH   9  12
ATOM     11  C   UNL     1     -14.800 -11.433  25.619  0.00  0.00    +0.000 C 
ATOM     12  C   UNL     1     -14.378 -10.511  26.266  0.00  0.00    +0.000 C 
BRANCH  11  18
ATOM     13  C   UNL     1     -16.289 -12.252  23.777  0.00  0.00    +0.000 C 
ATOM     14  C   UNL     1     -14.854 -13.874  25.219  0.00  0.00    +0.000 C 
ATOM     15  C   UNL     1     -16.414 -13.468  22.963  0.00  0.00    +0.000 C 
ATOM     16  C   UNL     1     -15.953 -14.799  22.954  0.00  0.00    +0.000 C 
ATOM     17  C   UNL     1     -15.195 -14.796  24.143  0.00  0.00    +0.000 C 
ATOM     18  C   UNL     1     -15.266 -12.442  24.911  0.00  0.00    +0.000 C 
ATOM     19  C   UNL     1     -17.661 -11.890  24.406  0.00  0.00    +0.000 C 
ATOM     20  C   UNL     1     -15.810 -11.094  22.848  0.00  0.00    +0.000 C 
ATOM     21  C   UNL     1     -15.442 -14.335  26.557  0.00  0.00    +0.000 C 
BRANCH  14  22
ATOM     22  O   UNL     1     -13.457 -13.924  25.400  0.00  0.00    +0.000 OA
ATOM     23  H   UNL     1     -13.311 -13.168  25.998  0.00  0.00    +0.000 HD
ENDBRANCH  14  22
BRANCH  16  24
ATOM     24  O   UNL     1     -16.852 -15.825  22.695  0.00  0.00    +0.000 OA
BRANCH  24  26
ATOM     25  O   UNL     1     -15.709 -16.158  20.673  0.00  0.00    +0.000 OA
ATOM     26  C   UNL     1     -16.550 -16.418  21.513  0.00  0.00    +0.000 C 
ATOM     27  C   UNL     1     -17.408 -17.589  21.184  0.00  0.00    +0.000 C 
ENDBRANCH  24  26
ENDBRANCH  16  24
ENDBRANCH  11  18
ENDBRANCH   9  12
ENDBRANCH   8   9
ENDBRANCH   6   8
ENDBRANCH   4   7
ENDBRANCH   3   4
ENDBRANCH   2   3
BRANCH   1  28
ATOM     28  C   UNL     1      -9.404  -2.950  21.650  0.00  0.00    +0.000 C 
BRANCH  28  29
ATOM     29  C   UNL     1      -9.438  -2.026  20.743  0.00  0.00    +0.000 C 
ATOM     30  C   UNL     1     -10.125  -2.282  19.436  0.00  0.00    +0.000 C 
BRANCH  29  32
ATOM     31  C   UNL     1      -8.234   0.260  21.160  0.00  0.00    +0.000 C 
ATOM     32  C   UNL     1      -8.790  -0.789  20.975  0.00  0.00    +0.000 C 
BRANCH  31  33
ATOM     33  C   UNL     1      -7.514   1.595  21.382  0.00  0.00    +0.000 C 
BRANCH  33  34
ATOM     34  C   UNL     1      -6.900   2.724  21.578  0.00  0.00    +0.000 C 
ATOM     35  C   UNL     1      -7.764   3.919  21.928  0.00  0.00    +0.000 C 
BRANCH  34  37
ATOM     36  O   UNL     1      -4.876   3.770  20.859  0.00  0.00    +0.000 OA
ATOM     37  C   UNL     1      -5.417   2.818  21.412  0.00  0.00    +0.000 C 
BRANCH  37  38
ATOM     38  C   UNL     1      -4.548   1.778  21.908  0.00  0.00    +0.000 C 
BRANCH  38  40
ATOM     39  O   UNL     1      -2.987   0.092  21.303  0.00  0.00    +0.000 OA
ATOM     40  C   UNL     1      -3.701   0.711  22.408  0.00  0.00    +0.000 C 
ATOM     41  C   UNL     1      -2.172   0.813  22.225  0.00  0.00    +0.000 C 
ATOM     42  C   UNL     1      -4.250  -0.255  23.518  0.00  0.00    +0.000 C 
ATOM     43  C   UNL     1      -1.361  -0.052  23.018  0.00  0.00    +0.000 C 
ATOM     44  C   UNL     1      -3.105  -1.015  24.026  0.00  0.00    +0.000 C 
ATOM     45  C   UNL     1      -1.699  -1.051  23.948  0.00  0.00    +0.000 C 
ATOM     46  C   UNL     1      -1.488   2.034  21.603  0.00  0.00    +0.000 C 
ATOM     47  C   UNL     1      -4.839   0.666  24.613  0.00  0.00    +0.000 C 
ATOM     48  C   UNL     1      -5.328  -1.123  22.831  0.00  0.00    +0.000 C 
BRANCH  45  49
ATOM     49  O   UNL     1      -0.934  -1.333  25.038  0.00  0.00    +0.000 OA
ATOM     50  H   UNL     1      -1.021  -2.260  25.323  0.00  0.00    +0.000 HD
ENDBRANCH  45  49
ENDBRANCH  38  40
ENDBRANCH  37  38
ENDBRANCH  34  37
ENDBRANCH  33  34
ENDBRANCH  31  33
ENDBRANCH  29  32
ENDBRANCH  28  29
ENDBRANCH   1  28
TORSDOF 19
ENDMDL
MODEL 4
REMARK VINA RESULT:      -5.8     11.469     19.795
REMARK  Name = 5281239_Fucoxanthin.pdbqt.pdb
REMARK  19 active torsions:
REMARK  status: ('A' for Active; 'I' for Inactive)
REMARK    1  A    between atoms: C_1  and  C_5
REMARK    2  A    between atoms: C_2  and  C_26
REMARK    3  A    between atoms: C_3  and  C_5
REMARK    4  A    between atoms: C_3  and  C_7
REMARK    5  A    between atoms: C_6  and  C_10
REMARK    6  A    between atoms: C_8  and  C_10
REMARK    7  A    between atoms: C_8  and  C_12
REMARK    8  A    between atoms: C_12  and  C_13
REMARK    9  A    between atoms: C_13  and  C_15
REMARK   10  A    between atoms: C_20  and  O_24
REMARK   11  A    between atoms: C_26  and  C_27
REMARK   12  A    between atoms: C_27  and  C_30
REMARK   13  A    between atoms: C_29  and  C_33
REMARK   14  A    between atoms: C_31  and  C_33
REMARK   15  A    between atoms: C_31  and  C_44
REMARK   16  A    between atoms: C_35  and  O_45
REMARK   17  A    between atoms: C_37  and  O_47
REMARK   18  A    between atoms: C_39  and  C_43
REMARK   19  A    between atoms: O_47  and  C_49
REMARK                            x       y       z     vdW  Elec       q    Type
REMARK                         _______ _______ _______ _____ _____    ______ ____
ROOT
ATOM      1  C   UNL     1     -20.693  -5.667   1.054  0.00  0.00    +0.000 C 
ATOM      2  C   UNL     1     -19.958  -5.336   0.165  0.00  0.00    +0.000 C 
ENDROOT
BRANCH   2   3
ATOM      3  C   UNL     1     -19.016  -4.919  -0.970  0.00  0.00    +0.000 C 
BRANCH   3   4
ATOM      4  C   UNL     1     -18.219  -4.571  -1.931  0.00  0.00    +0.000 C 
ATOM      5  C   UNL     1     -18.087  -5.441  -3.144  0.00  0.00    +0.000 C 
BRANCH   4   7
ATOM      6  C   UNL     1     -16.917  -2.306  -1.789  0.00  0.00    +0.000 C 
ATOM      7  C   UNL     1     -17.515  -3.345  -1.856  0.00  0.00    +0.000 C 
BRANCH   6   8
ATOM      8  C   UNL     1     -16.148  -0.983  -1.703  0.00  0.00    +0.000 C 
BRANCH   8   9
ATOM      9  C   UNL     1     -15.506   0.142  -1.635  0.00  0.00    +0.000 C 
ATOM     10  C   UNL     1     -16.254   1.439  -1.643  0.00  0.00    +0.000 C 
BRANCH   9  12
ATOM     11  C   UNL     1     -12.887   0.150  -1.707  0.00  0.00    +0.000 C 
ATOM     12  C   UNL     1     -14.089   0.146  -1.671  0.00  0.00    +0.000 C 
BRANCH  11  18
ATOM     13  C   UNL     1     -10.783   0.646  -2.975  0.00  0.00    +0.000 C 
ATOM     14  C   UNL     1     -10.747  -0.401  -0.594  0.00  0.00    +0.000 C 
ATOM     15  C   UNL     1      -9.359   0.822  -2.660  0.00  0.00    +0.000 C 
ATOM     16  C   UNL     1      -8.464   0.587  -1.599  0.00  0.00    +0.000 C 
ATOM     17  C   UNL     1      -9.343  -0.013  -0.674  0.00  0.00    +0.000 C 
ATOM     18  C   UNL     1     -11.569   0.150  -1.749  0.00  0.00    +0.000 C 
ATOM     19  C   UNL     1     -10.949  -0.390  -4.120  0.00  0.00    +0.000 C 
ATOM     20  C   UNL     1     -11.355   2.026  -3.423  0.00  0.00    +0.000 C 
ATOM     21  C   UNL     1     -10.901  -1.921  -0.490  0.00  0.00    +0.000 C 
BRANCH  14  22
ATOM     22  O   UNL     1     -11.261   0.101   0.620  0.00  0.00    +0.000 OA
ATOM     23  H   UNL     1     -12.191  -0.186   0.569  0.00  0.00    +0.000 HD
ENDBRANCH  14  22
BRANCH  16  24
ATOM     24  O   UNL     1      -7.229   0.012  -1.869  0.00  0.00    +0.000 OA
BRANCH  24  26
ATOM     25  O   UNL     1      -6.154   0.875   0.029  0.00  0.00    +0.000 OA
ATOM     26  C   UNL     1      -6.471  -0.009  -0.745  0.00  0.00    +0.000 C 
ATOM     27  C   UNL     1      -5.921  -1.350  -0.407  0.00  0.00    +0.000 C 
ENDBRANCH  24  26
ENDBRANCH  16  24
ENDBRANCH  11  18
ENDBRANCH   9  12
ENDBRANCH   8   9
ENDBRANCH   6   8
ENDBRANCH   4   7
ENDBRANCH   3   4
ENDBRANCH   2   3
BRANCH   1  28
ATOM     28  C   UNL     1     -21.627  -6.099   2.191  0.00  0.00    +0.000 C 
BRANCH  28  29
ATOM     29  C   UNL     1     -22.421  -6.470   3.144  0.00  0.00    +0.000 C 
ATOM     30  C   UNL     1     -23.752  -7.077   2.817  0.00  0.00    +0.000 C 
BRANCH  29  32
ATOM     31  C   UNL     1     -21.737  -6.102   5.642  0.00  0.00    +0.000 C 
ATOM     32  C   UNL     1     -22.045  -6.266   4.493  0.00  0.00    +0.000 C 
BRANCH  31  33
ATOM     33  C   UNL     1     -21.356  -5.901   7.114  0.00  0.00    +0.000 C 
BRANCH  33  34
ATOM     34  C   UNL     1     -21.039  -5.725   8.362  0.00  0.00    +0.000 C 
ATOM     35  C   UNL     1     -19.843  -4.838   8.644  0.00  0.00    +0.000 C 
BRANCH  34  37
ATOM     36  O   UNL     1     -21.950  -7.633   9.474  0.00  0.00    +0.000 OA
ATOM     37  C   UNL     1     -21.807  -6.415   9.444  0.00  0.00    +0.000 C 
BRANCH  37  38
ATOM     38  C   UNL     1     -22.420  -5.665  10.514  0.00  0.00    +0.000 C 
BRANCH  38  40
ATOM     39  O   UNL     1     -23.905  -5.814  12.362  0.00  0.00    +0.000 OA
ATOM     40  C   UNL     1     -23.067  -4.921  11.578  0.00  0.00    +0.000 C 
ATOM     41  C   UNL     1     -22.768  -5.291  13.046  0.00  0.00    +0.000 C 
ATOM     42  C   UNL     1     -23.650  -3.493  11.280  0.00  0.00    +0.000 C 
ATOM     43  C   UNL     1     -23.131  -4.339  14.046  0.00  0.00    +0.000 C 
ATOM     44  C   UNL     1     -23.960  -2.880  12.573  0.00  0.00    +0.000 C 
ATOM     45  C   UNL     1     -23.771  -3.091  13.953  0.00  0.00    +0.000 C 
ATOM     46  C   UNL     1     -21.752  -6.365  13.444  0.00  0.00    +0.000 C 
ATOM     47  C   UNL     1     -22.517  -2.727  10.556  0.00  0.00    +0.000 C 
ATOM     48  C   UNL     1     -24.883  -3.718  10.376  0.00  0.00    +0.000 C 
BRANCH  45  49
ATOM     49  O   UNL     1     -23.502  -2.060  14.800  0.00  0.00    +0.000 OA
ATOM     50  H   UNL     1     -24.279  -1.799  15.326  0.00  0.00    +0.000 HD
ENDBRANCH  45  49
ENDBRANCH  38  40
ENDBRANCH  37  38
ENDBRANCH  34  37
ENDBRANCH  33  34
ENDBRANCH  31  33
ENDBRANCH  29  32
ENDBRANCH  28  29
ENDBRANCH   1  28
TORSDOF 19
ENDMDL
MODEL 5
REMARK VINA RESULT:      -5.8      5.187      6.535
REMARK  Name = 5281239_Fucoxanthin.pdbqt.pdb
REMARK  19 active torsions:
REMARK  status: ('A' for Active; 'I' for Inactive)
REMARK    1  A    between atoms: C_1  and  C_5
REMARK    2  A    between atoms: C_2  and  C_26
REMARK    3  A    between atoms: C_3  and  C_5
REMARK    4  A    between atoms: C_3  and  C_7
REMARK    5  A    between atoms: C_6  and  C_10
REMARK    6  A    between atoms: C_8  and  C_10
REMARK    7  A    between atoms: C_8  and  C_12
REMARK    8  A    between atoms: C_12  and  C_13
REMARK    9  A    between atoms: C_13  and  C_15
REMARK   10  A    between atoms: C_20  and  O_24
REMARK   11  A    between atoms: C_26  and  C_27
REMARK   12  A    between atoms: C_27  and  C_30
REMARK   13  A    between atoms: C_29  and  C_33
REMARK   14  A    between atoms: C_31  and  C_33
REMARK   15  A    between atoms: C_31  and  C_44
REMARK   16  A    between atoms: C_35  and  O_45
REMARK   17  A    between atoms: C_37  and  O_47
REMARK   18  A    between atoms: C_39  and  C_43
REMARK   19  A    between atoms: O_47  and  C_49
REMARK                            x       y       z     vdW  Elec       q    Type
REMARK                         _______ _______ _______ _____ _____    ______ ____
ROOT
ATOM      1  C   UNL     1     -16.588   0.191  22.661  0.00  0.00    +0.000 C 
ATOM      2  C   UNL     1     -17.557   0.538  22.043  0.00  0.00    +0.000 C 
ENDROOT
BRANCH   2   3
ATOM      3  C   UNL     1     -18.798   0.976  21.257  0.00  0.00    +0.000 C 
BRANCH   3   4
ATOM      4  C   UNL     1     -19.849   1.343  20.594  0.00  0.00    +0.000 C 
ATOM      5  C   UNL     1     -21.214   0.978  21.093  0.00  0.00    +0.000 C 
BRANCH   4   7
ATOM      6  C   UNL     1     -19.584   2.799  18.436  0.00  0.00    +0.000 C 
ATOM      7  C   UNL     1     -19.707   2.131  19.427  0.00  0.00    +0.000 C 
BRANCH   6   8
ATOM      8  C   UNL     1     -19.423   3.649  17.170  0.00  0.00    +0.000 C 
BRANCH   8   9
ATOM      9  C   UNL     1     -19.292   4.375  16.104  0.00  0.00    +0.000 C 
ATOM     10  C   UNL     1     -18.424   5.596  16.126  0.00  0.00    +0.000 C 
BRANCH   9  12
ATOM     11  C   UNL     1     -20.720   3.833  13.975  0.00  0.00    +0.000 C 
ATOM     12  C   UNL     1     -20.062   4.080  14.952  0.00  0.00    +0.000 C 
BRANCH  11  18
ATOM     13  C   UNL     1     -22.925   3.964  12.792  0.00  0.00    +0.000 C 
ATOM     14  C   UNL     1     -20.863   2.774  11.744  0.00  0.00    +0.000 C 
ATOM     15  C   UNL     1     -23.410   3.817  11.413  0.00  0.00    +0.000 C 
ATOM     16  C   UNL     1     -22.963   3.330  10.170  0.00  0.00    +0.000 C 
ATOM     17  C   UNL     1     -21.685   2.865  10.543  0.00  0.00    +0.000 C 
ATOM     18  C   UNL     1     -21.444   3.561  12.908  0.00  0.00    +0.000 C 
ATOM     19  C   UNL     1     -23.758   3.066  13.746  0.00  0.00    +0.000 C 
ATOM     20  C   UNL     1     -23.080   5.460  13.204  0.00  0.00    +0.000 C 
ATOM     21  C   UNL     1     -20.613   1.316  12.140  0.00  0.00    +0.000 C 
BRANCH  14  22
ATOM     22  O   UNL     1     -19.588   3.288  11.430  0.00  0.00    +0.000 OA
ATOM     23  H   UNL     1     -19.123   3.186  12.280  0.00  0.00    +0.000 HD
ENDBRANCH  14  22
BRANCH  16  24
ATOM     24  O   UNL     1     -23.809   2.530   9.413  0.00  0.00    +0.000 OA
BRANCH  24  26
ATOM     25  O   UNL     1     -24.808   4.181   8.077  0.00  0.00    +0.000 OA
ATOM     26  C   UNL     1     -24.153   3.173   8.269  0.00  0.00    +0.000 C 
ATOM     27  C   UNL     1     -23.648   2.521   7.030  0.00  0.00    +0.000 C 
ENDBRANCH  24  26
ENDBRANCH  16  24
ENDBRANCH  11  18
ENDBRANCH   9  12
ENDBRANCH   8   9
ENDBRANCH   6   8
ENDBRANCH   4   7
ENDBRANCH   3   4
ENDBRANCH   2   3
BRANCH   1  28
ATOM     28  C   UNL     1     -15.357  -0.260  23.456  0.00  0.00    +0.000 C 
BRANCH  28  29
ATOM     29  C   UNL     1     -14.315  -0.630  24.130  0.00  0.00    +0.000 C 
ATOM     30  C   UNL     1     -14.479  -1.242  25.488  0.00  0.00    +0.000 C 
BRANCH  29  32
ATOM     31  C   UNL     1     -11.928  -0.244  23.131  0.00  0.00    +0.000 C 
ATOM     32  C   UNL     1     -13.021  -0.420  23.597  0.00  0.00    +0.000 C 
BRANCH  31  33
ATOM     33  C   UNL     1     -10.538  -0.024  22.522  0.00  0.00    +0.000 C 
BRANCH  33  34
ATOM     34  C   UNL     1      -9.363   0.164  21.998  0.00  0.00    +0.000 C 
ATOM     35  C   UNL     1      -9.201   1.378  21.105  0.00  0.00    +0.000 C 
BRANCH  34  37
ATOM     36  O   UNL     1      -7.075  -0.514  22.116  0.00  0.00    +0.000 OA
ATOM     37  C   UNL     1      -8.258  -0.812  22.245  0.00  0.00    +0.000 C 
BRANCH  37  38
ATOM     38  C   UNL     1      -8.542  -2.167  22.656  0.00  0.00    +0.000 C 
BRANCH  38  40
ATOM     39  O   UNL     1      -7.631  -4.172  23.546  0.00  0.00    +0.000 OA
ATOM     40  C   UNL     1      -8.835  -3.535  23.036  0.00  0.00    +0.000 C 
ATOM     41  C   UNL     1      -8.662  -3.963  24.509  0.00  0.00    +0.000 C 
ATOM     42  C   UNL     1      -9.756  -4.414  22.114  0.00  0.00    +0.000 C 
ATOM     43  C   UNL     1      -9.281  -5.185  24.910  0.00  0.00    +0.000 C 
ATOM     44  C   UNL     1     -10.110  -5.610  22.881  0.00  0.00    +0.000 C 
ATOM     45  C   UNL     1     -10.017  -6.137  24.184  0.00  0.00    +0.000 C 
ATOM     46  C   UNL     1      -8.267  -2.985  25.619  0.00  0.00    +0.000 C 
ATOM     47  C   UNL     1     -11.004  -3.544  21.829  0.00  0.00    +0.000 C 
ATOM     48  C   UNL     1      -8.932  -4.702  20.840  0.00  0.00    +0.000 C 
BRANCH  45  49
ATOM     49  O   UNL     1     -11.032  -6.859  24.733  0.00  0.00    +0.000 OA
ATOM     50  H   UNL     1     -10.710  -7.577  25.306  0.00  0.00    +0.000 HD
ENDBRANCH  45  49
ENDBRANCH  38  40
ENDBRANCH  37  38
ENDBRANCH  34  37
ENDBRANCH  33  34
ENDBRANCH  31  33
ENDBRANCH  29  32
ENDBRANCH  28  29
ENDBRANCH   1  28
TORSDOF 19
ENDMDL
MODEL 6
REMARK VINA RESULT:      -5.8     21.675     27.661
REMARK  Name = 5281239_Fucoxanthin.pdbqt.pdb
REMARK  19 active torsions:
REMARK  status: ('A' for Active; 'I' for Inactive)
REMARK    1  A    between atoms: C_1  and  C_5
REMARK    2  A    between atoms: C_2  and  C_26
REMARK    3  A    between atoms: C_3  and  C_5
REMARK    4  A    between atoms: C_3  and  C_7
REMARK    5  A    between atoms: C_6  and  C_10
REMARK    6  A    between atoms: C_8  and  C_10
REMARK    7  A    between atoms: C_8  and  C_12
REMARK    8  A    between atoms: C_12  and  C_13
REMARK    9  A    between atoms: C_13  and  C_15
REMARK   10  A    between atoms: C_20  and  O_24
REMARK   11  A    between atoms: C_26  and  C_27
REMARK   12  A    between atoms: C_27  and  C_30
REMARK   13  A    between atoms: C_29  and  C_33
REMARK   14  A    between atoms: C_31  and  C_33
REMARK   15  A    between atoms: C_31  and  C_44
REMARK   16  A    between atoms: C_35  and  O_45
REMARK   17  A    between atoms: C_37  and  O_47
REMARK   18  A    between atoms: C_39  and  C_43
REMARK   19  A    between atoms: O_47  and  C_49
REMARK                            x       y       z     vdW  Elec       q    Type
REMARK                         _______ _______ _______ _____ _____    ______ ____
ROOT
ATOM      1  C   UNL     1       3.331 -13.313  12.995  0.00  0.00    +0.000 C 
ATOM      2  C   UNL     1       3.328 -12.195  12.561  0.00  0.00    +0.000 C 
ENDROOT
BRANCH   2   3
ATOM      3  C   UNL     1       3.317 -10.764  12.009  0.00  0.00    +0.000 C 
BRANCH   3   4
ATOM      4  C   UNL     1       3.310  -9.556  11.539  0.00  0.00    +0.000 C 
ATOM      5  C   UNL     1       2.532  -9.241  10.298  0.00  0.00    +0.000 C 
BRANCH   4   7
ATOM      6  C   UNL     1       4.581  -7.654  12.810  0.00  0.00    +0.000 C 
ATOM      7  C   UNL     1       3.996  -8.527  12.227  0.00  0.00    +0.000 C 
BRANCH   6   8
ATOM      8  C   UNL     1       5.328  -6.538  13.548  0.00  0.00    +0.000 C 
BRANCH   8   9
ATOM      9  C   UNL     1       5.964  -5.601  14.180  0.00  0.00    +0.000 C 
ATOM     10  C   UNL     1       7.157  -4.946  13.555  0.00  0.00    +0.000 C 
BRANCH   9  12
ATOM     11  C   UNL     1       5.289  -5.009  16.642  0.00  0.00    +0.000 C 
ATOM     12  C   UNL     1       5.600  -5.278  15.511  0.00  0.00    +0.000 C 
BRANCH  11  18
ATOM     13  C   UNL     1       4.636  -3.275  18.329  0.00  0.00    +0.000 C 
ATOM     14  C   UNL     1       4.886  -5.788  18.955  0.00  0.00    +0.000 C 
ATOM     15  C   UNL     1       3.996  -3.256  19.651  0.00  0.00    +0.000 C 
ATOM     16  C   UNL     1       3.656  -4.149  20.686  0.00  0.00    +0.000 C 
ATOM     17  C   UNL     1       4.174  -5.345  20.148  0.00  0.00    +0.000 C 
ATOM     18  C   UNL     1       4.944  -4.715  17.879  0.00  0.00    +0.000 C 
ATOM     19  C   UNL     1       5.966  -2.476  18.372  0.00  0.00    +0.000 C 
ATOM     20  C   UNL     1       3.657  -2.620  17.307  0.00  0.00    +0.000 C 
ATOM     21  C   UNL     1       6.291  -6.292  19.299  0.00  0.00    +0.000 C 
BRANCH  14  22
ATOM     22  O   UNL     1       4.210  -6.916  18.446  0.00  0.00    +0.000 OA
ATOM     23  H   UNL     1       4.780  -7.642  18.761  0.00  0.00    +0.000 HD
ENDBRANCH  14  22
BRANCH  16  24
ATOM     24  O   UNL     1       3.927  -3.795  22.001  0.00  0.00    +0.000 OA
BRANCH  24  26
ATOM     25  O   UNL     1       1.710  -3.333  22.614  0.00  0.00    +0.000 OA
ATOM     26  C   UNL     1       2.795  -3.870  22.744  0.00  0.00    +0.000 C 
ATOM     27  C   UNL     1       2.906  -4.755  23.934  0.00  0.00    +0.000 C 
ENDBRANCH  24  26
ENDBRANCH  16  24
ENDBRANCH  11  18
ENDBRANCH   9  12
ENDBRANCH   8   9
ENDBRANCH   6   8
ENDBRANCH   4   7
ENDBRANCH   3   4
ENDBRANCH   2   3
BRANCH   1  28
ATOM     28  C   UNL     1       3.325 -14.741  13.554  0.00  0.00    +0.000 C 
BRANCH  28  29
ATOM     29  C   UNL     1       3.327 -15.943  14.036  0.00  0.00    +0.000 C 
ATOM     30  C   UNL     1       3.589 -16.166  15.494  0.00  0.00    +0.000 C 
BRANCH  29  32
ATOM     31  C   UNL     1       2.937 -17.991  12.454  0.00  0.00    +0.000 C 
ATOM     32  C   UNL     1       3.118 -17.046  13.174  0.00  0.00    +0.000 C 
BRANCH  31  33
ATOM     33  C   UNL     1       2.702 -19.205  11.548  0.00  0.00    +0.000 C 
BRANCH  33  34
ATOM     34  C   UNL     1       2.511 -20.239  10.783  0.00  0.00    +0.000 C 
ATOM     35  C   UNL     1       1.099 -20.784  10.713  0.00  0.00    +0.000 C 
BRANCH  34  37
ATOM     36  O   UNL     1       4.635 -21.323  10.640  0.00  0.00    +0.000 OA
ATOM     37  C   UNL     1       3.658 -20.865  10.057  0.00  0.00    +0.000 C 
BRANCH  37  38
ATOM     38  C   UNL     1       3.661 -20.961   8.616  0.00  0.00    +0.000 C 
BRANCH  38  40
ATOM     39  O   UNL     1       2.265 -21.077   6.697  0.00  0.00    +0.000 OA
ATOM     40  C   UNL     1       3.640 -21.083   7.171  0.00  0.00    +0.000 C 
ATOM     41  C   UNL     1       3.041 -19.939   6.327  0.00  0.00    +0.000 C 
ATOM     42  C   UNL     1       4.620 -22.087   6.465  0.00  0.00    +0.000 C 
ATOM     43  C   UNL     1       3.348 -19.926   4.933  0.00  0.00    +0.000 C 
ATOM     44  C   UNL     1       4.587 -21.781   5.033  0.00  0.00    +0.000 C 
ATOM     45  C   UNL     1       4.091 -20.815   4.137  0.00  0.00    +0.000 C 
ATOM     46  C   UNL     1       2.531 -18.631   6.939  0.00  0.00    +0.000 C 
ATOM     47  C   UNL     1       6.017 -21.794   7.066  0.00  0.00    +0.000 C 
ATOM     48  C   UNL     1       4.109 -23.501   6.821  0.00  0.00    +0.000 C 
BRANCH  45  49
ATOM     49  O   UNL     1       4.815 -20.408   3.058  0.00  0.00    +0.000 OA
ATOM     50  H   UNL     1       4.602 -19.497   2.789  0.00  0.00    +0.000 HD
ENDBRANCH  45  49
ENDBRANCH  38  40
ENDBRANCH  37  38
ENDBRANCH  34  37
ENDBRANCH  33  34
ENDBRANCH  31  33
ENDBRANCH  29  32
ENDBRANCH  28  29
ENDBRANCH   1  28
TORSDOF 19
ENDMDL
MODEL 7
REMARK VINA RESULT:      -5.7     11.074     17.848
REMARK  Name = 5281239_Fucoxanthin.pdbqt.pdb
REMARK  19 active torsions:
REMARK  status: ('A' for Active; 'I' for Inactive)
REMARK    1  A    between atoms: C_1  and  C_5
REMARK    2  A    between atoms: C_2  and  C_26
REMARK    3  A    between atoms: C_3  and  C_5
REMARK    4  A    between atoms: C_3  and  C_7
REMARK    5  A    between atoms: C_6  and  C_10
REMARK    6  A    between atoms: C_8  and  C_10
REMARK    7  A    between atoms: C_8  and  C_12
REMARK    8  A    between atoms: C_12  and  C_13
REMARK    9  A    between atoms: C_13  and  C_15
REMARK   10  A    between atoms: C_20  and  O_24
REMARK   11  A    between atoms: C_26  and  C_27
REMARK   12  A    between atoms: C_27  and  C_30
REMARK   13  A    between atoms: C_29  and  C_33
REMARK   14  A    between atoms: C_31  and  C_33
REMARK   15  A    between atoms: C_31  and  C_44
REMARK   16  A    between atoms: C_35  and  O_45
REMARK   17  A    between atoms: C_37  and  O_47
REMARK   18  A    between atoms: C_39  and  C_43
REMARK   19  A    between atoms: O_47  and  C_49
REMARK                            x       y       z     vdW  Elec       q    Type
REMARK                         _______ _______ _______ _____ _____    ______ ____
ROOT
ATOM      1  C   UNL     1       0.491  -2.573  23.487  0.00  0.00    +0.000 C 
ATOM      2  C   UNL     1      -0.503  -1.985  23.813  0.00  0.00    +0.000 C 
ENDROOT
BRANCH   2   3
ATOM      3  C   UNL     1      -1.769  -1.229  24.232  0.00  0.00    +0.000 C 
BRANCH   3   4
ATOM      4  C   UNL     1      -2.837  -0.588  24.589  0.00  0.00    +0.000 C 
ATOM      5  C   UNL     1      -2.741   0.531  25.582  0.00  0.00    +0.000 C 
BRANCH   4   7
ATOM      6  C   UNL     1      -5.143  -1.189  23.508  0.00  0.00    +0.000 C 
ATOM      7  C   UNL     1      -4.084  -0.912  24.003  0.00  0.00    +0.000 C 
BRANCH   6   8
ATOM      8  C   UNL     1      -6.496  -1.543  22.881  0.00  0.00    +0.000 C 
BRANCH   8   9
ATOM      9  C   UNL     1      -7.642  -1.849  22.359  0.00  0.00    +0.000 C 
ATOM     10  C   UNL     1      -8.155  -1.094  21.171  0.00  0.00    +0.000 C 
BRANCH   9  12
ATOM     11  C   UNL     1      -9.165  -3.644  23.510  0.00  0.00    +0.000 C 
ATOM     12  C   UNL     1      -8.463  -2.822  22.982  0.00  0.00    +0.000 C 
BRANCH  11  18
ATOM     13  C   UNL     1     -11.291  -4.971  23.502  0.00  0.00    +0.000 C 
ATOM     14  C   UNL     1      -9.546  -5.167  25.422  0.00  0.00    +0.000 C 
ATOM     15  C   UNL     1     -11.801  -6.178  24.165  0.00  0.00    +0.000 C 
ATOM     16  C   UNL     1     -11.477  -7.021  25.245  0.00  0.00    +0.000 C 
ATOM     17  C   UNL     1     -10.332  -6.356  25.731  0.00  0.00    +0.000 C 
ATOM     18  C   UNL     1      -9.935  -4.542  24.092  0.00  0.00    +0.000 C 
ATOM     19  C   UNL     1     -12.298  -3.803  23.678  0.00  0.00    +0.000 C 
ATOM     20  C   UNL     1     -11.109  -5.290  21.987  0.00  0.00    +0.000 C 
ATOM     21  C   UNL     1      -9.624  -4.138  26.553  0.00  0.00    +0.000 C 
BRANCH  14  22
ATOM     22  O   UNL     1      -8.190  -5.551  25.373  0.00  0.00    +0.000 OA
ATOM     23  H   UNL     1      -7.853  -4.979  24.660  0.00  0.00    +0.000 HD
ENDBRANCH  14  22
BRANCH  16  24
ATOM     24  O   UNL     1     -12.482  -7.419  26.118  0.00  0.00    +0.000 OA
BRANCH  24  26
ATOM     25  O   UNL     1     -11.662  -9.250  27.334  0.00  0.00    +0.000 OA
ATOM     26  C   UNL     1     -12.315  -8.722  26.453  0.00  0.00    +0.000 C 
ATOM     27  C   UNL     1     -13.053  -9.675  25.579  0.00  0.00    +0.000 C 
ENDBRANCH  24  26
ENDBRANCH  16  24
ENDBRANCH  11  18
ENDBRANCH   9  12
ENDBRANCH   8   9
ENDBRANCH   6   8
ENDBRANCH   4   7
ENDBRANCH   3   4
ENDBRANCH   2   3
BRANCH   1  28
ATOM     28  C   UNL     1       1.767  -3.318  23.077  0.00  0.00    +0.000 C 
BRANCH  28  29
ATOM     29  C   UNL     1       2.843  -3.945  22.720  0.00  0.00    +0.000 C 
ATOM     30  C   UNL     1       3.603  -4.761  23.721  0.00  0.00    +0.000 C 
BRANCH  29  32
ATOM     31  C   UNL     1       3.731  -3.735  20.267  0.00  0.00    +0.000 C 
ATOM     32  C   UNL     1       3.319  -3.825  21.392  0.00  0.00    +0.000 C 
BRANCH  31  33
ATOM     33  C   UNL     1       4.267  -3.633  18.835  0.00  0.00    +0.000 C 
BRANCH  33  34
ATOM     34  C   UNL     1       4.728  -3.553  17.621  0.00  0.00    +0.000 C 
ATOM     35  C   UNL     1       3.936  -2.707  16.645  0.00  0.00    +0.000 C 
BRANCH  34  37
ATOM     36  O   UNL     1       7.007  -4.231  17.856  0.00  0.00    +0.000 OA
ATOM     37  C   UNL     1       5.956  -4.309  17.227  0.00  0.00    +0.000 C 
BRANCH  37  38
ATOM     38  C   UNL     1       5.956  -5.177  16.074  0.00  0.00    +0.000 C 
BRANCH  38  40
ATOM     39  O   UNL     1       6.913  -7.111  15.081  0.00  0.00    +0.000 OA
ATOM     40  C   UNL     1       5.923  -6.058  14.922  0.00  0.00    +0.000 C 
ATOM     41  C   UNL     1       5.554  -7.544  15.120  0.00  0.00    +0.000 C 
ATOM     42  C   UNL     1       5.776  -5.445  13.484  0.00  0.00    +0.000 C 
ATOM     43  C   UNL     1       5.192  -8.286  13.956  0.00  0.00    +0.000 C 
ATOM     44  C   UNL     1       5.474  -6.554  12.575  0.00  0.00    +0.000 C 
ATOM     45  C   UNL     1       5.139  -7.922  12.599  0.00  0.00    +0.000 C 
ATOM     46  C   UNL     1       5.141  -8.126  16.474  0.00  0.00    +0.000 C 
ATOM     47  C   UNL     1       4.586  -4.459  13.574  0.00  0.00    +0.000 C 
ATOM     48  C   UNL     1       7.113  -4.732  13.187  0.00  0.00    +0.000 C 
BRANCH  45  49
ATOM     49  O   UNL     1       4.233  -8.447  11.730  0.00  0.00    +0.000 OA
ATOM     50  H   UNL     1       3.432  -8.771  12.179  0.00  0.00    +0.000 HD
ENDBRANCH  45  49
ENDBRANCH  38  40
ENDBRANCH  37  38
ENDBRANCH  34  37
ENDBRANCH  33  34
ENDBRANCH  31  33
ENDBRANCH  29  32
ENDBRANCH  28  29
ENDBRANCH   1  28
TORSDOF 19
ENDMDL
MODEL 8
REMARK VINA RESULT:      -5.7      4.680      6.664
REMARK  Name = 5281239_Fucoxanthin.pdbqt.pdb
REMARK  19 active torsions:
REMARK  status: ('A' for Active; 'I' for Inactive)
REMARK    1  A    between atoms: C_1  and  C_5
REMARK    2  A    between atoms: C_2  and  C_26
REMARK    3  A    between atoms: C_3  and  C_5
REMARK    4  A    between atoms: C_3  and  C_7
REMARK    5  A    between atoms: C_6  and  C_10
REMARK    6  A    between atoms: C_8  and  C_10
REMARK    7  A    between atoms: C_8  and  C_12
REMARK    8  A    between atoms: C_12  and  C_13
REMARK    9  A    between atoms: C_13  and  C_15
REMARK   10  A    between atoms: C_20  and  O_24
REMARK   11  A    between atoms: C_26  and  C_27
REMARK   12  A    between atoms: C_27  and  C_30
REMARK   13  A    between atoms: C_29  and  C_33
REMARK   14  A    between atoms: C_31  and  C_33
REMARK   15  A    between atoms: C_31  and  C_44
REMARK   16  A    between atoms: C_35  and  O_45
REMARK   17  A    between atoms: C_37  and  O_47
REMARK   18  A    between atoms: C_39  and  C_43
REMARK   19  A    between atoms: O_47  and  C_49
REMARK                            x       y       z     vdW  Elec       q    Type
REMARK                         _______ _______ _______ _____ _____    ______ ____
ROOT
ATOM      1  C   UNL     1     -16.888   0.297  22.661  0.00  0.00    +0.000 C 
ATOM      2  C   UNL     1     -17.849   0.582  22.001  0.00  0.00    +0.000 C 
ENDROOT
BRANCH   2   3
ATOM      3  C   UNL     1     -19.079   0.950  21.163  0.00  0.00    +0.000 C 
BRANCH   3   4
ATOM      4  C   UNL     1     -20.119   1.265  20.456  0.00  0.00    +0.000 C 
ATOM      5  C   UNL     1     -21.480   0.804  20.881  0.00  0.00    +0.000 C 
BRANCH   4   7
ATOM      6  C   UNL     1     -19.850   2.786  18.344  0.00  0.00    +0.000 C 
ATOM      7  C   UNL     1     -19.972   2.087  19.313  0.00  0.00    +0.000 C 
BRANCH   6   8
ATOM      8  C   UNL     1     -19.695   3.682  17.110  0.00  0.00    +0.000 C 
BRANCH   8   9
ATOM      9  C   UNL     1     -19.555   4.436  16.064  0.00  0.00    +0.000 C 
ATOM     10  C   UNL     1     -18.974   5.810  16.198  0.00  0.00    +0.000 C 
BRANCH   9  12
ATOM     11  C   UNL     1     -20.481   3.633  13.748  0.00  0.00    +0.000 C 
ATOM     12  C   UNL     1     -20.058   4.003  14.812  0.00  0.00    +0.000 C 
BRANCH  11  18
ATOM     13  C   UNL     1     -22.413   3.407  12.169  0.00  0.00    +0.000 C 
ATOM     14  C   UNL     1     -20.041   2.508  11.589  0.00  0.00    +0.000 C 
ATOM     15  C   UNL     1     -22.598   3.155  10.733  0.00  0.00    +0.000 C 
ATOM     16  C   UNL     1     -21.855   2.707   9.624  0.00  0.00    +0.000 C 
ATOM     17  C   UNL     1     -20.621   2.446  10.253  0.00  0.00    +0.000 C 
ATOM     18  C   UNL     1     -20.940   3.230  12.581  0.00  0.00    +0.000 C 
ATOM     19  C   UNL     1     -23.280   2.421  12.996  0.00  0.00    +0.000 C 
ATOM     20  C   UNL     1     -22.851   4.874  12.464  0.00  0.00    +0.000 C 
ATOM     21  C   UNL     1     -19.671   1.113  12.103  0.00  0.00    +0.000 C 
BRANCH  14  22
ATOM     22  O   UNL     1     -18.814   3.196  11.492  0.00  0.00    +0.000 OA
ATOM     23  H   UNL     1     -18.405   2.754  10.726  0.00  0.00    +0.000 HD
ENDBRANCH  14  22
BRANCH  16  24
ATOM     24  O   UNL     1     -22.419   1.772   8.765  0.00  0.00    +0.000 OA
BRANCH  24  26
ATOM     25  O   UNL     1     -21.523  -0.292   9.431  0.00  0.00    +0.000 OA
ATOM     26  C   UNL     1     -22.403   0.545   9.342  0.00  0.00    +0.000 C 
ATOM     27  C   UNL     1     -23.695   0.148   9.964  0.00  0.00    +0.000 C 
ENDBRANCH  24  26
ENDBRANCH  16  24
ENDBRANCH  11  18
ENDBRANCH   9  12
ENDBRANCH   8   9
ENDBRANCH   6   8
ENDBRANCH   4   7
ENDBRANCH   3   4
ENDBRANCH   2   3
BRANCH   1  28
ATOM     28  C   UNL     1     -15.663  -0.059  23.511  0.00  0.00    +0.000 C 
BRANCH  28  29
ATOM     29  C   UNL     1     -14.635  -0.363  24.238  0.00  0.00    +0.000 C 
ATOM     30  C   UNL     1     -14.552   0.114  25.656  0.00  0.00    +0.000 C 
BRANCH  29  32
ATOM     31  C   UNL     1     -12.680  -1.749  23.188  0.00  0.00    +0.000 C 
ATOM     32  C   UNL     1     -13.574  -1.114  23.677  0.00  0.00    +0.000 C 
BRANCH  31  33
ATOM     33  C   UNL     1     -11.546  -2.560  22.549  0.00  0.00    +0.000 C 
BRANCH  33  34
ATOM     34  C   UNL     1     -10.583  -3.241  22.002  0.00  0.00    +0.000 C 
ATOM     35  C   UNL     1     -10.522  -3.242  20.488  0.00  0.00    +0.000 C 
BRANCH  34  37
ATOM     36  O   UNL     1      -8.434  -4.117  22.573  0.00  0.00    +0.000 OA
ATOM     37  C   UNL     1      -9.625  -4.014  22.852  0.00  0.00    +0.000 C 
BRANCH  37  38
ATOM     38  C   UNL     1     -10.068  -4.678  24.054  0.00  0.00    +0.000 C 
BRANCH  38  40
ATOM     39  O   UNL     1     -11.643  -4.565  25.829  0.00  0.00    +0.000 OA
ATOM     40  C   UNL     1     -10.529  -5.316  25.272  0.00  0.00    +0.000 C 
ATOM     41  C   UNL     1     -11.971  -5.863  25.337  0.00  0.00    +0.000 C 
ATOM     42  C   UNL     1      -9.480  -5.877  26.298  0.00  0.00    +0.000 C 
ATOM     43  C   UNL     1     -12.276  -6.777  26.391  0.00  0.00    +0.000 C 
ATOM     44  C   UNL     1     -10.216  -6.709  27.252  0.00  0.00    +0.000 C 
ATOM     45  C   UNL     1     -11.494  -7.268  27.450  0.00  0.00    +0.000 C 
ATOM     46  C   UNL     1     -12.927  -5.836  24.141  0.00  0.00    +0.000 C 
ATOM     47  C   UNL     1      -8.496  -6.727  25.459  0.00  0.00    +0.000 C 
ATOM     48  C   UNL     1      -8.802  -4.641  26.930  0.00  0.00    +0.000 C 
BRANCH  45  49
ATOM     49  O   UNL     1     -11.649  -8.520  27.962  0.00  0.00    +0.000 OA
ATOM     50  H   UNL     1     -12.123  -8.517  28.813  0.00  0.00    +0.000 HD
ENDBRANCH  45  49
ENDBRANCH  38  40
ENDBRANCH  37  38
ENDBRANCH  34  37
ENDBRANCH  33  34
ENDBRANCH  31  33
ENDBRANCH  29  32
ENDBRANCH  28  29
ENDBRANCH   1  28
TORSDOF 19
ENDMDL
MODEL 9
REMARK VINA RESULT:      -5.6      9.696     11.277
REMARK  Name = 5281239_Fucoxanthin.pdbqt.pdb
REMARK  19 active torsions:
REMARK  status: ('A' for Active; 'I' for Inactive)
REMARK    1  A    between atoms: C_1  and  C_5
REMARK    2  A    between atoms: C_2  and  C_26
REMARK    3  A    between atoms: C_3  and  C_5
REMARK    4  A    between atoms: C_3  and  C_7
REMARK    5  A    between atoms: C_6  and  C_10
REMARK    6  A    between atoms: C_8  and  C_10
REMARK    7  A    between atoms: C_8  and  C_12
REMARK    8  A    between atoms: C_12  and  C_13
REMARK    9  A    between atoms: C_13  and  C_15
REMARK   10  A    between atoms: C_20  and  O_24
REMARK   11  A    between atoms: C_26  and  C_27
REMARK   12  A    between atoms: C_27  and  C_30
REMARK   13  A    between atoms: C_29  and  C_33
REMARK   14  A    between atoms: C_31  and  C_33
REMARK   15  A    between atoms: C_31  and  C_44
REMARK   16  A    between atoms: C_35  and  O_45
REMARK   17  A    between atoms: C_37  and  O_47
REMARK   18  A    between atoms: C_39  and  C_43
REMARK   19  A    between atoms: O_47  and  C_49
REMARK                            x       y       z     vdW  Elec       q    Type
REMARK                         _______ _______ _______ _____ _____    ______ ____
ROOT
ATOM      1  C   UNL     1     -14.872  -1.330  26.832  0.00  0.00    +0.000 C 
ATOM      2  C   UNL     1     -15.266  -2.369  27.286  0.00  0.00    +0.000 C 
ENDROOT
BRANCH   2   3
ATOM      3  C   UNL     1     -15.764  -3.700  27.862  0.00  0.00    +0.000 C 
BRANCH   3   4
ATOM      4  C   UNL     1     -16.187  -4.825  28.346  0.00  0.00    +0.000 C 
ATOM      5  C   UNL     1     -17.452  -4.865  29.148  0.00  0.00    +0.000 C 
BRANCH   4   7
ATOM      6  C   UNL     1     -14.879  -7.035  27.845  0.00  0.00    +0.000 C 
ATOM      7  C   UNL     1     -15.481  -6.021  28.074  0.00  0.00    +0.000 C 
BRANCH   6   8
ATOM      8  C   UNL     1     -14.110  -8.330  27.557  0.00  0.00    +0.000 C 
BRANCH   8   9
ATOM      9  C   UNL     1     -13.461  -9.427  27.324  0.00  0.00    +0.000 C 
ATOM     10  C   UNL     1     -12.046  -9.580  27.790  0.00  0.00    +0.000 C 
BRANCH   9  12
ATOM     11  C   UNL     1     -14.548 -11.298  25.846  0.00  0.00    +0.000 C 
ATOM     12  C   UNL     1     -14.052 -10.439  26.526  0.00  0.00    +0.000 C 
BRANCH  11  18
ATOM     13  C   UNL     1     -16.092 -11.916  23.971  0.00  0.00    +0.000 C 
ATOM     14  C   UNL     1     -14.799 -13.708  25.344  0.00  0.00    +0.000 C 
ATOM     15  C   UNL     1     -16.312 -13.083  23.106  0.00  0.00    +0.000 C 
ATOM     16  C   UNL     1     -15.960 -14.445  23.041  0.00  0.00    +0.000 C 
ATOM     17  C   UNL     1     -15.209 -14.554  24.230  0.00  0.00    +0.000 C 
ATOM     18  C   UNL     1     -15.092 -12.236  25.096  0.00  0.00    +0.000 C 
ATOM     19  C   UNL     1     -17.433 -11.471  24.614  0.00  0.00    +0.000 C 
ATOM     20  C   UNL     1     -15.518 -10.763  23.092  0.00  0.00    +0.000 C 
ATOM     21  C   UNL     1     -15.427 -14.175  26.661  0.00  0.00    +0.000 C 
BRANCH  14  22
ATOM     22  O   UNL     1     -13.411 -13.879  25.523  0.00  0.00    +0.000 OA
ATOM     23  H   UNL     1     -13.056 -13.418  24.740  0.00  0.00    +0.000 HD
ENDBRANCH  14  22
BRANCH  16  24
ATOM     24  O   UNL     1     -16.938 -15.383  22.739  0.00  0.00    +0.000 OA
BRANCH  24  26
ATOM     25  O   UNL     1     -15.735 -16.013  20.826  0.00  0.00    +0.000 OA
ATOM     26  C   UNL     1     -16.747 -15.865  21.486  0.00  0.00    +0.000 C 
ATOM     27  C   UNL     1     -17.999 -16.273  20.793  0.00  0.00    +0.000 C 
ENDBRANCH  24  26
ENDBRANCH  16  24
ENDBRANCH  11  18
ENDBRANCH   9  12
ENDBRANCH   8   9
ENDBRANCH   6   8
ENDBRANCH   4   7
ENDBRANCH   3   4
ENDBRANCH   2   3
BRANCH   1  28
ATOM     28  C   UNL     1     -14.361  -0.008  26.248  0.00  0.00    +0.000 C 
BRANCH  28  29
ATOM     29  C   UNL     1     -13.934   1.115  25.763  0.00  0.00    +0.000 C 
ATOM     30  C   UNL     1     -14.546   2.406  26.213  0.00  0.00    +0.000 C 
BRANCH  29  32
ATOM     31  C   UNL     1     -12.057   1.128  23.940  0.00  0.00    +0.000 C 
ATOM     32  C   UNL     1     -12.917   1.115  24.779  0.00  0.00    +0.000 C 
BRANCH  31  33
ATOM     33  C   UNL     1     -10.966   1.159  22.864  0.00  0.00    +0.000 C 
BRANCH  33  34
ATOM     34  C   UNL     1     -10.035   1.191  21.957  0.00  0.00    +0.000 C 
ATOM     35  C   UNL     1      -9.323   2.513  21.756  0.00  0.00    +0.000 C 
BRANCH  34  37
ATOM     36  O   UNL     1      -9.080   0.028  20.100  0.00  0.00    +0.000 OA
ATOM     37  C   UNL     1      -9.736  -0.023  21.136  0.00  0.00    +0.000 C 
BRANCH  37  38
ATOM     38  C   UNL     1     -10.213  -1.326  21.535  0.00  0.00    +0.000 C 
BRANCH  38  40
ATOM     39  O   UNL     1     -11.305  -3.282  20.748  0.00  0.00    +0.000 OA
ATOM     40  C   UNL     1     -10.699  -2.641  21.904  0.00  0.00    +0.000 C 
ATOM     41  C   UNL     1     -10.100  -3.886  21.215  0.00  0.00    +0.000 C 
ATOM     42  C   UNL     1     -11.431  -2.839  23.279  0.00  0.00    +0.000 C 
ATOM     43  C   UNL     1     -10.336  -5.151  21.833  0.00  0.00    +0.000 C 
ATOM     44  C   UNL     1     -11.534  -4.283  23.505  0.00  0.00    +0.000 C 
ATOM     45  C   UNL     1     -11.072  -5.504  22.977  0.00  0.00    +0.000 C 
ATOM     46  C   UNL     1      -8.951  -3.808  20.205  0.00  0.00    +0.000 C 
ATOM     47  C   UNL     1     -10.515  -2.173  24.334  0.00  0.00    +0.000 C 
ATOM     48  C   UNL     1     -12.793  -2.123  23.142  0.00  0.00    +0.000 C 
BRANCH  45  49
ATOM     49  O   UNL     1     -10.723  -6.542  23.787  0.00  0.00    +0.000 OA
ATOM     50  H   UNL     1      -9.773  -6.541  24.003  0.00  0.00    +0.000 HD
ENDBRANCH  45  49
ENDBRANCH  38  40
ENDBRANCH  37  38
ENDBRANCH  34  37
ENDBRANCH  33  34
ENDBRANCH  31  33
ENDBRANCH  29  32
ENDBRANCH  28  29
ENDBRANCH   1  28
TORSDOF 19
ENDMDL
