MODEL 1
REMARK VINA RESULT:      -6.3      0.000      0.000
REMARK  Name = 5289155_Peridinin.pdbqt.pdb
REMARK  13 active torsions:
REMARK  status: ('A' for Active; 'I' for Inactive)
REMARK    1  A    between atoms: C_1  and  C_3
REMARK    2  A    between atoms: C_3  and  C_25
REMARK    3  A    between atoms: C_6  and  C_12
REMARK    4  A    between atoms: C_11  and  C_14
REMARK    5  A    between atoms: C_19  and  O_23
REMARK    6  A    between atoms: C_26  and  C_28
REMARK    7  A    between atoms: C_27  and  C_31
REMARK    8  A    between atoms: C_29  and  C_31
REMARK    9  A    between atoms: C_29  and  C_42
REMARK   10  A    between atoms: C_33  and  O_43
REMARK   11  A    between atoms: C_35  and  O_45
REMARK   12  A    between atoms: C_37  and  C_41
REMARK   13  A    between atoms: O_45  and  C_47
REMARK                            x       y       z     vdW  Elec       q    Type
REMARK                         _______ _______ _______ _____ _____    ______ ____
ROOT
ATOM      1  C   UNL     1      -8.249   3.313   1.139  0.00  0.00    +0.000 C 
ENDROOT
BRANCH   1   2
ATOM      2  C   UNL     1      -9.084   4.281   0.925  0.00  0.00    +0.000 C 
ATOM      3  C   UNL     1      -9.192   4.895  -0.437  0.00  0.00    +0.000 C 
ATOM      4  O   UNL     1     -10.281   5.032   4.240  0.00  0.00    +0.000 OA
ATOM      5  O   UNL     1     -11.111   6.105   6.121  0.00  0.00    +0.000 OA
ATOM      6  C   UNL     1     -11.994   6.574   3.921  0.00  0.00    +0.000 C 
ATOM      7  C   UNL     1     -11.699   6.103   2.765  0.00  0.00    +0.000 C 
ATOM      8  C   UNL     1     -11.118   5.913   4.918  0.00  0.00    +0.000 C 
ATOM      9  C   UNL     1     -10.695   5.150   2.917  0.00  0.00    +0.000 C 
ATOM     10  C   UNL     1      -9.924   4.734   1.967  0.00  0.00    +0.000 C 
BRANCH   6  12
ATOM     11  C   UNL     1     -13.806   8.399   4.355  0.00  0.00    +0.000 C 
ATOM     12  C   UNL     1     -12.973   7.558   4.151  0.00  0.00    +0.000 C 
BRANCH  11  14
ATOM     13  O   UNL     1     -14.306  10.726   4.232  0.00  0.00    +0.000 OA
ATOM     14  C   UNL     1     -14.813   9.416   4.615  0.00  0.00    +0.000 C 
ATOM     15  C   UNL     1     -15.382  10.235   3.437  0.00  0.00    +0.000 C 
ATOM     16  C   UNL     1     -15.653   9.350   5.938  0.00  0.00    +0.000 C 
ATOM     17  C   UNL     1     -16.594  10.954   3.665  0.00  0.00    +0.000 C 
ATOM     18  C   UNL     1     -16.770  10.286   5.785  0.00  0.00    +0.000 C 
ATOM     19  C   UNL     1     -17.392  11.094   4.814  0.00  0.00    +0.000 C 
ATOM     20  C   UNL     1     -15.000   9.988   1.974  0.00  0.00    +0.000 C 
ATOM     21  C   UNL     1     -16.170   7.890   6.034  0.00  0.00    +0.000 C 
ATOM     22  C   UNL     1     -14.691   9.719   7.089  0.00  0.00    +0.000 C 
BRANCH  19  23
ATOM     23  O   UNL     1     -18.747  11.222   4.758  0.00  0.00    +0.000 OA
ATOM     24  H   UNL     1     -19.207  10.391   4.972  0.00  0.00    +0.000 HD
ENDBRANCH  19  23
ENDBRANCH  11  14
ENDBRANCH   6  12
ENDBRANCH   1   2
BRANCH   1  25
ATOM     25  C   UNL     1      -7.260   2.170   1.393  0.00  0.00    +0.000 C 
ATOM     26  C   UNL     1      -6.482   1.277   1.589  0.00  0.00    +0.000 C 
BRANCH  26  28
ATOM     27  C   UNL     1      -4.703  -0.747   2.034  0.00  0.00    +0.000 C 
ATOM     28  C   UNL     1      -5.484   0.142   1.835  0.00  0.00    +0.000 C 
BRANCH  27  29
ATOM     29  C   UNL     1      -3.702  -1.880   2.294  0.00  0.00    +0.000 C 
BRANCH  29  30
ATOM     30  C   UNL     1      -2.861  -2.837   2.525  0.00  0.00    +0.000 C 
ATOM     31  C   UNL     1      -1.750  -2.648   3.513  0.00  0.00    +0.000 C 
BRANCH  30  33
ATOM     32  C   UNL     1      -3.041  -5.082   1.185  0.00  0.00    +0.000 C 
ATOM     33  C   UNL     1      -2.957  -4.052   1.799  0.00  0.00    +0.000 C 
BRANCH  32  39
ATOM     34  C   UNL     1      -4.484  -6.907   0.252  0.00  0.00    +0.000 C 
ATOM     35  C   UNL     1      -1.897  -6.916  -0.018  0.00  0.00    +0.000 C 
ATOM     36  C   UNL     1      -4.356  -7.954  -0.771  0.00  0.00    +0.000 C 
ATOM     37  C   UNL     1      -3.351  -8.585  -1.533  0.00  0.00    +0.000 C 
ATOM     38  C   UNL     1      -2.215  -7.928  -1.019  0.00  0.00    +0.000 C 
ATOM     39  C   UNL     1      -3.136  -6.208   0.507  0.00  0.00    +0.000 C 
ATOM     40  C   UNL     1      -5.515  -5.856  -0.262  0.00  0.00    +0.000 C 
ATOM     41  C   UNL     1      -4.980  -7.528   1.585  0.00  0.00    +0.000 C 
ATOM     42  C   UNL     1      -1.076  -7.508   1.133  0.00  0.00    +0.000 C 
BRANCH  35  43
ATOM     43  O   UNL     1      -1.044  -5.968  -0.623  0.00  0.00    +0.000 OA
ATOM     44  H   UNL     1      -1.233  -6.116  -1.569  0.00  0.00    +0.000 HD
ENDBRANCH  35  43
BRANCH  37  45
ATOM     45  O   UNL     1      -3.367  -9.969  -1.657  0.00  0.00    +0.000 OA
BRANCH  45  47
ATOM     46  O   UNL     1      -2.468 -10.123  -3.819  0.00  0.00    +0.000 OA
ATOM     47  C   UNL     1      -3.316 -10.315  -2.967  0.00  0.00    +0.000 C 
ATOM     48  C   UNL     1      -4.517 -11.050  -3.449  0.00  0.00    +0.000 C 
ENDBRANCH  45  47
ENDBRANCH  37  45
ENDBRANCH  32  39
ENDBRANCH  30  33
ENDBRANCH  29  30
ENDBRANCH  27  29
ENDBRANCH  26  28
ENDBRANCH   1  25
TORSDOF 13
ENDMDL
MODEL 2
REMARK VINA RESULT:      -6.0     13.934     16.038
REMARK  Name = 5289155_Peridinin.pdbqt.pdb
REMARK  13 active torsions:
REMARK  status: ('A' for Active; 'I' for Inactive)
REMARK    1  A    between atoms: C_1  and  C_3
REMARK    2  A    between atoms: C_3  and  C_25
REMARK    3  A    between atoms: C_6  and  C_12
REMARK    4  A    between atoms: C_11  and  C_14
REMARK    5  A    between atoms: C_19  and  O_23
REMARK    6  A    between atoms: C_26  and  C_28
REMARK    7  A    between atoms: C_27  and  C_31
REMARK    8  A    between atoms: C_29  and  C_31
REMARK    9  A    between atoms: C_29  and  C_42
REMARK   10  A    between atoms: C_33  and  O_43
REMARK   11  A    between atoms: C_35  and  O_45
REMARK   12  A    between atoms: C_37  and  C_41
REMARK   13  A    between atoms: O_45  and  C_47
REMARK                            x       y       z     vdW  Elec       q    Type
REMARK                         _______ _______ _______ _____ _____    ______ ____
ROOT
ATOM      1  C   UNL     1     -21.970  -6.169   2.433  0.00  0.00    +0.000 C 
ENDROOT
BRANCH   1   2
ATOM      2  C   UNL     1     -22.767  -6.397   3.429  0.00  0.00    +0.000 C 
ATOM      3  C   UNL     1     -24.203  -6.743   3.180  0.00  0.00    +0.000 C 
ATOM      4  O   UNL     1     -20.739  -5.514   6.275  0.00  0.00    +0.000 OA
ATOM      5  O   UNL     1     -20.009  -4.799   8.355  0.00  0.00    +0.000 OA
ATOM      6  C   UNL     1     -21.995  -6.156   8.124  0.00  0.00    +0.000 C 
ATOM      7  C   UNL     1     -22.568  -6.661   7.094  0.00  0.00    +0.000 C 
ATOM      8  C   UNL     1     -20.801  -5.410   7.660  0.00  0.00    +0.000 C 
ATOM      9  C   UNL     1     -21.827  -6.325   5.965  0.00  0.00    +0.000 C 
ATOM     10  C   UNL     1     -22.275  -6.358   4.753  0.00  0.00    +0.000 C 
BRANCH   6  12
ATOM     11  C   UNL     1     -22.874  -6.425  10.566  0.00  0.00    +0.000 C 
ATOM     12  C   UNL     1     -22.466  -6.297   9.443  0.00  0.00    +0.000 C 
BRANCH  11  14
ATOM     13  O   UNL     1     -24.831  -6.548  11.920  0.00  0.00    +0.000 OA
ATOM     14  C   UNL     1     -23.375  -6.587  11.921  0.00  0.00    +0.000 C 
ATOM     15  C   UNL     1     -24.257  -7.807  12.261  0.00  0.00    +0.000 C 
ATOM     16  C   UNL     1     -22.658  -5.846  13.103  0.00  0.00    +0.000 C 
ATOM     17  C   UNL     1     -24.430  -8.123  13.643  0.00  0.00    +0.000 C 
ATOM     18  C   UNL     1     -23.168  -6.427  14.348  0.00  0.00    +0.000 C 
ATOM     19  C   UNL     1     -23.962  -7.494  14.809  0.00  0.00    +0.000 C 
ATOM     20  C   UNL     1     -24.580  -8.921  11.260  0.00  0.00    +0.000 C 
ATOM     21  C   UNL     1     -21.146  -6.153  12.933  0.00  0.00    +0.000 C 
ATOM     22  C   UNL     1     -22.983  -4.344  12.944  0.00  0.00    +0.000 C 
BRANCH  19  23
ATOM     23  O   UNL     1     -23.639  -8.185  15.938  0.00  0.00    +0.000 OA
ATOM     24  H   UNL     1     -24.112  -9.034  16.002  0.00  0.00    +0.000 HD
ENDBRANCH  19  23
ENDBRANCH  11  14
ENDBRANCH   6  12
ENDBRANCH   1   2
BRANCH   1  25
ATOM     25  C   UNL     1     -21.027  -5.899   1.254  0.00  0.00    +0.000 C 
ATOM     26  C   UNL     1     -20.287  -5.693   0.333  0.00  0.00    +0.000 C 
BRANCH  26  28
ATOM     27  C   UNL     1     -18.592  -5.240  -1.761  0.00  0.00    +0.000 C 
ATOM     28  C   UNL     1     -19.339  -5.437  -0.843  0.00  0.00    +0.000 C 
BRANCH  27  29
ATOM     29  C   UNL     1     -17.631  -4.990  -2.930  0.00  0.00    +0.000 C 
BRANCH  29  30
ATOM     30  C   UNL     1     -16.821  -4.768  -3.916  0.00  0.00    +0.000 C 
ATOM     31  C   UNL     1     -17.185  -5.193  -5.306  0.00  0.00    +0.000 C 
BRANCH  30  33
ATOM     32  C   UNL     1     -14.489  -3.660  -3.468  0.00  0.00    +0.000 C 
ATOM     33  C   UNL     1     -15.559  -4.169  -3.672  0.00  0.00    +0.000 C 
BRANCH  32  39
ATOM     34  C   UNL     1     -13.100  -1.577  -3.352  0.00  0.00    +0.000 C 
ATOM     35  C   UNL     1     -12.093  -3.936  -2.922  0.00  0.00    +0.000 C 
ATOM     36  C   UNL     1     -11.813  -1.181  -2.763  0.00  0.00    +0.000 C 
ATOM     37  C   UNL     1     -10.664  -1.780  -2.208  0.00  0.00    +0.000 C 
ATOM     38  C   UNL     1     -11.001  -3.139  -2.372  0.00  0.00    +0.000 C 
ATOM     39  C   UNL     1     -13.319  -3.097  -3.245  0.00  0.00    +0.000 C 
ATOM     40  C   UNL     1     -14.232  -0.842  -2.570  0.00  0.00    +0.000 C 
ATOM     41  C   UNL     1     -13.143  -1.174  -4.850  0.00  0.00    +0.000 C 
ATOM     42  C   UNL     1     -11.638  -4.735  -4.147  0.00  0.00    +0.000 C 
BRANCH  35  43
ATOM     43  O   UNL     1     -12.438  -4.909  -1.960  0.00  0.00    +0.000 OA
ATOM     44  H   UNL     1     -12.178  -4.461  -1.132  0.00  0.00    +0.000 HD
ENDBRANCH  35  43
BRANCH  37  45
ATOM     45  O   UNL     1      -9.411  -1.316  -2.587  0.00  0.00    +0.000 OA
BRANCH  45  47
ATOM     46  O   UNL     1      -7.563  -2.424  -1.660  0.00  0.00    +0.000 OA
ATOM     47  C   UNL     1      -8.493  -1.640  -1.643  0.00  0.00    +0.000 C 
ATOM     48  C   UNL     1      -8.665  -0.917  -0.354  0.00  0.00    +0.000 C 
ENDBRANCH  45  47
ENDBRANCH  37  45
ENDBRANCH  32  39
ENDBRANCH  30  33
ENDBRANCH  29  30
ENDBRANCH  27  29
ENDBRANCH  26  28
ENDBRANCH   1  25
TORSDOF 13
ENDMDL
MODEL 3
REMARK VINA RESULT:      -6.0      6.909      7.977
REMARK  Name = 5289155_Peridinin.pdbqt.pdb
REMARK  13 active torsions:
REMARK  status: ('A' for Active; 'I' for Inactive)
REMARK    1  A    between atoms: C_1  and  C_3
REMARK    2  A    between atoms: C_3  and  C_25
REMARK    3  A    between atoms: C_6  and  C_12
REMARK    4  A    between atoms: C_11  and  C_14
REMARK    5  A    between atoms: C_19  and  O_23
REMARK    6  A    between atoms: C_26  and  C_28
REMARK    7  A    between atoms: C_27  and  C_31
REMARK    8  A    between atoms: C_29  and  C_31
REMARK    9  A    between atoms: C_29  and  C_42
REMARK   10  A    between atoms: C_33  and  O_43
REMARK   11  A    between atoms: C_35  and  O_45
REMARK   12  A    between atoms: C_37  and  C_41
REMARK   13  A    between atoms: O_45  and  C_47
REMARK                            x       y       z     vdW  Elec       q    Type
REMARK                         _______ _______ _______ _____ _____    ______ ____
ROOT
ATOM      1  C   UNL     1      -1.330   2.118   7.696  0.00  0.00    +0.000 C 
ENDROOT
BRANCH   1   2
ATOM      2  C   UNL     1      -1.411   3.082   8.558  0.00  0.00    +0.000 C 
ATOM      3  C   UNL     1      -0.357   3.242   9.610  0.00  0.00    +0.000 C 
ATOM      4  O   UNL     1      -4.666   4.471   7.877  0.00  0.00    +0.000 OA
ATOM      5  O   UNL     1      -6.733   5.504   8.067  0.00  0.00    +0.000 OA
ATOM      6  C   UNL     1      -4.786   6.385   9.193  0.00  0.00    +0.000 C 
ATOM      7  C   UNL     1      -3.565   5.991   9.223  0.00  0.00    +0.000 C 
ATOM      8  C   UNL     1      -5.545   5.449   8.331  0.00  0.00    +0.000 C 
ATOM      9  C   UNL     1      -3.445   4.860   8.419  0.00  0.00    +0.000 C 
ATOM     10  C   UNL     1      -2.475   4.009   8.485  0.00  0.00    +0.000 C 
BRANCH   6  12
ATOM     11  C   UNL     1      -5.681   8.470  10.481  0.00  0.00    +0.000 C 
ATOM     12  C   UNL     1      -5.273   7.507   9.889  0.00  0.00    +0.000 C 
BRANCH  11  14
ATOM     13  O   UNL     1      -5.306  10.782  10.920  0.00  0.00    +0.000 OA
ATOM     14  C   UNL     1      -6.164   9.639  11.199  0.00  0.00    +0.000 C 
ATOM     15  C   UNL     1      -6.631  10.876  10.403  0.00  0.00    +0.000 C 
ATOM     16  C   UNL     1      -6.664   9.483  12.678  0.00  0.00    +0.000 C 
ATOM     17  C   UNL     1      -7.416  11.843  11.101  0.00  0.00    +0.000 C 
ATOM     18  C   UNL     1      -7.364  10.722  13.027  0.00  0.00    +0.000 C 
ATOM     19  C   UNL     1      -7.840  11.910  12.439  0.00  0.00    +0.000 C 
ATOM     20  C   UNL     1      -6.691  10.923   8.873  0.00  0.00    +0.000 C 
ATOM     21  C   UNL     1      -7.647   8.283  12.664  0.00  0.00    +0.000 C 
ATOM     22  C   UNL     1      -5.410   9.219  13.541  0.00  0.00    +0.000 C 
BRANCH  19  23
ATOM     23  O   UNL     1      -9.032  12.458  12.807  0.00  0.00    +0.000 OA
ATOM     24  H   UNL     1      -9.647  12.545  12.057  0.00  0.00    +0.000 HD
ENDBRANCH  19  23
ENDBRANCH  11  14
ENDBRANCH   6  12
ENDBRANCH   1   2
BRANCH   1  25
ATOM     25  C   UNL     1      -1.234   0.977   6.676  0.00  0.00    +0.000 C 
ATOM     26  C   UNL     1      -1.154   0.088   5.874  0.00  0.00    +0.000 C 
BRANCH  26  28
ATOM     27  C   UNL     1      -0.964  -1.926   4.039  0.00  0.00    +0.000 C 
ATOM     28  C   UNL     1      -1.048  -1.044   4.847  0.00  0.00    +0.000 C 
BRANCH  27  29
ATOM     29  C   UNL     1      -0.859  -3.049   2.999  0.00  0.00    +0.000 C 
BRANCH  29  30
ATOM     30  C   UNL     1      -0.766  -3.990   2.115  0.00  0.00    +0.000 C 
ATOM     31  C   UNL     1       0.569  -4.366   1.546  0.00  0.00    +0.000 C 
BRANCH  30  33
ATOM     32  C   UNL     1      -2.930  -5.176   1.233  0.00  0.00    +0.000 C 
ATOM     33  C   UNL     1      -1.937  -4.632   1.639  0.00  0.00    +0.000 C 
BRANCH  32  39
ATOM     34  C   UNL     1      -4.727  -5.342  -0.506  0.00  0.00    +0.000 C 
ATOM     35  C   UNL     1      -4.660  -6.911   1.568  0.00  0.00    +0.000 C 
ATOM     36  C   UNL     1      -5.707  -6.348  -0.938  0.00  0.00    +0.000 C 
ATOM     37  C   UNL     1      -6.267  -7.559  -0.481  0.00  0.00    +0.000 C 
ATOM     38  C   UNL     1      -5.616  -7.666   0.765  0.00  0.00    +0.000 C 
ATOM     39  C   UNL     1      -4.014  -5.777   0.787  0.00  0.00    +0.000 C 
ATOM     40  C   UNL     1      -3.671  -5.180  -1.642  0.00  0.00    +0.000 C 
ATOM     41  C   UNL     1      -5.439  -3.987  -0.247  0.00  0.00    +0.000 C 
ATOM     42  C   UNL     1      -5.302  -6.392   2.858  0.00  0.00    +0.000 C 
BRANCH  35  43
ATOM     43  O   UNL     1      -3.658  -7.809   1.994  0.00  0.00    +0.000 OA
ATOM     44  H   UNL     1      -2.934  -7.596   1.377  0.00  0.00    +0.000 HD
ENDBRANCH  35  43
BRANCH  37  45
ATOM     45  O   UNL     1      -7.640  -7.745  -0.575  0.00  0.00    +0.000 OA
BRANCH  45  47
ATOM     46  O   UNL     1      -8.621  -9.874  -0.648  0.00  0.00    +0.000 OA
ATOM     47  C   UNL     1      -7.906  -8.982  -1.063  0.00  0.00    +0.000 C 
ATOM     48  C   UNL     1      -7.183  -9.308  -2.322  0.00  0.00    +0.000 C 
ENDBRANCH  45  47
ENDBRANCH  37  45
ENDBRANCH  32  39
ENDBRANCH  30  33
ENDBRANCH  29  30
ENDBRANCH  27  29
ENDBRANCH  26  28
ENDBRANCH   1  25
TORSDOF 13
ENDMDL
MODEL 4
REMARK VINA RESULT:      -5.9     19.659     26.149
REMARK  Name = 5289155_Peridinin.pdbqt.pdb
REMARK  13 active torsions:
REMARK  status: ('A' for Active; 'I' for Inactive)
REMARK    1  A    between atoms: C_1  and  C_3
REMARK    2  A    between atoms: C_3  and  C_25
REMARK    3  A    between atoms: C_6  and  C_12
REMARK    4  A    between atoms: C_11  and  C_14
REMARK    5  A    between atoms: C_19  and  O_23
REMARK    6  A    between atoms: C_26  and  C_28
REMARK    7  A    between atoms: C_27  and  C_31
REMARK    8  A    between atoms: C_29  and  C_31
REMARK    9  A    between atoms: C_29  and  C_42
REMARK   10  A    between atoms: C_33  and  O_43
REMARK   11  A    between atoms: C_35  and  O_45
REMARK   12  A    between atoms: C_37  and  C_41
REMARK   13  A    between atoms: O_45  and  C_47
REMARK                            x       y       z     vdW  Elec       q    Type
REMARK                         _______ _______ _______ _____ _____    ______ ____
ROOT
ATOM      1  C   UNL     1     -11.038 -18.627  18.100  0.00  0.00    +0.000 C 
ENDROOT
BRANCH   1   2
ATOM      2  C   UNL     1     -10.473 -18.792  19.254  0.00  0.00    +0.000 C 
ATOM      3  C   UNL     1     -11.100 -19.685  20.279  0.00  0.00    +0.000 C 
ATOM      4  O   UNL     1      -7.793 -16.383  19.165  0.00  0.00    +0.000 OA
ATOM      5  O   UNL     1      -6.173 -14.829  19.742  0.00  0.00    +0.000 OA
ATOM      6  C   UNL     1      -6.552 -16.799  21.088  0.00  0.00    +0.000 C 
ATOM      7  C   UNL     1      -7.372 -17.777  20.957  0.00  0.00    +0.000 C 
ATOM      8  C   UNL     1      -6.769 -15.870  19.954  0.00  0.00    +0.000 C 
ATOM      9  C   UNL     1      -8.115 -17.581  19.796  0.00  0.00    +0.000 C 
ATOM     10  C   UNL     1      -9.242 -18.157  19.536  0.00  0.00    +0.000 C 
BRANCH   6  12
ATOM     11  C   UNL     1      -4.850 -16.551  23.050  0.00  0.00    +0.000 C 
ATOM     12  C   UNL     1      -5.637 -16.668  22.149  0.00  0.00    +0.000 C 
BRANCH  11  14
ATOM     13  O   UNL     1      -4.130 -15.163  24.848  0.00  0.00    +0.000 OA
ATOM     14  C   UNL     1      -3.890 -16.408  24.132  0.00  0.00    +0.000 C 
ATOM     15  C   UNL     1      -4.394 -16.351  25.589  0.00  0.00    +0.000 C 
ATOM     16  C   UNL     1      -2.389 -16.796  23.887  0.00  0.00    +0.000 C 
ATOM     17  C   UNL     1      -3.433 -16.569  26.623  0.00  0.00    +0.000 C 
ATOM     18  C   UNL     1      -1.740 -16.849  25.200  0.00  0.00    +0.000 C 
ATOM     19  C   UNL     1      -2.048 -16.803  26.573  0.00  0.00    +0.000 C 
ATOM     20  C   UNL     1      -5.866 -16.516  25.980  0.00  0.00    +0.000 C 
ATOM     21  C   UNL     1      -2.421 -18.203  23.234  0.00  0.00    +0.000 C 
ATOM     22  C   UNL     1      -1.802 -15.717  22.952  0.00  0.00    +0.000 C 
BRANCH  19  23
ATOM     23  O   UNL     1      -1.404 -17.597  27.473  0.00  0.00    +0.000 OA
ATOM     24  H   UNL     1      -0.913 -18.321  27.045  0.00  0.00    +0.000 HD
ENDBRANCH  19  23
ENDBRANCH  11  14
ENDBRANCH   6  12
ENDBRANCH   1   2
BRANCH   1  25
ATOM     25  C   UNL     1     -11.708 -18.433  16.734  0.00  0.00    +0.000 C 
ATOM     26  C   UNL     1     -12.236 -18.284  15.668  0.00  0.00    +0.000 C 
BRANCH  26  28
ATOM     27  C   UNL     1     -13.446 -17.947  13.242  0.00  0.00    +0.000 C 
ATOM     28  C   UNL     1     -12.918 -18.097  14.309  0.00  0.00    +0.000 C 
BRANCH  27  29
ATOM     29  C   UNL     1     -14.118 -17.750  11.877  0.00  0.00    +0.000 C 
BRANCH  29  30
ATOM     30  C   UNL     1     -14.676 -17.587  10.720  0.00  0.00    +0.000 C 
ATOM     31  C   UNL     1     -16.152 -17.790  10.555  0.00  0.00    +0.000 C 
BRANCH  30  33
ATOM     32  C   UNL     1     -13.206 -17.001   8.631  0.00  0.00    +0.000 C 
ATOM     33  C   UNL     1     -13.880 -17.268   9.590  0.00  0.00    +0.000 C 
BRANCH  32  39
ATOM     34  C   UNL     1     -13.069 -16.587   6.163  0.00  0.00    +0.000 C 
ATOM     35  C   UNL     1     -10.967 -16.526   7.694  0.00  0.00    +0.000 C 
ATOM     36  C   UNL     1     -12.118 -15.959   5.235  0.00  0.00    +0.000 C 
ATOM     37  C   UNL     1     -10.781 -15.511   5.217  0.00  0.00    +0.000 C 
ATOM     38  C   UNL     1     -10.391 -15.874   6.523  0.00  0.00    +0.000 C 
ATOM     39  C   UNL     1     -12.472 -16.707   7.577  0.00  0.00    +0.000 C 
ATOM     40  C   UNL     1     -14.346 -15.693   6.222  0.00  0.00    +0.000 C 
ATOM     41  C   UNL     1     -13.440 -18.008   5.659  0.00  0.00    +0.000 C 
ATOM     42  C   UNL     1     -10.276 -17.861   7.985  0.00  0.00    +0.000 C 
BRANCH  35  43
ATOM     43  O   UNL     1     -10.684 -15.717   8.815  0.00  0.00    +0.000 OA
ATOM     44  H   UNL     1     -10.622 -14.834   8.405  0.00  0.00    +0.000 HD
ENDBRANCH  35  43
BRANCH  37  45
ATOM     45  O   UNL     1      -9.977 -15.829   4.130  0.00  0.00    +0.000 OA
BRANCH  45  47
ATOM     46  O   UNL     1     -10.226 -14.610   2.141  0.00  0.00    +0.000 OA
ATOM     47  C   UNL     1      -9.883 -14.762   3.299  0.00  0.00    +0.000 C 
ATOM     48  C   UNL     1      -9.232 -13.571   3.909  0.00  0.00    +0.000 C 
ENDBRANCH  45  47
ENDBRANCH  37  45
ENDBRANCH  32  39
ENDBRANCH  30  33
ENDBRANCH  29  30
ENDBRANCH  27  29
ENDBRANCH  26  28
ENDBRANCH   1  25
TORSDOF 13
ENDMDL
MODEL 5
REMARK VINA RESULT:      -5.9      1.720      2.226
REMARK  Name = 5289155_Peridinin.pdbqt.pdb
REMARK  13 active torsions:
REMARK  status: ('A' for Active; 'I' for Inactive)
REMARK    1  A    between atoms: C_1  and  C_3
REMARK    2  A    between atoms: C_3  and  C_25
REMARK    3  A    between atoms: C_6  and  C_12
REMARK    4  A    between atoms: C_11  and  C_14
REMARK    5  A    between atoms: C_19  and  O_23
REMARK    6  A    between atoms: C_26  and  C_28
REMARK    7  A    between atoms: C_27  and  C_31
REMARK    8  A    between atoms: C_29  and  C_31
REMARK    9  A    between atoms: C_29  and  C_42
REMARK   10  A    between atoms: C_33  and  O_43
REMARK   11  A    between atoms: C_35  and  O_45
REMARK   12  A    between atoms: C_37  and  C_41
REMARK   13  A    between atoms: O_45  and  C_47
REMARK                            x       y       z     vdW  Elec       q    Type
REMARK                         _______ _______ _______ _____ _____    ______ ____
ROOT
ATOM      1  C   UNL     1      -8.859   3.974   1.234  0.00  0.00    +0.000 C 
ENDROOT
BRANCH   1   2
ATOM      2  C   UNL     1      -9.751   4.914   1.197  0.00  0.00    +0.000 C 
ATOM      3  C   UNL     1     -10.041   5.627  -0.087  0.00  0.00    +0.000 C 
ATOM      4  O   UNL     1     -10.581   5.343   4.678  0.00  0.00    +0.000 OA
ATOM      5  O   UNL     1     -11.227   6.222   6.724  0.00  0.00    +0.000 OA
ATOM      6  C   UNL     1     -12.379   6.819   4.686  0.00  0.00    +0.000 C 
ATOM      7  C   UNL     1     -12.202   6.457   3.468  0.00  0.00    +0.000 C 
ATOM      8  C   UNL     1     -11.367   6.126   5.518  0.00  0.00    +0.000 C 
ATOM      9  C   UNL     1     -11.151   5.545   3.425  0.00  0.00    +0.000 C 
ATOM     10  C   UNL     1     -10.480   5.243   2.362  0.00  0.00    +0.000 C 
BRANCH   6  12
ATOM     11  C   UNL     1     -14.199   8.514   5.474  0.00  0.00    +0.000 C 
ATOM     12  C   UNL     1     -13.363   7.734   5.106  0.00  0.00    +0.000 C 
BRANCH  11  14
ATOM     13  O   UNL     1     -16.146   9.740   4.851  0.00  0.00    +0.000 OA
ATOM     14  C   UNL     1     -15.208   9.457   5.929  0.00  0.00    +0.000 C 
ATOM     15  C   UNL     1     -16.689   9.024   5.957  0.00  0.00    +0.000 C 
ATOM     16  C   UNL     1     -14.780  10.674   6.822  0.00  0.00    +0.000 C 
ATOM     17  C   UNL     1     -17.589   9.821   6.727  0.00  0.00    +0.000 C 
ATOM     18  C   UNL     1     -16.008  11.253   7.375  0.00  0.00    +0.000 C 
ATOM     19  C   UNL     1     -17.388  10.995   7.474  0.00  0.00    +0.000 C 
ATOM     20  C   UNL     1     -17.164   7.612   5.600  0.00  0.00    +0.000 C 
ATOM     21  C   UNL     1     -13.899  10.076   7.950  0.00  0.00    +0.000 C 
ATOM     22  C   UNL     1     -14.001  11.641   5.904  0.00  0.00    +0.000 C 
BRANCH  19  23
ATOM     23  O   UNL     1     -18.083  11.271   8.613  0.00  0.00    +0.000 OA
ATOM     24  H   UNL     1     -18.567  12.114   8.557  0.00  0.00    +0.000 HD
ENDBRANCH  19  23
ENDBRANCH  11  14
ENDBRANCH   6  12
ENDBRANCH   1   2
BRANCH   1  25
ATOM     25  C   UNL     1      -7.803   2.863   1.278  0.00  0.00    +0.000 C 
ATOM     26  C   UNL     1      -6.973   1.997   1.311  0.00  0.00    +0.000 C 
BRANCH  26  28
ATOM     27  C   UNL     1      -5.077   0.034   1.386  0.00  0.00    +0.000 C 
ATOM     28  C   UNL     1      -5.908   0.897   1.350  0.00  0.00    +0.000 C 
BRANCH  27  29
ATOM     29  C   UNL     1      -4.014  -1.071   1.440  0.00  0.00    +0.000 C 
BRANCH  29  30
ATOM     30  C   UNL     1      -3.117  -2.004   1.496  0.00  0.00    +0.000 C 
ATOM     31  C   UNL     1      -1.732  -1.694   1.979  0.00  0.00    +0.000 C 
BRANCH  30  33
ATOM     32  C   UNL     1      -3.691  -4.423   0.669  0.00  0.00    +0.000 C 
ATOM     33  C   UNL     1      -3.428  -3.312   1.047  0.00  0.00    +0.000 C 
BRANCH  32  39
ATOM     34  C   UNL     1      -4.099  -6.832   1.227  0.00  0.00    +0.000 C 
ATOM     35  C   UNL     1      -4.167  -5.948  -1.219  0.00  0.00    +0.000 C 
ATOM     36  C   UNL     1      -4.727  -7.989   0.573  0.00  0.00    +0.000 C 
ATOM     37  C   UNL     1      -5.176  -8.380  -0.704  0.00  0.00    +0.000 C 
ATOM     38  C   UNL     1      -4.817  -7.234  -1.444  0.00  0.00    +0.000 C 
ATOM     39  C   UNL     1      -3.983  -5.641   0.259  0.00  0.00    +0.000 C 
ATOM     40  C   UNL     1      -4.992  -6.421   2.438  0.00  0.00    +0.000 C 
ATOM     41  C   UNL     1      -2.677  -7.210   1.721  0.00  0.00    +0.000 C 
ATOM     42  C   UNL     1      -2.833  -5.859  -1.967  0.00  0.00    +0.000 C 
BRANCH  35  43
ATOM     43  O   UNL     1      -4.978  -4.952  -1.802  0.00  0.00    +0.000 OA
ATOM     44  H   UNL     1      -5.196  -5.359  -2.661  0.00  0.00    +0.000 HD
ENDBRANCH  35  43
BRANCH  37  45
ATOM     45  O   UNL     1      -4.858  -9.648  -1.173  0.00  0.00    +0.000 OA
BRANCH  45  47
ATOM     46  O   UNL     1      -7.020 -10.237  -1.865  0.00  0.00    +0.000 OA
ATOM     47  C   UNL     1      -5.823 -10.083  -2.020  0.00  0.00    +0.000 C 
ATOM     48  C   UNL     1      -5.326 -10.448  -3.374  0.00  0.00    +0.000 C 
ENDBRANCH  45  47
ENDBRANCH  37  45
ENDBRANCH  32  39
ENDBRANCH  30  33
ENDBRANCH  29  30
ENDBRANCH  27  29
ENDBRANCH  26  28
ENDBRANCH   1  25
TORSDOF 13
ENDMDL
MODEL 6
REMARK VINA RESULT:      -5.8     11.216     12.948
REMARK  Name = 5289155_Peridinin.pdbqt.pdb
REMARK  13 active torsions:
REMARK  status: ('A' for Active; 'I' for Inactive)
REMARK    1  A    between atoms: C_1  and  C_3
REMARK    2  A    between atoms: C_3  and  C_25
REMARK    3  A    between atoms: C_6  and  C_12
REMARK    4  A    between atoms: C_11  and  C_14
REMARK    5  A    between atoms: C_19  and  O_23
REMARK    6  A    between atoms: C_26  and  C_28
REMARK    7  A    between atoms: C_27  and  C_31
REMARK    8  A    between atoms: C_29  and  C_31
REMARK    9  A    between atoms: C_29  and  C_42
REMARK   10  A    between atoms: C_33  and  O_43
REMARK   11  A    between atoms: C_35  and  O_45
REMARK   12  A    between atoms: C_37  and  C_41
REMARK   13  A    between atoms: O_45  and  C_47
REMARK                            x       y       z     vdW  Elec       q    Type
REMARK                         _______ _______ _______ _____ _____    ______ ____
ROOT
ATOM      1  C   UNL     1     -20.683  -5.971   0.475  0.00  0.00    +0.000 C 
ENDROOT
BRANCH   1   2
ATOM      2  C   UNL     1     -21.165  -4.769   0.426  0.00  0.00    +0.000 C 
ATOM      3  C   UNL     1     -22.610  -4.523   0.735  0.00  0.00    +0.000 C 
ATOM      4  O   UNL     1     -18.424  -2.881  -0.958  0.00  0.00    +0.000 OA
ATOM      5  O   UNL     1     -17.143  -1.310  -2.081  0.00  0.00    +0.000 OA
ATOM      6  C   UNL     1     -19.102  -0.660  -0.826  0.00  0.00    +0.000 C 
ATOM      7  C   UNL     1     -19.939  -1.344  -0.135  0.00  0.00    +0.000 C 
ATOM      8  C   UNL     1     -18.093  -1.596  -1.376  0.00  0.00    +0.000 C 
ATOM      9  C   UNL     1     -19.549  -2.681  -0.163  0.00  0.00    +0.000 C 
ATOM     10  C   UNL     1     -20.320  -3.679   0.117  0.00  0.00    +0.000 C 
BRANCH   6  12
ATOM     11  C   UNL     1     -19.241   1.921  -1.181  0.00  0.00    +0.000 C 
ATOM     12  C   UNL     1     -19.181   0.732  -1.014  0.00  0.00    +0.000 C 
BRANCH  11  14
ATOM     13  O   UNL     1     -19.841   3.650  -2.707  0.00  0.00    +0.000 OA
ATOM     14  C   UNL     1     -19.302   3.359  -1.386  0.00  0.00    +0.000 C 
ATOM     15  C   UNL     1     -20.671   4.034  -1.614  0.00  0.00    +0.000 C 
ATOM     16  C   UNL     1     -18.110   4.258  -0.904  0.00  0.00    +0.000 C 
ATOM     17  C   UNL     1     -20.736   5.451  -1.456  0.00  0.00    +0.000 C 
ATOM     18  C   UNL     1     -18.573   5.648  -0.952  0.00  0.00    +0.000 C 
ATOM     19  C   UNL     1     -19.746   6.401  -1.151  0.00  0.00    +0.000 C 
ATOM     20  C   UNL     1     -22.003   3.280  -1.560  0.00  0.00    +0.000 C 
ATOM     21  C   UNL     1     -17.824   3.826   0.559  0.00  0.00    +0.000 C 
ATOM     22  C   UNL     1     -16.927   3.968  -1.854  0.00  0.00    +0.000 C 
BRANCH  19  23
ATOM     23  O   UNL     1     -20.002   7.523  -0.422  0.00  0.00    +0.000 OA
ATOM     24  H   UNL     1     -20.530   8.175  -0.917  0.00  0.00    +0.000 HD
ENDBRANCH  19  23
ENDBRANCH  11  14
ENDBRANCH   6  12
ENDBRANCH   1   2
BRANCH   1  25
ATOM     25  C   UNL     1     -20.113  -7.393   0.533  0.00  0.00    +0.000 C 
ATOM     26  C   UNL     1     -19.663  -8.504   0.573  0.00  0.00    +0.000 C 
BRANCH  26  28
ATOM     27  C   UNL     1     -18.628 -11.030   0.659  0.00  0.00    +0.000 C 
ATOM     28  C   UNL     1     -19.085  -9.922   0.619  0.00  0.00    +0.000 C 
BRANCH  27  29
ATOM     29  C   UNL     1     -18.037 -12.445   0.712  0.00  0.00    +0.000 C 
BRANCH  29  30
ATOM     30  C   UNL     1     -17.543 -13.642   0.747  0.00  0.00    +0.000 C 
ATOM     31  C   UNL     1     -18.383 -14.820   0.356  0.00  0.00    +0.000 C 
BRANCH  30  33
ATOM     32  C   UNL     1     -15.096 -14.020   1.604  0.00  0.00    +0.000 C 
ATOM     33  C   UNL     1     -16.218 -13.846   1.209  0.00  0.00    +0.000 C 
BRANCH  32  39
ATOM     34  C   UNL     1     -12.653 -13.480   1.442  0.00  0.00    +0.000 C 
ATOM     35  C   UNL     1     -13.573 -15.234   3.128  0.00  0.00    +0.000 C 
ATOM     36  C   UNL     1     -11.465 -13.639   2.292  0.00  0.00    +0.000 C 
ATOM     37  C   UNL     1     -11.064 -14.338   3.448  0.00  0.00    +0.000 C 
ATOM     38  C   UNL     1     -12.247 -15.061   3.710  0.00  0.00    +0.000 C 
ATOM     39  C   UNL     1     -13.867 -14.215   2.039  0.00  0.00    +0.000 C 
ATOM     40  C   UNL     1     -12.976 -11.957   1.345  0.00  0.00    +0.000 C 
ATOM     41  C   UNL     1     -12.373 -14.054   0.027  0.00  0.00    +0.000 C 
ATOM     42  C   UNL     1     -13.774 -16.662   2.612  0.00  0.00    +0.000 C 
BRANCH  35  43
ATOM     43  O   UNL     1     -14.517 -15.087   4.167  0.00  0.00    +0.000 OA
ATOM     44  H   UNL     1     -14.796 -16.011   4.306  0.00  0.00    +0.000 HD
ENDBRANCH  35  43
BRANCH  37  45
ATOM     45  O   UNL     1      -9.832 -14.979   3.457  0.00  0.00    +0.000 OA
BRANCH  45  47
ATOM     46  O   UNL     1      -9.115 -15.737   5.558  0.00  0.00    +0.000 OA
ATOM     47  C   UNL     1      -9.279 -14.898   4.692  0.00  0.00    +0.000 C 
ATOM     48  C   UNL     1      -8.798 -13.537   5.055  0.00  0.00    +0.000 C 
ENDBRANCH  45  47
ENDBRANCH  37  45
ENDBRANCH  32  39
ENDBRANCH  30  33
ENDBRANCH  29  30
ENDBRANCH  27  29
ENDBRANCH  26  28
ENDBRANCH   1  25
TORSDOF 13
ENDMDL
MODEL 7
REMARK VINA RESULT:      -5.8     21.141     26.057
REMARK  Name = 5289155_Peridinin.pdbqt.pdb
REMARK  13 active torsions:
REMARK  status: ('A' for Active; 'I' for Inactive)
REMARK    1  A    between atoms: C_1  and  C_3
REMARK    2  A    between atoms: C_3  and  C_25
REMARK    3  A    between atoms: C_6  and  C_12
REMARK    4  A    between atoms: C_11  and  C_14
REMARK    5  A    between atoms: C_19  and  O_23
REMARK    6  A    between atoms: C_26  and  C_28
REMARK    7  A    between atoms: C_27  and  C_31
REMARK    8  A    between atoms: C_29  and  C_31
REMARK    9  A    between atoms: C_29  and  C_42
REMARK   10  A    between atoms: C_33  and  O_43
REMARK   11  A    between atoms: C_35  and  O_45
REMARK   12  A    between atoms: C_37  and  C_41
REMARK   13  A    between atoms: O_45  and  C_47
REMARK                            x       y       z     vdW  Elec       q    Type
REMARK                         _______ _______ _______ _____ _____    ______ ____
ROOT
ATOM      1  C   UNL     1      -0.023 -14.082  21.350  0.00  0.00    +0.000 C 
ENDROOT
BRANCH   1   2
ATOM      2  C   UNL     1      -0.782 -15.113  21.549  0.00  0.00    +0.000 C 
ATOM      3  C   UNL     1      -0.186 -16.410  22.002  0.00  0.00    +0.000 C 
ATOM      4  O   UNL     1      -3.976 -13.985  20.318  0.00  0.00    +0.000 OA
ATOM      5  O   UNL     1      -6.101 -13.886  19.396  0.00  0.00    +0.000 OA
ATOM      6  C   UNL     1      -5.467 -15.677  20.887  0.00  0.00    +0.000 C 
ATOM      7  C   UNL     1      -4.371 -15.924  21.508  0.00  0.00    +0.000 C 
ATOM      8  C   UNL     1      -5.277 -14.431  20.108  0.00  0.00    +0.000 C 
ATOM      9  C   UNL     1      -3.460 -14.913  21.217  0.00  0.00    +0.000 C 
ATOM     10  C   UNL     1      -2.180 -15.007  21.374  0.00  0.00    +0.000 C 
BRANCH   6  12
ATOM     11  C   UNL     1      -7.600 -17.176  21.001  0.00  0.00    +0.000 C 
ATOM     12  C   UNL     1      -6.615 -16.489  20.953  0.00  0.00    +0.000 C 
BRANCH  11  14
ATOM     13  O   UNL     1      -9.151 -18.270  22.442  0.00  0.00    +0.000 OA
ATOM     14  C   UNL     1      -8.797 -17.999  21.055  0.00  0.00    +0.000 C 
ATOM     15  C   UNL     1     -10.068 -17.442  21.731  0.00  0.00    +0.000 C 
ATOM     16  C   UNL     1      -8.961 -19.189  20.046  0.00  0.00    +0.000 C 
ATOM     17  C   UNL     1     -11.300 -18.111  21.457  0.00  0.00    +0.000 C 
ATOM     18  C   UNL     1     -10.357 -19.627  20.122  0.00  0.00    +0.000 C 
ATOM     19  C   UNL     1     -11.591 -19.249  20.685  0.00  0.00    +0.000 C 
ATOM     20  C   UNL     1     -10.173 -16.021  22.291  0.00  0.00    +0.000 C 
ATOM     21  C   UNL     1      -8.647 -18.597  18.646  0.00  0.00    +0.000 C 
ATOM     22  C   UNL     1      -7.949 -20.274  20.476  0.00  0.00    +0.000 C 
BRANCH  19  23
ATOM     23  O   UNL     1     -12.759 -19.392  19.999  0.00  0.00    +0.000 OA
ATOM     24  H   UNL     1     -12.616 -19.513  19.043  0.00  0.00    +0.000 HD
ENDBRANCH  19  23
ENDBRANCH  11  14
ENDBRANCH   6  12
ENDBRANCH   1   2
BRANCH   1  25
ATOM     25  C   UNL     1       0.874 -12.861  21.115  0.00  0.00    +0.000 C 
ATOM     26  C   UNL     1       1.574 -11.905  20.926  0.00  0.00    +0.000 C 
BRANCH  26  28
ATOM     27  C   UNL     1       3.161  -9.725  20.487  0.00  0.00    +0.000 C 
ATOM     28  C   UNL     1       2.465 -10.684  20.677  0.00  0.00    +0.000 C 
BRANCH  27  29
ATOM     29  C   UNL     1       4.046  -8.496  20.249  0.00  0.00    +0.000 C 
BRANCH  29  30
ATOM     30  C   UNL     1       4.791  -7.457  20.038  0.00  0.00    +0.000 C 
ATOM     31  C   UNL     1       5.368  -6.692  21.190  0.00  0.00    +0.000 C 
BRANCH  30  33
ATOM     32  C   UNL     1       5.208  -6.629  17.587  0.00  0.00    +0.000 C 
ATOM     33  C   UNL     1       5.016  -7.007  18.712  0.00  0.00    +0.000 C 
BRANCH  32  39
ATOM     34  C   UNL     1       5.832  -7.173  15.222  0.00  0.00    +0.000 C 
ATOM     35  C   UNL     1       5.304  -4.744  15.988  0.00  0.00    +0.000 C 
ATOM     36  C   UNL     1       5.695  -6.534  13.906  0.00  0.00    +0.000 C 
ATOM     37  C   UNL     1       5.385  -5.272  13.359  0.00  0.00    +0.000 C 
ATOM     38  C   UNL     1       5.218  -4.532  14.547  0.00  0.00    +0.000 C 
ATOM     39  C   UNL     1       5.414  -6.216  16.352  0.00  0.00    +0.000 C 
ATOM     40  C   UNL     1       4.905  -8.427  15.245  0.00  0.00    +0.000 C 
ATOM     41  C   UNL     1       7.306  -7.600  15.452  0.00  0.00    +0.000 C 
ATOM     42  C   UNL     1       6.453  -3.940  16.603  0.00  0.00    +0.000 C 
BRANCH  35  43
ATOM     43  O   UNL     1       4.134  -4.210  16.569  0.00  0.00    +0.000 OA
ATOM     44  H   UNL     1       3.620  -5.020  16.746  0.00  0.00    +0.000 HD
ENDBRANCH  35  43
BRANCH  37  45
ATOM     45  O   UNL     1       6.166  -4.773  12.324  0.00  0.00    +0.000 OA
BRANCH  45  47
ATOM     46  O   UNL     1       8.295  -4.909  13.300  0.00  0.00    +0.000 OA
ATOM     47  C   UNL     1       7.346  -4.321  12.814  0.00  0.00    +0.000 C 
ATOM     48  C   UNL     1       7.503  -2.843  12.757  0.00  0.00    +0.000 C 
ENDBRANCH  45  47
ENDBRANCH  37  45
ENDBRANCH  32  39
ENDBRANCH  30  33
ENDBRANCH  29  30
ENDBRANCH  27  29
ENDBRANCH  26  28
ENDBRANCH   1  25
TORSDOF 13
ENDMDL
MODEL 8
REMARK VINA RESULT:      -5.7     11.091     12.891
REMARK  Name = 5289155_Peridinin.pdbqt.pdb
REMARK  13 active torsions:
REMARK  status: ('A' for Active; 'I' for Inactive)
REMARK    1  A    between atoms: C_1  and  C_3
REMARK    2  A    between atoms: C_3  and  C_25
REMARK    3  A    between atoms: C_6  and  C_12
REMARK    4  A    between atoms: C_11  and  C_14
REMARK    5  A    between atoms: C_19  and  O_23
REMARK    6  A    between atoms: C_26  and  C_28
REMARK    7  A    between atoms: C_27  and  C_31
REMARK    8  A    between atoms: C_29  and  C_31
REMARK    9  A    between atoms: C_29  and  C_42
REMARK   10  A    between atoms: C_33  and  O_43
REMARK   11  A    between atoms: C_35  and  O_45
REMARK   12  A    between atoms: C_37  and  C_41
REMARK   13  A    between atoms: O_45  and  C_47
REMARK                            x       y       z     vdW  Elec       q    Type
REMARK                         _______ _______ _______ _____ _____    ______ ____
ROOT
ATOM      1  C   UNL     1     -20.446  -4.967  -0.071  0.00  0.00    +0.000 C 
ENDROOT
BRANCH   1   2
ATOM      2  C   UNL     1     -20.812  -3.733  -0.219  0.00  0.00    +0.000 C 
ATOM      3  C   UNL     1     -22.267  -3.379  -0.261  0.00  0.00    +0.000 C 
ATOM      4  O   UNL     1     -17.689  -2.063  -0.886  0.00  0.00    +0.000 OA
ATOM      5  O   UNL     1     -16.064  -0.597  -1.652  0.00  0.00    +0.000 OA
ATOM      6  C   UNL     1     -18.213   0.203  -0.892  0.00  0.00    +0.000 C 
ATOM      7  C   UNL     1     -19.239  -0.413  -0.429  0.00  0.00    +0.000 C 
ATOM      8  C   UNL     1     -17.174  -0.809  -1.198  0.00  0.00    +0.000 C 
ATOM      9  C   UNL     1     -18.953  -1.775  -0.380  0.00  0.00    +0.000 C 
ATOM     10  C   UNL     1     -19.840  -2.712  -0.304  0.00  0.00    +0.000 C 
BRANCH   6  12
ATOM     11  C   UNL     1     -18.077   2.785  -1.244  0.00  0.00    +0.000 C 
ATOM     12  C   UNL     1     -18.142   1.597  -1.077  0.00  0.00    +0.000 C 
BRANCH  11  14
ATOM     13  O   UNL     1     -19.275   4.844  -1.165  0.00  0.00    +0.000 OA
ATOM     14  C   UNL     1     -17.990   4.221  -1.453  0.00  0.00    +0.000 C 
ATOM     15  C   UNL     1     -18.223   5.175  -0.262  0.00  0.00    +0.000 C 
ATOM     16  C   UNL     1     -17.209   4.774  -2.696  0.00  0.00    +0.000 C 
ATOM     17  C   UNL     1     -17.788   6.526  -0.412  0.00  0.00    +0.000 C 
ATOM     18  C   UNL     1     -17.023   6.212  -2.482  0.00  0.00    +0.000 C 
ATOM     19  C   UNL     1     -17.191   7.198  -1.492  0.00  0.00    +0.000 C 
ATOM     20  C   UNL     1     -18.470   4.692   1.170  0.00  0.00    +0.000 C 
ATOM     21  C   UNL     1     -15.842   4.038  -2.692  0.00  0.00    +0.000 C 
ATOM     22  C   UNL     1     -18.063   4.440  -3.938  0.00  0.00    +0.000 C 
BRANCH  19  23
ATOM     23  O   UNL     1     -16.281   8.198  -1.324  0.00  0.00    +0.000 OA
ATOM     24  H   UNL     1     -16.548   8.830  -0.632  0.00  0.00    +0.000 HD
ENDBRANCH  19  23
ENDBRANCH  11  14
ENDBRANCH   6  12
ENDBRANCH   1   2
BRANCH   1  25
ATOM     25  C   UNL     1     -20.012  -6.427   0.105  0.00  0.00    +0.000 C 
ATOM     26  C   UNL     1     -19.673  -7.571   0.237  0.00  0.00    +0.000 C 
BRANCH  26  28
ATOM     27  C   UNL     1     -18.904 -10.175   0.530  0.00  0.00    +0.000 C 
ATOM     28  C   UNL     1     -19.241  -9.031   0.398  0.00  0.00    +0.000 C 
BRANCH  27  29
ATOM     29  C   UNL     1     -18.473 -11.637   0.706  0.00  0.00    +0.000 C 
BRANCH  29  30
ATOM     30  C   UNL     1     -18.099 -12.868   0.851  0.00  0.00    +0.000 C 
ATOM     31  C   UNL     1     -18.891 -13.979   0.228  0.00  0.00    +0.000 C 
BRANCH  30  33
ATOM     32  C   UNL     1     -16.008 -13.436   2.323  0.00  0.00    +0.000 C 
ATOM     33  C   UNL     1     -16.967 -13.174   1.647  0.00  0.00    +0.000 C 
BRANCH  32  39
ATOM     34  C   UNL     1     -15.053 -13.998   4.572  0.00  0.00    +0.000 C 
ATOM     35  C   UNL     1     -13.559 -13.755   2.457  0.00  0.00    +0.000 C 
ATOM     36  C   UNL     1     -13.813 -14.592   5.089  0.00  0.00    +0.000 C 
ATOM     37  C   UNL     1     -12.514 -14.910   4.642  0.00  0.00    +0.000 C 
ATOM     38  C   UNL     1     -12.592 -14.425   3.320  0.00  0.00    +0.000 C 
ATOM     39  C   UNL     1     -14.954 -13.727   3.060  0.00  0.00    +0.000 C 
ATOM     40  C   UNL     1     -16.215 -15.004   4.836  0.00  0.00    +0.000 C 
ATOM     41  C   UNL     1     -15.339 -12.656   5.298  0.00  0.00    +0.000 C 
ATOM     42  C   UNL     1     -13.093 -12.343   2.088  0.00  0.00    +0.000 C 
BRANCH  35  43
ATOM     43  O   UNL     1     -13.597 -14.457   1.233  0.00  0.00    +0.000 OA
ATOM     44  H   UNL     1     -13.779 -13.735   0.603  0.00  0.00    +0.000 HD
ENDBRANCH  35  43
BRANCH  37  45
ATOM     45  O   UNL     1     -11.426 -14.589   5.444  0.00  0.00    +0.000 OA
BRANCH  45  47
ATOM     46  O   UNL     1     -10.608 -16.784   5.579  0.00  0.00    +0.000 OA
ATOM     47  C   UNL     1     -10.507 -15.585   5.395  0.00  0.00    +0.000 C 
ATOM     48  C   UNL     1      -9.129 -15.126   5.071  0.00  0.00    +0.000 C 
ENDBRANCH  45  47
ENDBRANCH  37  45
ENDBRANCH  32  39
ENDBRANCH  30  33
ENDBRANCH  29  30
ENDBRANCH  27  29
ENDBRANCH  26  28
ENDBRANCH   1  25
TORSDOF 13
ENDMDL
MODEL 9
REMARK VINA RESULT:      -5.6     21.202     26.610
REMARK  Name = 5289155_Peridinin.pdbqt.pdb
REMARK  13 active torsions:
REMARK  status: ('A' for Active; 'I' for Inactive)
REMARK    1  A    between atoms: C_1  and  C_3
REMARK    2  A    between atoms: C_3  and  C_25
REMARK    3  A    between atoms: C_6  and  C_12
REMARK    4  A    between atoms: C_11  and  C_14
REMARK    5  A    between atoms: C_19  and  O_23
REMARK    6  A    between atoms: C_26  and  C_28
REMARK    7  A    between atoms: C_27  and  C_31
REMARK    8  A    between atoms: C_29  and  C_31
REMARK    9  A    between atoms: C_29  and  C_42
REMARK   10  A    between atoms: C_33  and  O_43
REMARK   11  A    between atoms: C_35  and  O_45
REMARK   12  A    between atoms: C_37  and  C_41
REMARK   13  A    between atoms: O_45  and  C_47
REMARK                            x       y       z     vdW  Elec       q    Type
REMARK                         _______ _______ _______ _____ _____    ______ ____
ROOT
ATOM      1  C   UNL     1     -25.217  -2.802  16.959  0.00  0.00    +0.000 C 
ENDROOT
BRANCH   1   2
ATOM      2  C   UNL     1     -25.305  -2.835  15.666  0.00  0.00    +0.000 C 
ATOM      3  C   UNL     1     -26.433  -2.139  14.971  0.00  0.00    +0.000 C 
ATOM      4  O   UNL     1     -22.708  -5.166  14.763  0.00  0.00    +0.000 OA
ATOM      5  O   UNL     1     -21.438  -6.781  13.691  0.00  0.00    +0.000 OA
ATOM      6  C   UNL     1     -22.609  -5.078  12.441  0.00  0.00    +0.000 C 
ATOM      7  C   UNL     1     -23.349  -4.100  12.817  0.00  0.00    +0.000 C 
ATOM      8  C   UNL     1     -22.157  -5.799  13.654  0.00  0.00    +0.000 C 
ATOM      9  C   UNL     1     -23.409  -4.099  14.208  0.00  0.00    +0.000 C 
ATOM     10  C   UNL     1     -24.314  -3.496  14.906  0.00  0.00    +0.000 C 
BRANCH   6  12
ATOM     11  C   UNL     1     -22.078  -5.634   9.947  0.00  0.00    +0.000 C 
ATOM     12  C   UNL     1     -22.321  -5.383  11.097  0.00  0.00    +0.000 C 
BRANCH  11  14
ATOM     13  O   UNL     1     -21.535  -7.355   8.390  0.00  0.00    +0.000 OA
ATOM     14  C   UNL     1     -21.792  -5.930   8.553  0.00  0.00    +0.000 C 
ATOM     15  C   UNL     1     -22.727  -6.877   7.772  0.00  0.00    +0.000 C 
ATOM     16  C   UNL     1     -20.877  -4.956   7.730  0.00  0.00    +0.000 C 
ATOM     17  C   UNL     1     -22.630  -6.864   6.348  0.00  0.00    +0.000 C 
ATOM     18  C   UNL     1     -21.018  -5.325   6.319  0.00  0.00    +0.000 C 
ATOM     19  C   UNL     1     -21.788  -6.150   5.478  0.00  0.00    +0.000 C 
ATOM     20  C   UNL     1     -24.007  -7.476   8.364  0.00  0.00    +0.000 C 
ATOM     21  C   UNL     1     -21.444  -3.534   7.985  0.00  0.00    +0.000 C 
ATOM     22  C   UNL     1     -19.443  -5.133   8.274  0.00  0.00    +0.000 C 
BRANCH  19  23
ATOM     23  O   UNL     1     -22.190  -5.731   4.245  0.00  0.00    +0.000 OA
ATOM     24  H   UNL     1     -21.616  -5.031   3.885  0.00  0.00    +0.000 HD
ENDBRANCH  19  23
ENDBRANCH  11  14
ENDBRANCH   6  12
ENDBRANCH   1   2
BRANCH   1  25
ATOM     25  C   UNL     1     -25.113  -2.763  18.488  0.00  0.00    +0.000 C 
ATOM     26  C   UNL     1     -25.034  -2.727  19.685  0.00  0.00    +0.000 C 
BRANCH  26  28
ATOM     27  C   UNL     1     -24.861  -2.639  22.409  0.00  0.00    +0.000 C 
ATOM     28  C   UNL     1     -24.937  -2.674  21.213  0.00  0.00    +0.000 C 
BRANCH  27  29
ATOM     29  C   UNL     1     -24.768  -2.600  23.940  0.00  0.00    +0.000 C 
BRANCH  29  30
ATOM     30  C   UNL     1     -24.692  -2.578  25.233  0.00  0.00    +0.000 C 
ATOM     31  C   UNL     1     -25.447  -1.549  26.018  0.00  0.00    +0.000 C 
BRANCH  30  33
ATOM     32  C   UNL     1     -23.131  -4.273  26.480  0.00  0.00    +0.000 C 
ATOM     33  C   UNL     1     -23.848  -3.497  25.907  0.00  0.00    +0.000 C 
BRANCH  32  39
ATOM     34  C   UNL     1     -21.294  -4.668  28.139  0.00  0.00    +0.000 C 
ATOM     35  C   UNL     1     -22.406  -6.614  26.818  0.00  0.00    +0.000 C 
ATOM     36  C   UNL     1     -20.781  -5.805  28.915  0.00  0.00    +0.000 C 
ATOM     37  C   UNL     1     -20.888  -7.211  28.948  0.00  0.00    +0.000 C 
ATOM     38  C   UNL     1     -21.738  -7.411  27.841  0.00  0.00    +0.000 C 
ATOM     39  C   UNL     1     -22.348  -5.123  27.114  0.00  0.00    +0.000 C 
ATOM     40  C   UNL     1     -21.952  -3.664  29.136  0.00  0.00    +0.000 C 
ATOM     41  C   UNL     1     -20.131  -3.976  27.381  0.00  0.00    +0.000 C 
ATOM     42  C   UNL     1     -21.852  -6.917  25.423  0.00  0.00    +0.000 C 
BRANCH  35  43
ATOM     43  O   UNL     1     -23.755  -7.024  26.772  0.00  0.00    +0.000 OA
ATOM     44  H   UNL     1     -23.722  -7.853  27.285  0.00  0.00    +0.000 HD
ENDBRANCH  35  43
BRANCH  37  45
ATOM     45  O   UNL     1     -19.736  -7.973  29.097  0.00  0.00    +0.000 OA
BRANCH  45  47
ATOM     46  O   UNL     1     -20.686  -9.924  29.986  0.00  0.00    +0.000 OA
ATOM     47  C   UNL     1     -20.057  -9.288  29.160  0.00  0.00    +0.000 C 
ATOM     48  C   UNL     1     -19.538 -10.097  28.025  0.00  0.00    +0.000 C 
ENDBRANCH  45  47
ENDBRANCH  37  45
ENDBRANCH  32  39
ENDBRANCH  30  33
ENDBRANCH  29  30
ENDBRANCH  27  29
ENDBRANCH  26  28
ENDBRANCH   1  25
TORSDOF 13
ENDMDL
