REMARK  Name = 5318517_Andrographolide.pdbqt.pdb
REMARK  6 active torsions:
REMARK  status: ('A' for Active; 'I' for Inactive)
REMARK    1  A    between atoms: C_3  and  C_16
REMARK    2  A    between atoms: C_4  and  C_19
REMARK    3  A    between atoms: C_6  and  O_14
REMARK    4  A    between atoms: C_16  and  O_17
REMARK    5  A    between atoms: C_22  and  C_23
REMARK    6  A    between atoms: C_24  and  O_27
REMARK                            x       y       z     vdW  Elec       q    Type
REMARK                         _______ _______ _______ _____ _____    ______ ____
ROOT
ATOM      1  C   UNL     1      -1.306  -0.170  -0.605  0.00  0.00    +0.000 C 
ATOM      2  C   UNL     1      -2.649  -0.858  -0.214  0.00  0.00    +0.000 C 
ATOM      3  C   UNL     1      -3.843  -0.076   0.362  0.00  0.00    +0.000 C 
ATOM      4  C   UNL     1      -0.017  -1.034  -0.503  0.00  0.00    +0.000 C 
ATOM      5  C   UNL     1      -1.207   0.980   0.289  0.00  0.00    +0.000 C 
ATOM      6  C   UNL     1      -3.529   1.267   1.088  0.00  0.00    +0.000 C 
ATOM      7  C   UNL     1      -2.641  -2.270  -0.397  0.00  0.00    +0.000 C 
ATOM      8  C   UNL     1      -2.199   1.724   1.117  0.00  0.00    +0.000 C 
ATOM      9  C   UNL     1      -1.443   0.298  -2.086  0.00  0.00    +0.000 C 
ATOM     10  C   UNL     1      -1.386  -3.046  -0.637  0.00  0.00    +0.000 C 
ATOM     11  C   UNL     1      -0.091  -2.490  -0.692  0.00  0.00    +0.000 C 
ATOM     12  C   UNL     1      -4.537  -0.985   1.440  0.00  0.00    +0.000 C 
ATOM     13  C   UNL     1       0.949  -3.325  -0.674  0.00  0.00    +0.000 C 
ENDROOT
BRANCH   6  14
ATOM     14  O   UNL     1      -4.551   2.096   1.517  0.00  0.00    +0.000 OA
ATOM     15  H   UNL     1      -4.216   2.912   1.929  0.00  0.00    +0.000 HD
ENDBRANCH   6  14
BRANCH   4  16
ATOM     16  C   UNL     1       1.265  -0.405  -0.352  0.00  0.00    +0.000 C 
ATOM     17  C   UNL     1       2.627   0.276  -0.189  0.00  0.00    +0.000 C 
BRANCH  17  20
ATOM     18  O   UNL     1       5.583   1.822   1.059  0.00  0.00    +0.000 OA
ATOM     19  O   UNL     1       3.654   1.487   2.327  0.00  0.00    +0.000 OA
ATOM     20  C   UNL     1       3.778   0.853  -0.042  0.00  0.00    +0.000 C 
ATOM     21  C   UNL     1       4.827   0.988  -1.021  0.00  0.00    +0.000 C 
ATOM     22  C   UNL     1       4.271   1.410   1.279  0.00  0.00    +0.000 C 
ATOM     23  C   UNL     1       5.819   1.552  -0.216  0.00  0.00    +0.000 C 
BRANCH  21  24
ATOM     24  O   UNL     1       5.044   0.000  -1.939  0.00  0.00    +0.000 OA
ATOM     25  H   UNL     1       5.947   0.035  -2.301  0.00  0.00    +0.000 HD
ENDBRANCH  21  24
ENDBRANCH  17  20
ENDBRANCH   4  16
BRANCH   3  26
ATOM     26  C   UNL     1      -4.784   0.202  -0.760  0.00  0.00    +0.000 C 
BRANCH  26  27
ATOM     27  O   UNL     1      -5.634   0.441  -1.763  0.00  0.00    +0.000 OA
ATOM     28  H   UNL     1      -6.551   0.264  -1.485  0.00  0.00    +0.000 HD
ENDBRANCH  26  27
ENDBRANCH   3  26
TORSDOF 6
