MODEL 1
REMARK VINA RESULT:      -6.6      0.000      0.000
REMARK  Name = 5318517_Andrographolide.pdbqt.pdb
REMARK  6 active torsions:
REMARK  status: ('A' for Active; 'I' for Inactive)
REMARK    1  A    between atoms: C_3  and  C_16
REMARK    2  A    between atoms: C_4  and  C_19
REMARK    3  A    between atoms: C_6  and  O_14
REMARK    4  A    between atoms: C_16  and  O_17
REMARK    5  A    between atoms: C_22  and  C_23
REMARK    6  A    between atoms: C_24  and  O_27
REMARK                            x       y       z     vdW  Elec       q    Type
REMARK                         _______ _______ _______ _____ _____    ______ ____
ROOT
ATOM      1  C   UNL     1      -8.102  -1.471  22.186  0.00  0.00    +0.000 C 
ATOM      2  C   UNL     1      -9.189  -1.508  21.070  0.00  0.00    +0.000 C 
ATOM      3  C   UNL     1      -9.787  -2.823  20.539  0.00  0.00    +0.000 C 
ATOM      4  C   UNL     1      -7.111  -0.273  22.163  0.00  0.00    +0.000 C 
ATOM      5  C   UNL     1      -7.372  -2.726  22.032  0.00  0.00    +0.000 C 
ATOM      6  C   UNL     1      -8.919  -4.109  20.687  0.00  0.00    +0.000 C 
ATOM      7  C   UNL     1      -9.533  -0.222  20.565  0.00  0.00    +0.000 C 
ATOM      8  C   UNL     1      -7.682  -4.016  21.352  0.00  0.00    +0.000 C 
ATOM      9  C   UNL     1      -8.849  -1.437  23.554  0.00  0.00    +0.000 C 
ATOM     10  C   UNL     1      -8.719   1.000  20.847  0.00  0.00    +0.000 C 
ATOM     11  C   UNL     1      -7.535   1.022  21.613  0.00  0.00    +0.000 C 
ATOM     12  C   UNL     1     -10.028  -2.653  18.996  0.00  0.00    +0.000 C 
ATOM     13  C   UNL     1      -6.791   2.129  21.583  0.00  0.00    +0.000 C 
ENDROOT
BRANCH   6  14
ATOM     14  O   UNL     1      -9.432  -5.352  20.360  0.00  0.00    +0.000 OA
ATOM     15  H   UNL     1     -10.141  -5.295  19.695  0.00  0.00    +0.000 HD
ENDBRANCH   6  14
BRANCH   4  16
ATOM     16  C   UNL     1      -5.824  -0.387  22.791  0.00  0.00    +0.000 C 
ATOM     17  C   UNL     1      -4.454  -0.521  23.463  0.00  0.00    +0.000 C 
BRANCH  17  20
ATOM     18  O   UNL     1      -1.719  -1.230  25.631  0.00  0.00    +0.000 OA
ATOM     19  O   UNL     1      -3.958  -1.357  26.274  0.00  0.00    +0.000 OA
ATOM     20  C   UNL     1      -3.292  -0.637  24.023  0.00  0.00    +0.000 C 
ATOM     21  C   UNL     1      -1.998  -0.451  23.415  0.00  0.00    +0.000 C 
ATOM     22  C   UNL     1      -3.095  -1.117  25.448  0.00  0.00    +0.000 C 
ATOM     23  C   UNL     1      -1.187  -0.858  24.476  0.00  0.00    +0.000 C 
BRANCH  21  24
ATOM     24  O   UNL     1      -1.795  -0.796  22.109  0.00  0.00    +0.000 OA
ATOM     25  H   UNL     1      -1.301  -0.109  21.627  0.00  0.00    +0.000 HD
ENDBRANCH  21  24
ENDBRANCH  17  20
ENDBRANCH   4  16
BRANCH   3  26
ATOM     26  C   UNL     1     -11.083  -3.045  21.241  0.00  0.00    +0.000 C 
BRANCH  26  27
ATOM     27  O   UNL     1     -12.241  -3.238  21.880  0.00  0.00    +0.000 OA
ATOM     28  H   UNL     1     -12.084  -3.441  22.820  0.00  0.00    +0.000 HD
ENDBRANCH  26  27
ENDBRANCH   3  26
TORSDOF 6
ENDMDL
MODEL 2
REMARK VINA RESULT:      -6.2     17.460     20.077
REMARK  Name = 5318517_Andrographolide.pdbqt.pdb
REMARK  6 active torsions:
REMARK  status: ('A' for Active; 'I' for Inactive)
REMARK    1  A    between atoms: C_3  and  C_16
REMARK    2  A    between atoms: C_4  and  C_19
REMARK    3  A    between atoms: C_6  and  O_14
REMARK    4  A    between atoms: C_16  and  O_17
REMARK    5  A    between atoms: C_22  and  C_23
REMARK    6  A    between atoms: C_24  and  O_27
REMARK                            x       y       z     vdW  Elec       q    Type
REMARK                         _______ _______ _______ _____ _____    ______ ____
ROOT
ATOM      1  C   UNL     1       4.266 -12.551  13.163  0.00  0.00    +0.000 C 
ATOM      2  C   UNL     1       5.219 -11.439  13.697  0.00  0.00    +0.000 C 
ATOM      3  C   UNL     1       6.312 -10.796  12.825  0.00  0.00    +0.000 C 
ATOM      4  C   UNL     1       3.725 -13.573  14.203  0.00  0.00    +0.000 C 
ATOM      5  C   UNL     1       5.046 -13.245  12.141  0.00  0.00    +0.000 C 
ATOM      6  C   UNL     1       6.848 -11.633  11.625  0.00  0.00    +0.000 C 
ATOM      7  C   UNL     1       5.009 -11.119  15.068  0.00  0.00    +0.000 C 
ATOM      8  C   UNL     1       6.265 -12.886  11.362  0.00  0.00    +0.000 C 
ATOM      9  C   UNL     1       3.038 -11.836  12.523  0.00  0.00    +0.000 C 
ATOM     10  C   UNL     1       4.185 -11.970  15.980  0.00  0.00    +0.000 C 
ATOM     11  C   UNL     1       3.547 -13.171  15.605  0.00  0.00    +0.000 C 
ATOM     12  C   UNL     1       7.560 -10.526  13.741  0.00  0.00    +0.000 C 
ATOM     13  C   UNL     1       3.049 -13.942  16.573  0.00  0.00    +0.000 C 
ENDROOT
BRANCH   6  14
ATOM     14  O   UNL     1       7.732 -11.081  10.714  0.00  0.00    +0.000 OA
ATOM     15  H   UNL     1       7.280 -10.737   9.923  0.00  0.00    +0.000 HD
ENDBRANCH   6  14
BRANCH   4  16
ATOM     16  C   UNL     1       3.278 -14.869  13.777  0.00  0.00    +0.000 C 
ATOM     17  C   UNL     1       2.811 -16.254  13.318  0.00  0.00    +0.000 C 
BRANCH  17  20
ATOM     18  O   UNL     1       1.421 -19.525  13.077  0.00  0.00    +0.000 OA
ATOM     19  O   UNL     1       1.730 -18.386  15.089  0.00  0.00    +0.000 OA
ATOM     20  C   UNL     1       2.421 -17.429  12.936  0.00  0.00    +0.000 C 
ATOM     21  C   UNL     1       2.365 -17.945  11.591  0.00  0.00    +0.000 C 
ATOM     22  C   UNL     1       1.831 -18.461  13.877  0.00  0.00    +0.000 C 
ATOM     23  C   UNL     1       1.738 -19.167  11.841  0.00  0.00    +0.000 C 
BRANCH  21  24
ATOM     24  O   UNL     1       2.061 -17.118  10.548  0.00  0.00    +0.000 OA
ATOM     25  H   UNL     1       1.856 -17.617   9.738  0.00  0.00    +0.000 HD
ENDBRANCH  21  24
ENDBRANCH  17  20
ENDBRANCH   4  16
BRANCH   3  26
ATOM     26  C   UNL     1       5.771  -9.510  12.300  0.00  0.00    +0.000 C 
BRANCH  26  27
ATOM     27  O   UNL     1       5.280  -8.356  11.839  0.00  0.00    +0.000 OA
ATOM     28  H   UNL     1       4.615  -8.519  11.146  0.00  0.00    +0.000 HD
ENDBRANCH  26  27
ENDBRANCH   3  26
TORSDOF 6
ENDMDL
MODEL 3
REMARK VINA RESULT:      -6.2      3.447      7.221
REMARK  Name = 5318517_Andrographolide.pdbqt.pdb
REMARK  6 active torsions:
REMARK  status: ('A' for Active; 'I' for Inactive)
REMARK    1  A    between atoms: C_3  and  C_16
REMARK    2  A    between atoms: C_4  and  C_19
REMARK    3  A    between atoms: C_6  and  O_14
REMARK    4  A    between atoms: C_16  and  O_17
REMARK    5  A    between atoms: C_22  and  C_23
REMARK    6  A    between atoms: C_24  and  O_27
REMARK                            x       y       z     vdW  Elec       q    Type
REMARK                         _______ _______ _______ _____ _____    ______ ____
ROOT
ATOM      1  C   UNL     1      -8.958   1.892  20.506  0.00  0.00    +0.000 C 
ATOM      2  C   UNL     1      -8.077   3.094  20.049  0.00  0.00    +0.000 C 
ATOM      3  C   UNL     1      -8.443   3.980  18.846  0.00  0.00    +0.000 C 
ATOM      4  C   UNL     1      -8.228   0.709  21.203  0.00  0.00    +0.000 C 
ATOM      5  C   UNL     1      -9.607   1.426  19.283  0.00  0.00    +0.000 C 
ATOM      6  C   UNL     1      -9.353   3.348  17.749  0.00  0.00    +0.000 C 
ATOM      7  C   UNL     1      -6.890   3.256  20.820  0.00  0.00    +0.000 C 
ATOM      8  C   UNL     1      -9.843   2.045  17.948  0.00  0.00    +0.000 C 
ATOM      9  C   UNL     1     -10.014   2.450  21.507  0.00  0.00    +0.000 C 
ATOM     10  C   UNL     1      -6.386   2.206  21.757  0.00  0.00    +0.000 C 
ATOM     11  C   UNL     1      -6.999   0.955  21.972  0.00  0.00    +0.000 C 
ATOM     12  C   UNL     1      -7.109   4.370  18.112  0.00  0.00    +0.000 C 
ATOM     13  C   UNL     1      -6.315   0.032  22.650  0.00  0.00    +0.000 C 
ENDROOT
BRANCH   6  14
ATOM     14  O   UNL     1      -9.839   4.114  16.703  0.00  0.00    +0.000 OA
ATOM     15  H   UNL     1     -10.678   3.768  16.351  0.00  0.00    +0.000 HD
ENDBRANCH   6  14
BRANCH   4  16
ATOM     16  C   UNL     1      -8.816  -0.601  21.209  0.00  0.00    +0.000 C 
ATOM     17  C   UNL     1      -9.445  -1.997  21.204  0.00  0.00    +0.000 C 
BRANCH  17  20
ATOM     18  O   UNL     1     -10.056  -5.506  21.205  0.00  0.00    +0.000 OA
ATOM     19  O   UNL     1      -7.968  -4.548  20.797  0.00  0.00    +0.000 OA
ATOM     20  C   UNL     1      -9.970  -3.182  21.194  0.00  0.00    +0.000 C 
ATOM     21  C   UNL     1     -11.347  -3.537  21.431  0.00  0.00    +0.000 C 
ATOM     22  C   UNL     1      -9.161  -4.453  21.032  0.00  0.00    +0.000 C 
ATOM     23  C   UNL     1     -11.227  -4.929  21.428  0.00  0.00    +0.000 C 
BRANCH  21  24
ATOM     24  O   UNL     1     -12.098  -2.827  22.324  0.00  0.00    +0.000 OA
ATOM     25  H   UNL     1     -13.045  -3.037  22.247  0.00  0.00    +0.000 HD
ENDBRANCH  21  24
ENDBRANCH  17  20
ENDBRANCH   4  16
BRANCH   3  26
ATOM     26  C   UNL     1      -9.117   5.201  19.372  0.00  0.00    +0.000 C 
BRANCH  26  27
ATOM     27  O   UNL     1      -9.718   6.292  19.856  0.00  0.00    +0.000 OA
ATOM     28  H   UNL     1     -10.573   6.438  19.413  0.00  0.00    +0.000 HD
ENDBRANCH  26  27
ENDBRANCH   3  26
TORSDOF 6
ENDMDL
MODEL 4
REMARK VINA RESULT:      -6.1      1.107      1.752
REMARK  Name = 5318517_Andrographolide.pdbqt.pdb
REMARK  6 active torsions:
REMARK  status: ('A' for Active; 'I' for Inactive)
REMARK    1  A    between atoms: C_3  and  C_16
REMARK    2  A    between atoms: C_4  and  C_19
REMARK    3  A    between atoms: C_6  and  O_14
REMARK    4  A    between atoms: C_16  and  O_17
REMARK    5  A    between atoms: C_22  and  C_23
REMARK    6  A    between atoms: C_24  and  O_27
REMARK                            x       y       z     vdW  Elec       q    Type
REMARK                         _______ _______ _______ _____ _____    ______ ____
ROOT
ATOM      1  C   UNL     1      -8.226  -1.080  22.061  0.00  0.00    +0.000 C 
ATOM      2  C   UNL     1      -9.289  -1.335  20.950  0.00  0.00    +0.000 C 
ATOM      3  C   UNL     1      -9.749  -2.749  20.552  0.00  0.00    +0.000 C 
ATOM      4  C   UNL     1      -7.356   0.201  21.921  0.00  0.00    +0.000 C 
ATOM      5  C   UNL     1      -7.374  -2.266  22.035  0.00  0.00    +0.000 C 
ATOM      6  C   UNL     1      -8.760  -3.922  20.831  0.00  0.00    +0.000 C 
ATOM      7  C   UNL     1      -9.750  -0.145  20.318  0.00  0.00    +0.000 C 
ATOM      8  C   UNL     1      -7.548  -3.642  21.487  0.00  0.00    +0.000 C 
ATOM      9  C   UNL     1      -8.990  -0.984  23.416  0.00  0.00    +0.000 C 
ATOM     10  C   UNL     1      -9.064   1.173  20.479  0.00  0.00    +0.000 C 
ATOM     11  C   UNL     1      -7.897   1.388  21.243  0.00  0.00    +0.000 C 
ATOM     12  C   UNL     1      -9.984  -2.758  18.999  0.00  0.00    +0.000 C 
ATOM     13  C   UNL     1      -7.265   2.554  21.104  0.00  0.00    +0.000 C 
ENDROOT
BRANCH   6  14
ATOM     14  O   UNL     1      -9.145  -5.236  20.628  0.00  0.00    +0.000 OA
ATOM     15  H   UNL     1      -8.750  -5.616  19.824  0.00  0.00    +0.000 HD
ENDBRANCH   6  14
BRANCH   4  16
ATOM     16  C   UNL     1      -6.073   0.277  22.562  0.00  0.00    +0.000 C 
ATOM     17  C   UNL     1      -4.710   0.362  23.255  0.00  0.00    +0.000 C 
BRANCH  17  20
ATOM     18  O   UNL     1      -1.244   0.419  24.073  0.00  0.00    +0.000 OA
ATOM     19  O   UNL     1      -2.087  -0.329  22.031  0.00  0.00    +0.000 OA
ATOM     20  C   UNL     1      -3.559   0.427  23.846  0.00  0.00    +0.000 C 
ATOM     21  C   UNL     1      -3.279   0.892  25.181  0.00  0.00    +0.000 C 
ATOM     22  C   UNL     1      -2.246   0.109  23.157  0.00  0.00    +0.000 C 
ATOM     23  C   UNL     1      -1.884   0.849  25.151  0.00  0.00    +0.000 C 
BRANCH  21  24
ATOM     24  O   UNL     1      -4.010   1.911  25.723  0.00  0.00    +0.000 OA
ATOM     25  H   UNL     1      -3.919   2.733  25.209  0.00  0.00    +0.000 HD
ENDBRANCH  21  24
ENDBRANCH  17  20
ENDBRANCH   4  16
BRANCH   3  26
ATOM     26  C   UNL     1     -11.026  -3.027  21.269  0.00  0.00    +0.000 C 
BRANCH  26  27
ATOM     27  O   UNL     1     -12.166  -3.272  21.921  0.00  0.00    +0.000 OA
ATOM     28  H   UNL     1     -12.210  -2.749  22.742  0.00  0.00    +0.000 HD
ENDBRANCH  26  27
ENDBRANCH   3  26
TORSDOF 6
ENDMDL
MODEL 5
REMARK VINA RESULT:      -6.0      3.718      6.590
REMARK  Name = 5318517_Andrographolide.pdbqt.pdb
REMARK  6 active torsions:
REMARK  status: ('A' for Active; 'I' for Inactive)
REMARK    1  A    between atoms: C_3  and  C_16
REMARK    2  A    between atoms: C_4  and  C_19
REMARK    3  A    between atoms: C_6  and  O_14
REMARK    4  A    between atoms: C_16  and  O_17
REMARK    5  A    between atoms: C_22  and  C_23
REMARK    6  A    between atoms: C_24  and  O_27
REMARK                            x       y       z     vdW  Elec       q    Type
REMARK                         _______ _______ _______ _____ _____    ______ ____
ROOT
ATOM      1  C   UNL     1      -8.244  -1.901  22.603  0.00  0.00    +0.000 C 
ATOM      2  C   UNL     1      -8.704  -0.710  21.709  0.00  0.00    +0.000 C 
ATOM      3  C   UNL     1      -8.772   0.737  22.228  0.00  0.00    +0.000 C 
ATOM      4  C   UNL     1      -8.838  -3.300  22.271  0.00  0.00    +0.000 C 
ATOM      5  C   UNL     1      -8.619  -1.510  23.959  0.00  0.00    +0.000 C 
ATOM      6  C   UNL     1      -8.945   0.933  23.764  0.00  0.00    +0.000 C 
ATOM      7  C   UNL     1      -9.093  -1.100  20.396  0.00  0.00    +0.000 C 
ATOM      8  C   UNL     1      -8.957  -0.204  24.593  0.00  0.00    +0.000 C 
ATOM      9  C   UNL     1      -6.694  -2.004  22.472  0.00  0.00    +0.000 C 
ATOM     10  C   UNL     1      -9.336  -2.525  20.015  0.00  0.00    +0.000 C 
ATOM     11  C   UNL     1      -9.229  -3.625  20.892  0.00  0.00    +0.000 C 
ATOM     12  C   UNL     1     -10.025   1.423  21.573  0.00  0.00    +0.000 C 
ATOM     13  C   UNL     1      -9.703  -4.801  20.480  0.00  0.00    +0.000 C 
ENDROOT
BRANCH   6  14
ATOM     14  O   UNL     1      -8.883   2.195  24.329  0.00  0.00    +0.000 OA
ATOM     15  H   UNL     1      -8.100   2.694  24.033  0.00  0.00    +0.000 HD
ENDBRANCH   6  14
BRANCH   4  16
ATOM     16  C   UNL     1      -8.888  -4.322  23.279  0.00  0.00    +0.000 C 
ATOM     17  C   UNL     1      -8.950  -5.416  24.349  0.00  0.00    +0.000 C 
BRANCH  17  20
ATOM     18  O   UNL     1      -9.921  -8.022  26.574  0.00  0.00    +0.000 OA
ATOM     19  O   UNL     1     -11.428  -6.681  25.403  0.00  0.00    +0.000 OA
ATOM     20  C   UNL     1      -9.000  -6.348  25.248  0.00  0.00    +0.000 C 
ATOM     21  C   UNL     1      -7.894  -7.014  25.888  0.00  0.00    +0.000 C 
ATOM     22  C   UNL     1     -10.291  -6.992  25.713  0.00  0.00    +0.000 C 
ATOM     23  C   UNL     1      -8.598  -7.979  26.613  0.00  0.00    +0.000 C 
BRANCH  21  24
ATOM     24  O   UNL     1      -6.741  -7.255  25.197  0.00  0.00    +0.000 OA
ATOM     25  H   UNL     1      -6.119  -6.508  25.260  0.00  0.00    +0.000 HD
ENDBRANCH  21  24
ENDBRANCH  17  20
ENDBRANCH   4  16
BRANCH   3  26
ATOM     26  C   UNL     1      -7.524   1.430  21.800  0.00  0.00    +0.000 C 
BRANCH  26  27
ATOM     27  O   UNL     1      -6.411   2.058  21.409  0.00  0.00    +0.000 OA
ATOM     28  H   UNL     1      -6.579   3.010  21.289  0.00  0.00    +0.000 HD
ENDBRANCH  26  27
ENDBRANCH   3  26
TORSDOF 6
ENDMDL
MODEL 6
REMARK VINA RESULT:      -5.9     21.488     25.042
REMARK  Name = 5318517_Andrographolide.pdbqt.pdb
REMARK  6 active torsions:
REMARK  status: ('A' for Active; 'I' for Inactive)
REMARK    1  A    between atoms: C_3  and  C_16
REMARK    2  A    between atoms: C_4  and  C_19
REMARK    3  A    between atoms: C_6  and  O_14
REMARK    4  A    between atoms: C_16  and  O_17
REMARK    5  A    between atoms: C_22  and  C_23
REMARK    6  A    between atoms: C_24  and  O_27
REMARK                            x       y       z     vdW  Elec       q    Type
REMARK                         _______ _______ _______ _____ _____    ______ ____
ROOT
ATOM      1  C   UNL     1      -3.681  -6.845  -0.580  0.00  0.00    +0.000 C 
ATOM      2  C   UNL     1      -2.211  -6.914  -0.066  0.00  0.00    +0.000 C 
ATOM      3  C   UNL     1      -1.017  -7.161  -1.005  0.00  0.00    +0.000 C 
ATOM      4  C   UNL     1      -4.795  -7.281   0.413  0.00  0.00    +0.000 C 
ATOM      5  C   UNL     1      -3.701  -7.705  -1.760  0.00  0.00    +0.000 C 
ATOM      6  C   UNL     1      -1.307  -7.905  -2.344  0.00  0.00    +0.000 C 
ATOM      7  C   UNL     1      -2.093  -6.777   1.346  0.00  0.00    +0.000 C 
ATOM      8  C   UNL     1      -2.636  -8.246  -2.653  0.00  0.00    +0.000 C 
ATOM      9  C   UNL     1      -3.959  -5.363  -0.979  0.00  0.00    +0.000 C 
ATOM     10  C   UNL     1      -3.267  -6.871   2.267  0.00  0.00    +0.000 C 
ATOM     11  C   UNL     1      -4.595  -7.118   1.860  0.00  0.00    +0.000 C 
ATOM     12  C   UNL     1       0.019  -8.061  -0.239  0.00  0.00    +0.000 C 
ATOM     13  C   UNL     1      -5.493  -7.412   2.802  0.00  0.00    +0.000 C 
ENDROOT
BRANCH   6  14
ATOM     14  O   UNL     1      -0.319  -8.050  -3.302  0.00  0.00    +0.000 OA
ATOM     15  H   UNL     1      -0.686  -8.180  -4.194  0.00  0.00    +0.000 HD
ENDBRANCH   6  14
BRANCH   4  16
ATOM     16  C   UNL     1      -6.070  -7.723  -0.079  0.00  0.00    +0.000 C 
ATOM     17  C   UNL     1      -7.434  -8.189  -0.594  0.00  0.00    +0.000 C 
BRANCH  17  20
ATOM     18  O   UNL     1     -10.192  -9.999  -1.937  0.00  0.00    +0.000 OA
ATOM     19  O   UNL     1      -7.975 -10.707  -2.086  0.00  0.00    +0.000 OA
ATOM     20  C   UNL     1      -8.591  -8.576  -1.033  0.00  0.00    +0.000 C 
ATOM     21  C   UNL     1      -9.863  -7.922  -0.855  0.00  0.00    +0.000 C 
ATOM     22  C   UNL     1      -8.817  -9.895  -1.745  0.00  0.00    +0.000 C 
ATOM     23  C   UNL     1     -10.698  -8.891  -1.418  0.00  0.00    +0.000 C 
BRANCH  21  24
ATOM     24  O   UNL     1     -10.134  -7.244   0.299  0.00  0.00    +0.000 OA
ATOM     25  H   UNL     1      -9.523  -6.498   0.431  0.00  0.00    +0.000 HD
ENDBRANCH  21  24
ENDBRANCH  17  20
ENDBRANCH   4  16
BRANCH   3  26
ATOM     26  C   UNL     1      -0.412  -5.836  -1.323  0.00  0.00    +0.000 C 
BRANCH  26  27
ATOM     27  O   UNL     1       0.126  -4.649  -1.619  0.00  0.00    +0.000 OA
ATOM     28  H   UNL     1       1.091  -4.726  -1.725  0.00  0.00    +0.000 HD
ENDBRANCH  26  27
ENDBRANCH   3  26
TORSDOF 6
ENDMDL
MODEL 7
REMARK VINA RESULT:      -5.8      3.721      6.219
REMARK  Name = 5318517_Andrographolide.pdbqt.pdb
REMARK  6 active torsions:
REMARK  status: ('A' for Active; 'I' for Inactive)
REMARK    1  A    between atoms: C_3  and  C_16
REMARK    2  A    between atoms: C_4  and  C_19
REMARK    3  A    between atoms: C_6  and  O_14
REMARK    4  A    between atoms: C_16  and  O_17
REMARK    5  A    between atoms: C_22  and  C_23
REMARK    6  A    between atoms: C_24  and  O_27
REMARK                            x       y       z     vdW  Elec       q    Type
REMARK                         _______ _______ _______ _____ _____    ______ ____
ROOT
ATOM      1  C   UNL     1      -9.207  -1.229  21.988  0.00  0.00    +0.000 C 
ATOM      2  C   UNL     1      -9.890  -2.383  22.784  0.00  0.00    +0.000 C 
ATOM      3  C   UNL     1      -9.773  -3.859  22.365  0.00  0.00    +0.000 C 
ATOM      4  C   UNL     1      -9.898   0.163  22.035  0.00  0.00    +0.000 C 
ATOM      5  C   UNL     1      -9.152  -1.712  20.612  0.00  0.00    +0.000 C 
ATOM      6  C   UNL     1      -9.475  -4.151  20.863  0.00  0.00    +0.000 C 
ATOM      7  C   UNL     1     -10.661  -1.932  23.893  0.00  0.00    +0.000 C 
ATOM      8  C   UNL     1      -9.261  -3.065  19.995  0.00  0.00    +0.000 C 
ATOM      9  C   UNL     1      -7.768  -1.060  22.567  0.00  0.00    +0.000 C 
ATOM     10  C   UNL     1     -11.032  -0.497  24.088  0.00  0.00    +0.000 C 
ATOM     11  C   UNL     1     -10.689   0.552  23.211  0.00  0.00    +0.000 C 
ATOM     12  C   UNL     1     -11.152  -4.553  22.663  0.00  0.00    +0.000 C 
ATOM     13  C   UNL     1     -11.286   1.732  23.385  0.00  0.00    +0.000 C 
ENDROOT
BRANCH   6  14
ATOM     14  O   UNL     1      -9.224  -5.440  20.428  0.00  0.00    +0.000 OA
ATOM     15  H   UNL     1      -9.985  -6.031  20.566  0.00  0.00    +0.000 HD
ENDBRANCH   6  14
BRANCH   4  16
ATOM     16  C   UNL     1      -9.664   1.122  20.992  0.00  0.00    +0.000 C 
ATOM     17  C   UNL     1      -9.425   2.147  19.879  0.00  0.00    +0.000 C 
BRANCH  17  20
ATOM     18  O   UNL     1      -8.264   4.839  17.857  0.00  0.00    +0.000 OA
ATOM     19  O   UNL     1      -7.749   4.593  20.119  0.00  0.00    +0.000 OA
ATOM     20  C   UNL     1      -9.225   3.021  18.944  0.00  0.00    +0.000 C 
ATOM     21  C   UNL     1      -9.707   2.985  17.586  0.00  0.00    +0.000 C 
ATOM     22  C   UNL     1      -8.319   4.226  19.106  0.00  0.00    +0.000 C 
ATOM     23  C   UNL     1      -9.039   4.101  17.077  0.00  0.00    +0.000 C 
BRANCH  21  24
ATOM     24  O   UNL     1      -9.832   1.792  16.932  0.00  0.00    +0.000 OA
ATOM     25  H   UNL     1     -10.681   1.727  16.459  0.00  0.00    +0.000 HD
ENDBRANCH  21  24
ENDBRANCH  17  20
ENDBRANCH   4  16
BRANCH   3  26
ATOM     26  C   UNL     1      -8.696  -4.478  23.189  0.00  0.00    +0.000 C 
BRANCH  26  27
ATOM     27  O   UNL     1      -7.724  -5.023  23.927  0.00  0.00    +0.000 OA
ATOM     28  H   UNL     1      -6.980  -4.402  24.026  0.00  0.00    +0.000 HD
ENDBRANCH  26  27
ENDBRANCH   3  26
TORSDOF 6
ENDMDL
MODEL 8
REMARK VINA RESULT:      -5.6     18.152     20.799
REMARK  Name = 5318517_Andrographolide.pdbqt.pdb
REMARK  6 active torsions:
REMARK  status: ('A' for Active; 'I' for Inactive)
REMARK    1  A    between atoms: C_3  and  C_16
REMARK    2  A    between atoms: C_4  and  C_19
REMARK    3  A    between atoms: C_6  and  O_14
REMARK    4  A    between atoms: C_16  and  O_17
REMARK    5  A    between atoms: C_22  and  C_23
REMARK    6  A    between atoms: C_24  and  O_27
REMARK                            x       y       z     vdW  Elec       q    Type
REMARK                         _______ _______ _______ _____ _____    ______ ____
ROOT
ATOM      1  C   UNL     1     -23.018  -3.420   8.361  0.00  0.00    +0.000 C 
ATOM      2  C   UNL     1     -22.944  -4.627   7.378  0.00  0.00    +0.000 C 
ATOM      3  C   UNL     1     -22.729  -6.074   7.857  0.00  0.00    +0.000 C 
ATOM      4  C   UNL     1     -22.551  -2.040   7.818  0.00  0.00    +0.000 C 
ATOM      5  C   UNL     1     -22.189  -3.817   9.495  0.00  0.00    +0.000 C 
ATOM      6  C   UNL     1     -22.017  -6.269   9.230  0.00  0.00    +0.000 C 
ATOM      7  C   UNL     1     -23.046  -4.253   6.008  0.00  0.00    +0.000 C 
ATOM      8  C   UNL     1     -21.677  -5.130   9.982  0.00  0.00    +0.000 C 
ATOM      9  C   UNL     1     -24.508  -3.273   8.798  0.00  0.00    +0.000 C 
ATOM     10  C   UNL     1     -22.922  -2.837   5.545  0.00  0.00    +0.000 C 
ATOM     11  C   UNL     1     -22.677  -1.732   6.387  0.00  0.00    +0.000 C 
ATOM     12  C   UNL     1     -21.815  -6.797   6.802  0.00  0.00    +0.000 C 
ATOM     13  C   UNL     1     -22.355  -0.570   5.815  0.00  0.00    +0.000 C 
ENDROOT
BRANCH   6  14
ATOM     14  O   UNL     1     -21.902  -7.527   9.796  0.00  0.00    +0.000 OA
ATOM     15  H   UNL     1     -21.681  -8.209   9.137  0.00  0.00    +0.000 HD
ENDBRANCH   6  14
BRANCH   4  16
ATOM     16  C   UNL     1     -22.114  -1.016   8.726  0.00  0.00    +0.000 C 
ATOM     17  C   UNL     1     -21.659   0.078   9.696  0.00  0.00    +0.000 C 
BRANCH  17  20
ATOM     18  O   UNL     1     -20.832   2.015  12.568  0.00  0.00    +0.000 OA
ATOM     19  O   UNL     1     -22.110   0.065  12.637  0.00  0.00    +0.000 OA
ATOM     20  C   UNL     1     -21.276   0.998  10.524  0.00  0.00    +0.000 C 
ATOM     21  C   UNL     1     -20.512   2.184  10.231  0.00  0.00    +0.000 C 
ATOM     22  C   UNL     1     -21.490   0.915  12.023  0.00  0.00    +0.000 C 
ATOM     23  C   UNL     1     -20.315   2.656  11.531  0.00  0.00    +0.000 C 
BRANCH  21  24
ATOM     24  O   UNL     1     -19.549   2.162   9.262  0.00  0.00    +0.000 OA
ATOM     25  H   UNL     1     -18.671   2.384   9.620  0.00  0.00    +0.000 HD
ENDBRANCH  21  24
ENDBRANCH  17  20
ENDBRANCH   4  16
BRANCH   3  26
ATOM     26  C   UNL     1     -24.064  -6.732   7.919  0.00  0.00    +0.000 C 
BRANCH  26  27
ATOM     27  O   UNL     1     -25.267  -7.312   7.971  0.00  0.00    +0.000 OA
ATOM     28  H   UNL     1     -25.903  -6.834   7.409  0.00  0.00    +0.000 HD
ENDBRANCH  26  27
ENDBRANCH   3  26
TORSDOF 6
ENDMDL
MODEL 9
REMARK VINA RESULT:      -5.6     17.324     19.372
REMARK  Name = 5318517_Andrographolide.pdbqt.pdb
REMARK  6 active torsions:
REMARK  status: ('A' for Active; 'I' for Inactive)
REMARK    1  A    between atoms: C_3  and  C_16
REMARK    2  A    between atoms: C_4  and  C_19
REMARK    3  A    between atoms: C_6  and  O_14
REMARK    4  A    between atoms: C_16  and  O_17
REMARK    5  A    between atoms: C_22  and  C_23
REMARK    6  A    between atoms: C_24  and  O_27
REMARK                            x       y       z     vdW  Elec       q    Type
REMARK                         _______ _______ _______ _____ _____    ______ ____
ROOT
ATOM      1  C   UNL     1       3.567 -15.691  14.019  0.00  0.00    +0.000 C 
ATOM      2  C   UNL     1       2.946 -16.916  14.756  0.00  0.00    +0.000 C 
ATOM      3  C   UNL     1       2.405 -18.147  14.007  0.00  0.00    +0.000 C 
ATOM      4  C   UNL     1       3.437 -14.308  14.718  0.00  0.00    +0.000 C 
ATOM      5  C   UNL     1       2.894 -15.660  12.724  0.00  0.00    +0.000 C 
ATOM      6  C   UNL     1       1.949 -17.937  12.532  0.00  0.00    +0.000 C 
ATOM      7  C   UNL     1       2.886 -16.760  16.171  0.00  0.00    +0.000 C 
ATOM      8  C   UNL     1       2.118 -16.669  11.947  0.00  0.00    +0.000 C 
ATOM      9  C   UNL     1       5.087 -15.986  13.838  0.00  0.00    +0.000 C 
ATOM     10  C   UNL     1       3.104 -15.445  16.848  0.00  0.00    +0.000 C 
ATOM     11  C   UNL     1       3.369 -14.229  16.185  0.00  0.00    +0.000 C 
ATOM     12  C   UNL     1       1.130 -18.654  14.774  0.00  0.00    +0.000 C 
ATOM     13  C   UNL     1       3.303 -13.103  16.895  0.00  0.00    +0.000 C 
ENDROOT
BRANCH   6  14
ATOM     14  O   UNL     1       1.576 -19.013  11.746  0.00  0.00    +0.000 OA
ATOM     15  H   UNL     1       2.126 -19.094  10.946  0.00  0.00    +0.000 HD
ENDBRANCH   6  14
BRANCH   4  16
ATOM     16  C   UNL     1       3.511 -13.099  13.948  0.00  0.00    +0.000 C 
ATOM     17  C   UNL     1       3.599 -11.805  13.133  0.00  0.00    +0.000 C 
BRANCH  17  20
ATOM     18  O   UNL     1       4.664  -8.851  11.452  0.00  0.00    +0.000 OA
ATOM     19  O   UNL     1       5.941  -9.972  13.050  0.00  0.00    +0.000 OA
ATOM     20  C   UNL     1       3.681 -10.713  12.439  0.00  0.00    +0.000 C 
ATOM     21  C   UNL     1       2.706 -10.176  11.524  0.00  0.00    +0.000 C 
ATOM     22  C   UNL     1       4.921  -9.842  12.396  0.00  0.00    +0.000 C 
ATOM     23  C   UNL     1       3.440  -9.103  11.013  0.00  0.00    +0.000 C 
BRANCH  21  24
ATOM     24  O   UNL     1       1.932 -11.013  10.771  0.00  0.00    +0.000 OA
ATOM     25  H   UNL     1       1.945 -11.924  11.115  0.00  0.00    +0.000 HD
ENDBRANCH  21  24
ENDBRANCH  17  20
ENDBRANCH   4  16
BRANCH   3  26
ATOM     26  C   UNL     1       3.468 -19.191  14.029  0.00  0.00    +0.000 C 
BRANCH  26  27
ATOM     27  O   UNL     1       4.417 -20.131  14.059  0.00  0.00    +0.000 OA
ATOM     28  H   UNL     1       4.955 -20.050  14.867  0.00  0.00    +0.000 HD
ENDBRANCH  26  27
ENDBRANCH   3  26
TORSDOF 6
ENDMDL
