MODEL 1
REMARK VINA RESULT:      -7.0      0.000      0.000
REMARK  Name = 5326018_Caulerpin.pdbqt.pdb
REMARK  4 active torsions:
REMARK  status: ('A' for Active; 'I' for Inactive)
REMARK    1  A    between atoms: C_11  and  C_26
REMARK    2  A    between atoms: C_12  and  C_30
REMARK    3  A    between atoms: C_26  and  O_27
REMARK    4  A    between atoms: C_30  and  O_31
REMARK                            x       y       z     vdW  Elec       q    Type
REMARK                         _______ _______ _______ _____ _____    ______ ____
ROOT
ATOM      1  N   UNL     1      -7.356   0.480  22.531  0.00  0.00    +0.000 N 
ATOM      2  N   UNL     1     -10.398  -5.254  23.275  0.00  0.00    +0.000 N 
ATOM      3  C   UNL     1      -8.678  -1.063  21.646  0.00  0.00    +0.000 C 
ATOM      4  C   UNL     1      -8.786  -3.891  23.952  0.00  0.00    +0.000 C 
ATOM      5  C   UNL     1      -7.729  -0.843  22.642  0.00  0.00    +0.000 C 
ATOM      6  C   UNL     1      -9.633  -4.174  22.884  0.00  0.00    +0.000 C 
ATOM      7  C   UNL     1      -8.830   0.120  20.885  0.00  0.00    +0.000 A 
ATOM      8  C   UNL     1      -8.995  -4.849  24.974  0.00  0.00    +0.000 A 
ATOM      9  C   UNL     1      -7.987   1.072  21.458  0.00  0.00    +0.000 A 
ATOM     10  C   UNL     1     -10.008  -5.694  24.522  0.00  0.00    +0.000 A 
ATOM     11  C   UNL     1      -7.215  -1.688  23.688  0.00  0.00    +0.000 C 
ATOM     12  C   UNL     1      -9.842  -3.519  21.619  0.00  0.00    +0.000 C 
ATOM     13  C   UNL     1      -7.890  -2.777  23.955  0.00  0.00    +0.000 C 
ATOM     14  C   UNL     1      -9.365  -2.308  21.493  0.00  0.00    +0.000 C 
ATOM     15  C   UNL     1      -9.615   0.487  19.776  0.00  0.00    +0.000 A 
ATOM     16  C   UNL     1      -8.439  -5.074  26.247  0.00  0.00    +0.000 A 
ATOM     17  C   UNL     1      -7.882   2.380  20.973  0.00  0.00    +0.000 A 
ATOM     18  C   UNL     1     -10.494  -6.765  25.281  0.00  0.00    +0.000 A 
ATOM     19  C   UNL     1      -9.517   1.787  19.275  0.00  0.00    +0.000 A 
ATOM     20  C   UNL     1      -8.909  -6.141  27.014  0.00  0.00    +0.000 A 
ATOM     21  C   UNL     1      -8.664   2.714  19.865  0.00  0.00    +0.000 A 
ATOM     22  C   UNL     1      -9.917  -6.971  26.536  0.00  0.00    +0.000 A 
ATOM     23  H   UNL     1      -6.721   0.983  23.139  0.00  0.00    +0.000 HD
ATOM     24  H   UNL     1     -11.154  -5.682  22.755  0.00  0.00    +0.000 HD
ENDROOT
BRANCH  11  26
ATOM     25  O   UNL     1      -5.771  -1.698  25.596  0.00  0.00    +0.000 OA
ATOM     26  C   UNL     1      -5.917  -1.494  24.397  0.00  0.00    +0.000 C 
BRANCH  26  27
ATOM     27  O   UNL     1      -4.977  -1.094  23.492  0.00  0.00    +0.000 OA
ATOM     28  C   UNL     1      -3.653  -0.945  23.931  0.00  0.00    +0.000 C 
ENDBRANCH  26  27
ENDBRANCH  11  26
BRANCH  12  30
ATOM     29  O   UNL     1     -11.322  -3.624  19.741  0.00  0.00    +0.000 OA
ATOM     30  C   UNL     1     -10.438  -4.152  20.406  0.00  0.00    +0.000 C 
BRANCH  30  31
ATOM     31  O   UNL     1      -9.821  -5.349  20.186  0.00  0.00    +0.000 OA
ATOM     32  C   UNL     1      -8.686  -5.369  19.361  0.00  0.00    +0.000 C 
ENDBRANCH  30  31
ENDBRANCH  12  30
TORSDOF 4
ENDMDL
MODEL 2
REMARK VINA RESULT:      -6.5      4.145      5.925
REMARK  Name = 5326018_Caulerpin.pdbqt.pdb
REMARK  4 active torsions:
REMARK  status: ('A' for Active; 'I' for Inactive)
REMARK    1  A    between atoms: C_11  and  C_26
REMARK    2  A    between atoms: C_12  and  C_30
REMARK    3  A    between atoms: C_26  and  O_27
REMARK    4  A    between atoms: C_30  and  O_31
REMARK                            x       y       z     vdW  Elec       q    Type
REMARK                         _______ _______ _______ _____ _____    ______ ____
ROOT
ATOM      1  N   UNL     1     -11.333  -3.085  20.840  0.00  0.00    +0.000 N 
ATOM      2  N   UNL     1     -11.438  -6.231  26.565  0.00  0.00    +0.000 N 
ATOM      3  C   UNL     1     -10.337  -4.522  22.202  0.00  0.00    +0.000 C 
ATOM      4  C   UNL     1     -12.177  -4.527  25.354  0.00  0.00    +0.000 C 
ATOM      5  C   UNL     1     -11.270  -3.488  22.158  0.00  0.00    +0.000 C 
ATOM      6  C   UNL     1     -11.155  -5.467  25.452  0.00  0.00    +0.000 C 
ATOM      7  C   UNL     1      -9.784  -4.700  20.911  0.00  0.00    +0.000 A 
ATOM      8  C   UNL     1     -13.053  -4.681  26.457  0.00  0.00    +0.000 A 
ATOM      9  C   UNL     1     -10.423  -3.784  20.076  0.00  0.00    +0.000 A 
ATOM     10  C   UNL     1     -12.564  -5.753  27.203  0.00  0.00    +0.000 A 
ATOM     11  C   UNL     1     -12.124  -2.916  23.165  0.00  0.00    +0.000 C 
ATOM     12  C   UNL     1     -10.029  -5.759  24.603  0.00  0.00    +0.000 C 
ATOM     13  C   UNL     1     -12.276  -3.600  24.270  0.00  0.00    +0.000 C 
ATOM     14  C   UNL     1     -10.052  -5.257  23.395  0.00  0.00    +0.000 C 
ATOM     15  C   UNL     1      -8.817  -5.561  20.361  0.00  0.00    +0.000 A 
ATOM     16  C   UNL     1     -14.223  -4.030  26.889  0.00  0.00    +0.000 A 
ATOM     17  C   UNL     1     -10.139  -3.678  18.710  0.00  0.00    +0.000 A 
ATOM     18  C   UNL     1     -13.186  -6.208  28.371  0.00  0.00    +0.000 A 
ATOM     19  C   UNL     1      -8.517  -5.465  19.000  0.00  0.00    +0.000 A 
ATOM     20  C   UNL     1     -14.853  -4.467  28.055  0.00  0.00    +0.000 A 
ATOM     21  C   UNL     1      -9.168  -4.539  18.193  0.00  0.00    +0.000 A 
ATOM     22  C   UNL     1     -14.340  -5.537  28.781  0.00  0.00    +0.000 A 
ATOM     23  H   UNL     1     -11.955  -2.388  20.450  0.00  0.00    +0.000 HD
ATOM     24  H   UNL     1     -10.925  -7.039  26.893  0.00  0.00    +0.000 HD
ENDROOT
BRANCH  11  26
ATOM     25  O   UNL     1     -12.083  -0.528  23.033  0.00  0.00    +0.000 OA
ATOM     26  C   UNL     1     -12.740  -1.559  23.108  0.00  0.00    +0.000 C 
BRANCH  26  27
ATOM     27  O   UNL     1     -14.098  -1.691  23.129  0.00  0.00    +0.000 OA
ATOM     28  C   UNL     1     -14.864  -0.607  23.583  0.00  0.00    +0.000 C 
ENDBRANCH  26  27
ENDBRANCH  11  26
BRANCH  12  30
ATOM     29  O   UNL     1      -7.667  -5.993  24.908  0.00  0.00    +0.000 OA
ATOM     30  C   UNL     1      -8.789  -6.472  25.026  0.00  0.00    +0.000 C 
BRANCH  30  31
ATOM     31  O   UNL     1      -9.136  -7.679  25.561  0.00  0.00    +0.000 OA
ATOM     32  C   UNL     1      -8.480  -8.101  26.727  0.00  0.00    +0.000 C 
ENDBRANCH  30  31
ENDBRANCH  12  30
TORSDOF 4
ENDMDL
MODEL 3
REMARK VINA RESULT:      -6.4     17.494     20.731
REMARK  Name = 5326018_Caulerpin.pdbqt.pdb
REMARK  4 active torsions:
REMARK  status: ('A' for Active; 'I' for Inactive)
REMARK    1  A    between atoms: C_11  and  C_26
REMARK    2  A    between atoms: C_12  and  C_30
REMARK    3  A    between atoms: C_26  and  O_27
REMARK    4  A    between atoms: C_30  and  O_31
REMARK                            x       y       z     vdW  Elec       q    Type
REMARK                         _______ _______ _______ _____ _____    ______ ____
ROOT
ATOM      1  N   UNL     1     -23.140  -8.351   7.712  0.00  0.00    +0.000 N 
ATOM      2  N   UNL     1     -22.602  -3.357  11.891  0.00  0.00    +0.000 N 
ATOM      3  C   UNL     1     -23.123  -7.673   9.823  0.00  0.00    +0.000 C 
ATOM      4  C   UNL     1     -22.236  -4.132   9.847  0.00  0.00    +0.000 C 
ATOM      5  C   UNL     1     -22.738  -7.317   8.532  0.00  0.00    +0.000 C 
ATOM      6  C   UNL     1     -22.487  -4.521  11.160  0.00  0.00    +0.000 C 
ATOM      7  C   UNL     1     -23.703  -8.964   9.791  0.00  0.00    +0.000 A 
ATOM      8  C   UNL     1     -22.134  -2.720   9.795  0.00  0.00    +0.000 A 
ATOM      9  C   UNL     1     -23.698  -9.368   8.457  0.00  0.00    +0.000 A 
ATOM     10  C   UNL     1     -22.362  -2.260  11.091  0.00  0.00    +0.000 A 
ATOM     11  C   UNL     1     -22.128  -6.126   8.002  0.00  0.00    +0.000 C 
ATOM     12  C   UNL     1     -22.695  -5.814  11.759  0.00  0.00    +0.000 C 
ATOM     13  C   UNL     1     -22.135  -5.065   8.768  0.00  0.00    +0.000 C 
ATOM     14  C   UNL     1     -22.948  -6.809  10.948  0.00  0.00    +0.000 C 
ATOM     15  C   UNL     1     -24.251  -9.824  10.761  0.00  0.00    +0.000 A 
ATOM     16  C   UNL     1     -21.887  -1.783   8.775  0.00  0.00    +0.000 A 
ATOM     17  C   UNL     1     -24.211 -10.601   8.038  0.00  0.00    +0.000 A 
ATOM     18  C   UNL     1     -22.353  -0.901  11.425  0.00  0.00    +0.000 A 
ATOM     19  C   UNL     1     -24.761 -11.061  10.360  0.00  0.00    +0.000 A 
ATOM     20  C   UNL     1     -21.868  -0.424   9.091  0.00  0.00    +0.000 A 
ATOM     21  C   UNL     1     -24.739 -11.439   9.022  0.00  0.00    +0.000 A 
ATOM     22  C   UNL     1     -22.096   0.006  10.394  0.00  0.00    +0.000 A 
ATOM     23  H   UNL     1     -23.064  -8.388   6.704  0.00  0.00    +0.000 HD
ATOM     24  H   UNL     1     -22.838  -3.279  12.873  0.00  0.00    +0.000 HD
ENDROOT
BRANCH  11  26
ATOM     25  O   UNL     1     -20.199  -5.715   6.648  0.00  0.00    +0.000 OA
ATOM     26  C   UNL     1     -21.378  -6.038   6.715  0.00  0.00    +0.000 C 
BRANCH  26  27
ATOM     27  O   UNL     1     -22.213  -6.391   5.695  0.00  0.00    +0.000 OA
ATOM     28  C   UNL     1     -22.990  -5.389   5.095  0.00  0.00    +0.000 C 
ENDBRANCH  26  27
ENDBRANCH  11  26
BRANCH  12  30
ATOM     29  O   UNL     1     -21.671  -6.919  13.619  0.00  0.00    +0.000 OA
ATOM     30  C   UNL     1     -22.517  -6.135  13.205  0.00  0.00    +0.000 C 
BRANCH  30  31
ATOM     31  O   UNL     1     -23.414  -5.406  13.931  0.00  0.00    +0.000 OA
ATOM     32  C   UNL     1     -24.631  -6.011  14.281  0.00  0.00    +0.000 C 
ENDBRANCH  30  31
ENDBRANCH  12  30
TORSDOF 4
ENDMDL
MODEL 4
REMARK VINA RESULT:      -6.4     25.254     26.106
REMARK  Name = 5326018_Caulerpin.pdbqt.pdb
REMARK  4 active torsions:
REMARK  status: ('A' for Active; 'I' for Inactive)
REMARK    1  A    between atoms: C_11  and  C_26
REMARK    2  A    between atoms: C_12  and  C_30
REMARK    3  A    between atoms: C_26  and  O_27
REMARK    4  A    between atoms: C_30  and  O_31
REMARK                            x       y       z     vdW  Elec       q    Type
REMARK                         _______ _______ _______ _____ _____    ______ ____
ROOT
ATOM      1  N   UNL     1     -15.949  -2.172  -2.183  0.00  0.00    +0.000 N 
ATOM      2  N   UNL     1     -20.859  -5.343   0.737  0.00  0.00    +0.000 N 
ATOM      3  C   UNL     1     -17.899  -2.041  -1.138  0.00  0.00    +0.000 C 
ATOM      4  C   UNL     1     -19.126  -5.444  -0.641  0.00  0.00    +0.000 C 
ATOM      5  C   UNL     1     -17.066  -2.907  -1.843  0.00  0.00    +0.000 C 
ATOM      6  C   UNL     1     -20.035  -4.569  -0.054  0.00  0.00    +0.000 C 
ATOM      7  C   UNL     1     -17.310  -0.755  -1.109  0.00  0.00    +0.000 A 
ATOM      8  C   UNL     1     -19.442  -6.768  -0.253  0.00  0.00    +0.000 A 
ATOM      9  C   UNL     1     -16.090  -0.862  -1.775  0.00  0.00    +0.000 A 
ATOM     10  C   UNL     1     -20.536  -6.678   0.607  0.00  0.00    +0.000 A 
ATOM     11  C   UNL     1     -17.171  -4.309  -2.151  0.00  0.00    +0.000 C 
ATOM     12  C   UNL     1     -20.160  -3.135  -0.097  0.00  0.00    +0.000 C 
ATOM     13  C   UNL     1     -18.052  -5.000  -1.475  0.00  0.00    +0.000 C 
ATOM     14  C   UNL     1     -19.130  -2.464  -0.546  0.00  0.00    +0.000 C 
ATOM     15  C   UNL     1     -17.682   0.490  -0.568  0.00  0.00    +0.000 A 
ATOM     16  C   UNL     1     -18.900  -8.036  -0.532  0.00  0.00    +0.000 A 
ATOM     17  C   UNL     1     -15.216   0.219  -1.934  0.00  0.00    +0.000 A 
ATOM     18  C   UNL     1     -21.123  -7.798   1.206  0.00  0.00    +0.000 A 
ATOM     19  C   UNL     1     -16.824   1.581  -0.723  0.00  0.00    +0.000 A 
ATOM     20  C   UNL     1     -19.478  -9.165   0.052  0.00  0.00    +0.000 A 
ATOM     21  C   UNL     1     -15.614   1.444  -1.395  0.00  0.00    +0.000 A 
ATOM     22  C   UNL     1     -20.571  -9.044   0.904  0.00  0.00    +0.000 A 
ATOM     23  H   UNL     1     -15.120  -2.513  -2.653  0.00  0.00    +0.000 HD
ATOM     24  H   UNL     1     -21.597  -5.015   1.348  0.00  0.00    +0.000 HD
ENDROOT
BRANCH  11  26
ATOM     25  O   UNL     1     -15.306  -4.740  -3.587  0.00  0.00    +0.000 OA
ATOM     26  C   UNL     1     -16.456  -5.006  -3.259  0.00  0.00    +0.000 C 
BRANCH  26  27
ATOM     27  O   UNL     1     -17.281  -5.957  -3.785  0.00  0.00    +0.000 OA
ATOM     28  C   UNL     1     -17.774  -5.764  -5.084  0.00  0.00    +0.000 C 
ENDBRANCH  26  27
ENDBRANCH  11  26
BRANCH  12  30
ATOM     29  O   UNL     1     -22.311  -2.802   0.899  0.00  0.00    +0.000 OA
ATOM     30  C   UNL     1     -21.403  -2.365   0.202  0.00  0.00    +0.000 C 
BRANCH  30  31
ATOM     31  O   UNL     1     -21.319  -1.143  -0.400  0.00  0.00    +0.000 OA
ATOM     32  C   UNL     1     -22.423  -0.689  -1.137  0.00  0.00    +0.000 C 
ENDBRANCH  30  31
ENDBRANCH  12  30
TORSDOF 4
ENDMDL
MODEL 5
REMARK VINA RESULT:      -6.2     18.842     21.463
REMARK  Name = 5326018_Caulerpin.pdbqt.pdb
REMARK  4 active torsions:
REMARK  status: ('A' for Active; 'I' for Inactive)
REMARK    1  A    between atoms: C_11  and  C_26
REMARK    2  A    between atoms: C_12  and  C_30
REMARK    3  A    between atoms: C_26  and  O_27
REMARK    4  A    between atoms: C_30  and  O_31
REMARK                            x       y       z     vdW  Elec       q    Type
REMARK                         _______ _______ _______ _____ _____    ______ ____
ROOT
ATOM      1  N   UNL     1       3.280 -12.384  12.151  0.00  0.00    +0.000 N 
ATOM      2  N   UNL     1       9.619 -13.619  13.142  0.00  0.00    +0.000 N 
ATOM      3  C   UNL     1       5.292 -11.576  12.613  0.00  0.00    +0.000 C 
ATOM      4  C   UNL     1       7.549 -14.408  13.075  0.00  0.00    +0.000 C 
ATOM      5  C   UNL     1       4.526 -12.740  12.624  0.00  0.00    +0.000 C 
ATOM      6  C   UNL     1       8.294 -13.239  13.203  0.00  0.00    +0.000 C 
ATOM      7  C   UNL     1       4.482 -10.495  12.192  0.00  0.00    +0.000 A 
ATOM      8  C   UNL     1       8.431 -15.513  13.003  0.00  0.00    +0.000 A 
ATOM      9  C   UNL     1       3.224 -11.027  11.912  0.00  0.00    +0.000 A 
ATOM     10  C   UNL     1       9.723 -14.991  13.052  0.00  0.00    +0.000 A 
ATOM     11  C   UNL     1       4.850 -14.105  12.947  0.00  0.00    +0.000 C 
ATOM     12  C   UNL     1       7.908 -11.855  13.296  0.00  0.00    +0.000 C 
ATOM     13  C   UNL     1       6.120 -14.413  13.011  0.00  0.00    +0.000 C 
ATOM     14  C   UNL     1       6.678 -11.559  12.963  0.00  0.00    +0.000 C 
ATOM     15  C   UNL     1       4.694  -9.117  12.001  0.00  0.00    +0.000 A 
ATOM     16  C   UNL     1       8.265 -16.905  12.883  0.00  0.00    +0.000 A 
ATOM     17  C   UNL     1       2.156 -10.247  11.453  0.00  0.00    +0.000 A 
ATOM     18  C   UNL     1      10.868 -15.794  12.991  0.00  0.00    +0.000 A 
ATOM     19  C   UNL     1       3.638  -8.323  11.549  0.00  0.00    +0.000 A 
ATOM     20  C   UNL     1       9.396 -17.722  12.827  0.00  0.00    +0.000 A 
ATOM     21  C   UNL     1       2.393  -8.882  11.282  0.00  0.00    +0.000 A 
ATOM     22  C   UNL     1      10.673 -17.173  12.882  0.00  0.00    +0.000 A 
ATOM     23  H   UNL     1       2.498 -13.003  11.979  0.00  0.00    +0.000 HD
ATOM     24  H   UNL     1      10.426 -13.007  13.149  0.00  0.00    +0.000 HD
ENDROOT
BRANCH  11  26
ATOM     25  O   UNL     1       3.942 -15.783  14.390  0.00  0.00    +0.000 OA
ATOM     26  C   UNL     1       3.868 -15.157  13.340  0.00  0.00    +0.000 C 
BRANCH  26  27
ATOM     27  O   UNL     1       2.917 -15.256  12.367  0.00  0.00    +0.000 OA
ATOM     28  C   UNL     1       2.077 -16.380  12.372  0.00  0.00    +0.000 C 
ENDBRANCH  26  27
ENDBRANCH  11  26
BRANCH  12  30
ATOM     29  O   UNL     1       8.435 -10.120  14.858  0.00  0.00    +0.000 OA
ATOM     30  C   UNL     1       8.749 -10.759  13.861  0.00  0.00    +0.000 C 
BRANCH  30  31
ATOM     31  O   UNL     1       9.878 -10.638  13.104  0.00  0.00    +0.000 OA
ATOM     32  C   UNL     1       9.776 -10.003  11.857  0.00  0.00    +0.000 C 
ENDBRANCH  30  31
ENDBRANCH  12  30
TORSDOF 4
ENDMDL
MODEL 6
REMARK VINA RESULT:      -6.2     18.168     21.014
REMARK  Name = 5326018_Caulerpin.pdbqt.pdb
REMARK  4 active torsions:
REMARK  status: ('A' for Active; 'I' for Inactive)
REMARK    1  A    between atoms: C_11  and  C_26
REMARK    2  A    between atoms: C_12  and  C_30
REMARK    3  A    between atoms: C_26  and  O_27
REMARK    4  A    between atoms: C_30  and  O_31
REMARK                            x       y       z     vdW  Elec       q    Type
REMARK                         _______ _______ _______ _____ _____    ______ ____
ROOT
ATOM      1  N   UNL     1       8.791 -14.224  14.401  0.00  0.00    +0.000 N 
ATOM      2  N   UNL     1       2.975 -12.349  12.088  0.00  0.00    +0.000 N 
ATOM      3  C   UNL     1       6.728 -14.806  13.838  0.00  0.00    +0.000 C 
ATOM      4  C   UNL     1       4.895 -11.755  13.024  0.00  0.00    +0.000 C 
ATOM      5  C   UNL     1       7.527 -13.718  14.184  0.00  0.00    +0.000 C 
ATOM      6  C   UNL     1       4.046 -12.837  12.809  0.00  0.00    +0.000 C 
ATOM      7  C   UNL     1       7.502 -15.988  13.910  0.00  0.00    +0.000 A 
ATOM      8  C   UNL     1       4.301 -10.588  12.486  0.00  0.00    +0.000 A 
ATOM      9  C   UNL     1       8.791 -15.597  14.269  0.00  0.00    +0.000 A 
ATOM     10  C   UNL     1       3.096 -10.987  11.909  0.00  0.00    +0.000 A 
ATOM     11  C   UNL     1       7.255 -12.306  14.256  0.00  0.00    +0.000 C 
ATOM     12  C   UNL     1       4.166 -14.236  13.129  0.00  0.00    +0.000 C 
ATOM     13  C   UNL     1       6.162 -11.883  13.674  0.00  0.00    +0.000 C 
ATOM     14  C   UNL     1       5.356 -14.668  13.458  0.00  0.00    +0.000 C 
ATOM     15  C   UNL     1       7.243 -17.353  13.688  0.00  0.00    +0.000 A 
ATOM     16  C   UNL     1       4.672  -9.232  12.415  0.00  0.00    +0.000 A 
ATOM     17  C   UNL     1       9.843 -16.506  14.425  0.00  0.00    +0.000 A 
ATOM     18  C   UNL     1       2.233 -10.095  11.263  0.00  0.00    +0.000 A 
ATOM     19  C   UNL     1       8.280 -18.275  13.845  0.00  0.00    +0.000 A 
ATOM     20  C   UNL     1       3.821  -8.328  11.779  0.00  0.00    +0.000 A 
ATOM     21  C   UNL     1       9.556 -17.856  14.208  0.00  0.00    +0.000 A 
ATOM     22  C   UNL     1       2.622  -8.755  11.215  0.00  0.00    +0.000 A 
ATOM     23  H   UNL     1       9.626 -13.694  14.615  0.00  0.00    +0.000 HD
ATOM     24  H   UNL     1       2.199 -12.884  11.718  0.00  0.00    +0.000 HD
ENDROOT
BRANCH  11  26
ATOM     25  O   UNL     1       8.896 -11.634  15.861  0.00  0.00    +0.000 OA
ATOM     26  C   UNL     1       8.040 -11.314  15.045  0.00  0.00    +0.000 C 
BRANCH  26  27
ATOM     27  O   UNL     1       7.656 -10.057  14.679  0.00  0.00    +0.000 OA
ATOM     28  C   UNL     1       7.545  -9.079  15.678  0.00  0.00    +0.000 C 
ENDBRANCH  26  27
ENDBRANCH  11  26
BRANCH  12  30
ATOM     29  O   UNL     1       2.569 -15.565  14.317  0.00  0.00    +0.000 OA
ATOM     30  C   UNL     1       3.031 -15.198  13.243  0.00  0.00    +0.000 C 
BRANCH  30  31
ATOM     31  O   UNL     1       2.620 -15.544  11.989  0.00  0.00    +0.000 OA
ATOM     32  C   UNL     1       1.767 -16.650  11.852  0.00  0.00    +0.000 C 
ENDBRANCH  30  31
ENDBRANCH  12  30
TORSDOF 4
ENDMDL
MODEL 7
REMARK VINA RESULT:      -6.1     25.286     26.693
REMARK  Name = 5326018_Caulerpin.pdbqt.pdb
REMARK  4 active torsions:
REMARK  status: ('A' for Active; 'I' for Inactive)
REMARK    1  A    between atoms: C_11  and  C_26
REMARK    2  A    between atoms: C_12  and  C_30
REMARK    3  A    between atoms: C_26  and  O_27
REMARK    4  A    between atoms: C_30  and  O_31
REMARK                            x       y       z     vdW  Elec       q    Type
REMARK                         _______ _______ _______ _____ _____    ______ ____
ROOT
ATOM      1  N   UNL     1     -21.016  -5.339   0.636  0.00  0.00    +0.000 N 
ATOM      2  N   UNL     1     -16.059  -1.971  -1.966  0.00  0.00    +0.000 N 
ATOM      3  C   UNL     1     -19.185  -5.373  -0.613  0.00  0.00    +0.000 C 
ATOM      4  C   UNL     1     -18.084  -1.922  -1.066  0.00  0.00    +0.000 C 
ATOM      5  C   UNL     1     -20.175  -4.534  -0.104  0.00  0.00    +0.000 C 
ATOM      6  C   UNL     1     -17.163  -2.754  -1.697  0.00  0.00    +0.000 C 
ATOM      7  C   UNL     1     -19.469  -6.706  -0.231  0.00  0.00    +0.000 A 
ATOM      8  C   UNL     1     -17.558  -0.608  -1.011  0.00  0.00    +0.000 A 
ATOM      9  C   UNL     1     -20.624  -6.658   0.547  0.00  0.00    +0.000 A 
ATOM     10  C   UNL     1     -16.289  -0.666  -1.586  0.00  0.00    +0.000 A 
ATOM     11  C   UNL     1     -20.361  -3.109  -0.175  0.00  0.00    +0.000 C 
ATOM     12  C   UNL     1     -17.181  -4.162  -1.994  0.00  0.00    +0.000 C 
ATOM     13  C   UNL     1     -19.334  -2.396  -0.558  0.00  0.00    +0.000 C 
ATOM     14  C   UNL     1     -18.076  -4.887  -1.373  0.00  0.00    +0.000 C 
ATOM     15  C   UNL     1     -18.849  -7.950  -0.453  0.00  0.00    +0.000 A 
ATOM     16  C   UNL     1     -18.024   0.623  -0.515  0.00  0.00    +0.000 A 
ATOM     17  C   UNL     1     -21.201  -7.799   1.117  0.00  0.00    +0.000 A 
ATOM     18  C   UNL     1     -15.456   0.453  -1.697  0.00  0.00    +0.000 A 
ATOM     19  C   UNL     1     -19.416  -9.099   0.102  0.00  0.00    +0.000 A 
ATOM     20  C   UNL     1     -17.208   1.751  -0.622  0.00  0.00    +0.000 A 
ATOM     21  C   UNL     1     -20.571  -9.021   0.872  0.00  0.00    +0.000 A 
ATOM     22  C   UNL     1     -15.948   1.664  -1.204  0.00  0.00    +0.000 A 
ATOM     23  H   UNL     1     -21.810  -5.039   1.187  0.00  0.00    +0.000 HD
ATOM     24  H   UNL     1     -15.183  -2.277  -2.372  0.00  0.00    +0.000 HD
ENDROOT
BRANCH  11  26
ATOM     25  O   UNL     1     -22.078  -1.544  -0.749  0.00  0.00    +0.000 OA
ATOM     26  C   UNL     1     -21.656  -2.396   0.024  0.00  0.00    +0.000 C 
BRANCH  26  27
ATOM     27  O   UNL     1     -22.251  -2.872   1.156  0.00  0.00    +0.000 OA
ATOM     28  C   UNL     1     -23.643  -3.047   1.151  0.00  0.00    +0.000 C 
ENDBRANCH  26  27
ENDBRANCH  11  26
BRANCH  12  30
ATOM     29  O   UNL     1     -15.161  -4.616  -3.196  0.00  0.00    +0.000 OA
ATOM     30  C   UNL     1     -16.356  -4.837  -3.039  0.00  0.00    +0.000 C 
BRANCH  30  31
ATOM     31  O   UNL     1     -17.147  -5.712  -3.725  0.00  0.00    +0.000 OA
ATOM     32  C   UNL     1     -17.549  -5.364  -5.024  0.00  0.00    +0.000 C 
ENDBRANCH  30  31
ENDBRANCH  12  30
TORSDOF 4
ENDMDL
MODEL 8
REMARK VINA RESULT:      -6.0     15.544     17.683
REMARK  Name = 5326018_Caulerpin.pdbqt.pdb
REMARK  4 active torsions:
REMARK  status: ('A' for Active; 'I' for Inactive)
REMARK    1  A    between atoms: C_11  and  C_26
REMARK    2  A    between atoms: C_12  and  C_30
REMARK    3  A    between atoms: C_26  and  O_27
REMARK    4  A    between atoms: C_30  and  O_31
REMARK                            x       y       z     vdW  Elec       q    Type
REMARK                         _______ _______ _______ _____ _____    ______ ____
ROOT
ATOM      1  N   UNL     1       5.213  -8.706  17.518  0.00  0.00    +0.000 N 
ATOM      2  N   UNL     1       3.783 -12.812  12.641  0.00  0.00    +0.000 N 
ATOM      3  C   UNL     1       5.171  -9.069  15.332  0.00  0.00    +0.000 C 
ATOM      4  C   UNL     1       4.210 -12.551  14.800  0.00  0.00    +0.000 C 
ATOM      5  C   UNL     1       5.161  -9.707  16.570  0.00  0.00    +0.000 C 
ATOM      6  C   UNL     1       4.355 -11.949  13.553  0.00  0.00    +0.000 C 
ATOM      7  C   UNL     1       5.297  -7.674  15.533  0.00  0.00    +0.000 A 
ATOM      8  C   UNL     1       3.602 -13.819  14.634  0.00  0.00    +0.000 A 
ATOM      9  C   UNL     1       5.325  -7.473  16.912  0.00  0.00    +0.000 A 
ATOM     10  C   UNL     1       3.349 -13.960  13.270  0.00  0.00    +0.000 A 
ATOM     11  C   UNL     1       5.037 -11.093  16.940  0.00  0.00    +0.000 C 
ATOM     12  C   UNL     1       4.885 -10.671  13.154  0.00  0.00    +0.000 C 
ATOM     13  C   UNL     1       4.613 -11.917  16.017  0.00  0.00    +0.000 C 
ATOM     14  C   UNL     1       5.047  -9.778  14.096  0.00  0.00    +0.000 C 
ATOM     15  C   UNL     1       5.371  -6.556  14.681  0.00  0.00    +0.000 A 
ATOM     16  C   UNL     1       3.225 -14.857  15.506  0.00  0.00    +0.000 A 
ATOM     17  C   UNL     1       5.430  -6.203  17.490  0.00  0.00    +0.000 A 
ATOM     18  C   UNL     1       2.737 -15.095  12.727  0.00  0.00    +0.000 A 
ATOM     19  C   UNL     1       5.482  -5.282  15.241  0.00  0.00    +0.000 A 
ATOM     20  C   UNL     1       2.619 -15.999  14.980  0.00  0.00    +0.000 A 
ATOM     21  C   UNL     1       5.512  -5.112  16.622  0.00  0.00    +0.000 A 
ATOM     22  C   UNL     1       2.382 -16.113  13.614  0.00  0.00    +0.000 A 
ATOM     23  H   UNL     1       5.166  -8.821  18.522  0.00  0.00    +0.000 HD
ATOM     24  H   UNL     1       3.668 -12.655  11.647  0.00  0.00    +0.000 HD
ENDROOT
BRANCH  11  26
ATOM     25  O   UNL     1       6.326 -12.558  18.324  0.00  0.00    +0.000 OA
ATOM     26  C   UNL     1       5.473 -11.683  18.239  0.00  0.00    +0.000 C 
BRANCH  26  27
ATOM     27  O   UNL     1       4.792 -11.072  19.251  0.00  0.00    +0.000 OA
ATOM     28  C   UNL     1       3.500 -11.530  19.553  0.00  0.00    +0.000 C 
ENDBRANCH  26  27
ENDBRANCH  11  26
BRANCH  12  30
ATOM     29  O   UNL     1       6.254 -10.970  11.214  0.00  0.00    +0.000 OA
ATOM     30  C   UNL     1       5.383 -10.329  11.790  0.00  0.00    +0.000 C 
BRANCH  30  31
ATOM     31  O   UNL     1       4.698  -9.241  11.332  0.00  0.00    +0.000 OA
ATOM     32  C   UNL     1       3.340  -9.399  11.012  0.00  0.00    +0.000 C 
ENDBRANCH  30  31
ENDBRANCH  12  30
TORSDOF 4
ENDMDL
MODEL 9
REMARK VINA RESULT:      -6.0      3.378      5.170
REMARK  Name = 5326018_Caulerpin.pdbqt.pdb
REMARK  4 active torsions:
REMARK  status: ('A' for Active; 'I' for Inactive)
REMARK    1  A    between atoms: C_11  and  C_26
REMARK    2  A    between atoms: C_12  and  C_30
REMARK    3  A    between atoms: C_26  and  O_27
REMARK    4  A    between atoms: C_30  and  O_31
REMARK                            x       y       z     vdW  Elec       q    Type
REMARK                         _______ _______ _______ _____ _____    ______ ____
ROOT
ATOM      1  N   UNL     1      -6.393   2.015  24.470  0.00  0.00    +0.000 N 
ATOM      2  N   UNL     1      -9.853  -0.931  19.775  0.00  0.00    +0.000 N 
ATOM      3  C   UNL     1      -7.746   2.234  22.728  0.00  0.00    +0.000 C 
ATOM      4  C   UNL     1      -8.208  -1.074  21.254  0.00  0.00    +0.000 C 
ATOM      5  C   UNL     1      -6.860   1.358  23.350  0.00  0.00    +0.000 C 
ATOM      6  C   UNL     1      -8.992  -0.171  20.540  0.00  0.00    +0.000 C 
ATOM      7  C   UNL     1      -7.765   3.456  23.443  0.00  0.00    +0.000 A 
ATOM      8  C   UNL     1      -8.553  -2.391  20.868  0.00  0.00    +0.000 A 
ATOM      9  C   UNL     1      -6.905   3.294  24.528  0.00  0.00    +0.000 A 
ATOM     10  C   UNL     1      -9.583  -2.274  19.936  0.00  0.00    +0.000 A 
ATOM     11  C   UNL     1      -6.480   0.001  23.057  0.00  0.00    +0.000 C 
ATOM     12  C   UNL     1      -9.065   1.267  20.557  0.00  0.00    +0.000 C 
ATOM     13  C   UNL     1      -7.242  -0.661  22.225  0.00  0.00    +0.000 C 
ATOM     14  C   UNL     1      -8.501   1.876  21.567  0.00  0.00    +0.000 C 
ATOM     15  C   UNL     1      -8.442   4.680  23.288  0.00  0.00    +0.000 A 
ATOM     16  C   UNL     1      -8.106  -3.676  21.229  0.00  0.00    +0.000 A 
ATOM     17  C   UNL     1      -6.679   4.302  25.472  0.00  0.00    +0.000 A 
ATOM     18  C   UNL     1     -10.193  -3.382  19.338  0.00  0.00    +0.000 A 
ATOM     19  C   UNL     1      -8.223   5.699  24.218  0.00  0.00    +0.000 A 
ATOM     20  C   UNL     1      -8.699  -4.792  20.637  0.00  0.00    +0.000 A 
ATOM     21  C   UNL     1      -7.355   5.509  25.289  0.00  0.00    +0.000 A 
ATOM     22  C   UNL     1      -9.723  -4.644  19.707  0.00  0.00    +0.000 A 
ATOM     23  H   UNL     1      -5.773   1.641  25.177  0.00  0.00    +0.000 HD
ATOM     24  H   UNL     1     -10.595  -0.589  19.178  0.00  0.00    +0.000 HD
ENDROOT
BRANCH  11  26
ATOM     25  O   UNL     1      -5.008  -0.944  24.689  0.00  0.00    +0.000 OA
ATOM     26  C   UNL     1      -5.226  -0.664  23.517  0.00  0.00    +0.000 C 
BRANCH  26  27
ATOM     27  O   UNL     1      -4.433  -0.906  22.433  0.00  0.00    +0.000 OA
ATOM     28  C   UNL     1      -3.297  -0.104  22.249  0.00  0.00    +0.000 C 
ENDBRANCH  26  27
ENDBRANCH  11  26
BRANCH  12  30
ATOM     29  O   UNL     1      -9.667   1.752  18.292  0.00  0.00    +0.000 OA
ATOM     30  C   UNL     1      -9.612   2.118  19.460  0.00  0.00    +0.000 C 
BRANCH  30  31
ATOM     31  O   UNL     1     -10.035   3.301  19.992  0.00  0.00    +0.000 OA
ATOM     32  C   UNL     1     -10.013   4.441  19.174  0.00  0.00    +0.000 C 
ENDBRANCH  30  31
ENDBRANCH  12  30
TORSDOF 4
ENDMDL
