MODEL 1
REMARK VINA RESULT:      -3.6      0.000      0.000
REMARK  Name = 5350_Sulforaphane.pdbqt.pdb
REMARK  3 active torsions:
REMARK  status: ('A' for Active; 'I' for Inactive)
REMARK    1  A    between atoms: C_1  and  C_2
REMARK    2  A    between atoms: C_3  and  N_5
REMARK    3  A    between atoms: C_7  and  S_8
REMARK                            x       y       z     vdW  Elec       q    Type
REMARK                         _______ _______ _______ _____ _____    ______ ____
ROOT
ATOM      1  C   UNL     1     -21.170  -5.511  10.888  0.00  0.00    +0.000 C 
ATOM      2  C   UNL     1     -20.717  -5.004   9.514  0.00  0.00    +0.000 C 
ENDROOT
BRANCH   2   3
ATOM      3  S   UNL     1     -20.194  -4.418   7.937  0.00  0.00    +0.000 S 
ATOM      4  O   UNL     1     -20.485  -5.738   7.288  0.00  0.00    +0.000 OA
ATOM      5  C   UNL     1     -18.511  -4.852   8.218  0.00  0.00    +0.000 C 
ENDBRANCH   2   3
BRANCH   1   6
ATOM      6  C   UNL     1     -21.625  -6.017  12.259  0.00  0.00    +0.000 C 
ATOM      7  C   UNL     1     -22.082  -6.524  13.632  0.00  0.00    +0.000 C 
BRANCH   7   9
ATOM      8  S   UNL     1     -24.933  -5.889  15.547  0.00  0.00    +0.000 S 
ATOM      9  N   UNL     1     -22.479  -6.954  14.838  0.00  0.00    +0.000 NA
ATOM     10  C   UNL     1     -23.520  -6.492  15.120  0.00  0.00    +0.000 C 
ENDBRANCH   7   9
ENDBRANCH   1   6
TORSDOF 3
ENDMDL
MODEL 2
REMARK VINA RESULT:      -3.4     15.078     15.260
REMARK  Name = 5350_Sulforaphane.pdbqt.pdb
REMARK  3 active torsions:
REMARK  status: ('A' for Active; 'I' for Inactive)
REMARK    1  A    between atoms: C_1  and  C_2
REMARK    2  A    between atoms: C_3  and  N_5
REMARK    3  A    between atoms: C_7  and  S_8
REMARK                            x       y       z     vdW  Elec       q    Type
REMARK                         _______ _______ _______ _____ _____    ______ ____
ROOT
ATOM      1  C   UNL     1      -8.725  -5.265  19.383  0.00  0.00    +0.000 C 
ATOM      2  C   UNL     1      -8.454  -5.785  17.967  0.00  0.00    +0.000 C 
ENDROOT
BRANCH   2   3
ATOM      3  S   UNL     1      -8.145  -6.386  16.340  0.00  0.00    +0.000 S 
ATOM      4  O   UNL     1      -7.422  -5.130  15.954  0.00  0.00    +0.000 OA
ATOM      5  C   UNL     1      -9.674  -5.778  15.713  0.00  0.00    +0.000 C 
ENDBRANCH   2   3
BRANCH   1   6
ATOM      6  C   UNL     1      -8.993  -4.746  20.799  0.00  0.00    +0.000 C 
ATOM      7  C   UNL     1      -9.261  -4.226  22.216  0.00  0.00    +0.000 C 
BRANCH   7   9
ATOM      8  S   UNL     1     -10.937  -5.599  24.955  0.00  0.00    +0.000 S 
ATOM      9  N   UNL     1      -9.507  -3.768  23.451  0.00  0.00    +0.000 NA
ATOM     10  C   UNL     1     -10.113  -4.558  24.072  0.00  0.00    +0.000 C 
ENDBRANCH   7   9
ENDBRANCH   1   6
TORSDOF 3
ENDMDL
MODEL 3
REMARK VINA RESULT:      -3.3     16.107     16.675
REMARK  Name = 5350_Sulforaphane.pdbqt.pdb
REMARK  3 active torsions:
REMARK  status: ('A' for Active; 'I' for Inactive)
REMARK    1  A    between atoms: C_1  and  C_2
REMARK    2  A    between atoms: C_3  and  N_5
REMARK    3  A    between atoms: C_7  and  S_8
REMARK                            x       y       z     vdW  Elec       q    Type
REMARK                         _______ _______ _______ _____ _____    ______ ____
ROOT
ATOM      1  C   UNL     1      -9.160  -1.125  20.450  0.00  0.00    +0.000 C 
ATOM      2  C   UNL     1      -9.001  -2.646  20.546  0.00  0.00    +0.000 C 
ENDROOT
BRANCH   2   3
ATOM      3  S   UNL     1      -8.815  -4.395  20.654  0.00  0.00    +0.000 S 
ATOM      4  O   UNL     1      -8.926  -4.554  19.167  0.00  0.00    +0.000 OA
ATOM      5  C   UNL     1     -10.541  -4.668  20.878  0.00  0.00    +0.000 C 
ENDBRANCH   2   3
BRANCH   1   6
ATOM      6  C   UNL     1      -9.320   0.395  20.351  0.00  0.00    +0.000 C 
ATOM      7  C   UNL     1      -9.480   1.916  20.252  0.00  0.00    +0.000 C 
BRANCH   7   9
ATOM      8  S   UNL     1      -9.800   4.094  17.541  0.00  0.00    +0.000 S 
ATOM      9  N   UNL     1      -9.632   3.245  20.170  0.00  0.00    +0.000 NA
ATOM     10  C   UNL     1      -9.702   3.585  19.049  0.00  0.00    +0.000 C 
ENDBRANCH   7   9
ENDBRANCH   1   6
TORSDOF 3
ENDMDL
MODEL 4
REMARK VINA RESULT:      -3.1     16.456     18.174
REMARK  Name = 5350_Sulforaphane.pdbqt.pdb
REMARK  3 active torsions:
REMARK  status: ('A' for Active; 'I' for Inactive)
REMARK    1  A    between atoms: C_1  and  C_2
REMARK    2  A    between atoms: C_3  and  N_5
REMARK    3  A    between atoms: C_7  and  S_8
REMARK                            x       y       z     vdW  Elec       q    Type
REMARK                         _______ _______ _______ _____ _____    ______ ____
ROOT
ATOM      1  C   UNL     1     -11.981   5.812   4.315  0.00  0.00    +0.000 C 
ATOM      2  C   UNL     1     -12.744   6.186   5.591  0.00  0.00    +0.000 C 
ENDROOT
BRANCH   2   3
ATOM      3  S   UNL     1     -13.619   6.614   7.059  0.00  0.00    +0.000 S 
ATOM      4  O   UNL     1     -14.465   5.378   6.980  0.00  0.00    +0.000 OA
ATOM      5  C   UNL     1     -14.817   7.569   6.191  0.00  0.00    +0.000 C 
ENDBRANCH   2   3
BRANCH   1   6
ATOM      6  C   UNL     1     -11.220   5.436   3.041  0.00  0.00    +0.000 C 
ATOM      7  C   UNL     1     -10.459   5.060   1.764  0.00  0.00    +0.000 C 
BRANCH   7   9
ATOM      8  S   UNL     1      -7.669   3.050   1.156  0.00  0.00    +0.000 S 
ATOM      9  N   UNL     1      -9.804   4.733   0.641  0.00  0.00    +0.000 NA
ATOM     10  C   UNL     1      -8.904   4.019   0.881  0.00  0.00    +0.000 C 
ENDBRANCH   7   9
ENDBRANCH   1   6
TORSDOF 3
ENDMDL
MODEL 5
REMARK VINA RESULT:      -3.0     26.256     26.393
REMARK  Name = 5350_Sulforaphane.pdbqt.pdb
REMARK  3 active torsions:
REMARK  status: ('A' for Active; 'I' for Inactive)
REMARK    1  A    between atoms: C_1  and  C_2
REMARK    2  A    between atoms: C_3  and  N_5
REMARK    3  A    between atoms: C_7  and  S_8
REMARK                            x       y       z     vdW  Elec       q    Type
REMARK                         _______ _______ _______ _____ _____    ______ ____
ROOT
ATOM      1  C   UNL     1       3.409 -12.290  12.866  0.00  0.00    +0.000 C 
ATOM      2  C   UNL     1       3.856 -10.891  12.431  0.00  0.00    +0.000 C 
ENDROOT
BRANCH   2   3
ATOM      3  S   UNL     1       4.368  -9.280  11.933  0.00  0.00    +0.000 S 
ATOM      4  O   UNL     1       5.752  -9.759  11.611  0.00  0.00    +0.000 OA
ATOM      5  C   UNL     1       4.838  -8.813  13.564  0.00  0.00    +0.000 C 
ENDBRANCH   2   3
BRANCH   1   6
ATOM      6  C   UNL     1       2.960 -13.689  13.298  0.00  0.00    +0.000 C 
ATOM      7  C   UNL     1       2.510 -15.089  13.731  0.00  0.00    +0.000 C 
BRANCH   7   9
ATOM      8  S   UNL     1       2.196 -18.109  12.004  0.00  0.00    +0.000 S 
ATOM      9  N   UNL     1       2.130 -16.317  14.112  0.00  0.00    +0.000 NA
ATOM     10  C   UNL     1       2.165 -17.061  13.205  0.00  0.00    +0.000 C 
ENDBRANCH   7   9
ENDBRANCH   1   6
TORSDOF 3
ENDMDL
MODEL 6
REMARK VINA RESULT:      -3.0      6.284      7.567
REMARK  Name = 5350_Sulforaphane.pdbqt.pdb
REMARK  3 active torsions:
REMARK  status: ('A' for Active; 'I' for Inactive)
REMARK    1  A    between atoms: C_1  and  C_2
REMARK    2  A    between atoms: C_3  and  N_5
REMARK    3  A    between atoms: C_7  and  S_8
REMARK                            x       y       z     vdW  Elec       q    Type
REMARK                         _______ _______ _______ _____ _____    ______ ____
ROOT
ATOM      1  C   UNL     1     -21.708  -2.646   7.056  0.00  0.00    +0.000 C 
ATOM      2  C   UNL     1     -21.039  -4.015   7.219  0.00  0.00    +0.000 C 
ENDROOT
BRANCH   2   3
ATOM      3  S   UNL     1     -20.269  -5.588   7.410  0.00  0.00    +0.000 S 
ATOM      4  O   UNL     1     -20.863  -5.774   8.775  0.00  0.00    +0.000 OA
ATOM      5  C   UNL     1     -18.791  -4.899   8.075  0.00  0.00    +0.000 C 
ENDBRANCH   2   3
BRANCH   1   6
ATOM      6  C   UNL     1     -22.374  -1.277   6.892  0.00  0.00    +0.000 C 
ATOM      7  C   UNL     1     -23.041   0.093   6.727  0.00  0.00    +0.000 C 
BRANCH   7   9
ATOM      8  S   UNL     1     -23.050   2.945   8.743  0.00  0.00    +0.000 S 
ATOM      9  N   UNL     1     -23.619   1.295   6.595  0.00  0.00    +0.000 NA
ATOM     10  C   UNL     1     -23.366   1.979   7.515  0.00  0.00    +0.000 C 
ENDBRANCH   7   9
ENDBRANCH   1   6
TORSDOF 3
ENDMDL
MODEL 7
REMARK VINA RESULT:      -2.9     26.507     27.080
REMARK  Name = 5350_Sulforaphane.pdbqt.pdb
REMARK  3 active torsions:
REMARK  status: ('A' for Active; 'I' for Inactive)
REMARK    1  A    between atoms: C_1  and  C_2
REMARK    2  A    between atoms: C_3  and  N_5
REMARK    3  A    between atoms: C_7  and  S_8
REMARK                            x       y       z     vdW  Elec       q    Type
REMARK                         _______ _______ _______ _____ _____    ______ ____
ROOT
ATOM      1  C   UNL     1       3.596 -13.422  12.617  0.00  0.00    +0.000 C 
ATOM      2  C   UNL     1       3.287 -14.892  12.920  0.00  0.00    +0.000 C 
ENDROOT
BRANCH   2   3
ATOM      3  S   UNL     1       2.928 -16.581  13.270  0.00  0.00    +0.000 S 
ATOM      4  O   UNL     1       1.512 -16.434  12.800  0.00  0.00    +0.000 OA
ATOM      5  C   UNL     1       2.478 -16.248  14.939  0.00  0.00    +0.000 C 
ENDBRANCH   2   3
BRANCH   1   6
ATOM      6  C   UNL     1       3.906 -11.953  12.317  0.00  0.00    +0.000 C 
ATOM      7  C   UNL     1       4.217 -10.482  12.016  0.00  0.00    +0.000 C 
BRANCH   7   9
ATOM      8  S   UNL     1       6.805  -8.380  13.054  0.00  0.00    +0.000 S 
ATOM      9  N   UNL     1       4.499  -9.197  11.761  0.00  0.00    +0.000 NA
ATOM     10  C   UNL     1       5.479  -8.870  12.317  0.00  0.00    +0.000 C 
ENDBRANCH   7   9
ENDBRANCH   1   6
TORSDOF 3
ENDMDL
MODEL 8
REMARK VINA RESULT:      -2.9     26.207     26.283
REMARK  Name = 5350_Sulforaphane.pdbqt.pdb
REMARK  3 active torsions:
REMARK  status: ('A' for Active; 'I' for Inactive)
REMARK    1  A    between atoms: C_1  and  C_2
REMARK    2  A    between atoms: C_3  and  N_5
REMARK    3  A    between atoms: C_7  and  S_8
REMARK                            x       y       z     vdW  Elec       q    Type
REMARK                         _______ _______ _______ _____ _____    ______ ____
ROOT
ATOM      1  C   UNL     1       3.392 -12.339  12.915  0.00  0.00    +0.000 C 
ATOM      2  C   UNL     1       3.725 -10.975  12.300  0.00  0.00    +0.000 C 
ENDROOT
BRANCH   2   3
ATOM      3  S   UNL     1       4.107  -9.405  11.598  0.00  0.00    +0.000 S 
ATOM      4  O   UNL     1       5.549  -9.777  11.415  0.00  0.00    +0.000 OA
ATOM      5  C   UNL     1       4.428  -8.667  13.164  0.00  0.00    +0.000 C 
ENDBRANCH   2   3
BRANCH   1   6
ATOM      6  C   UNL     1       3.057 -13.702  13.528  0.00  0.00    +0.000 C 
ATOM      7  C   UNL     1       2.721 -15.066  14.142  0.00  0.00    +0.000 C 
BRANCH   7   9
ATOM      8  S   UNL     1       2.630 -16.186  17.448  0.00  0.00    +0.000 S 
ATOM      9  N   UNL     1       2.436 -16.256  14.688  0.00  0.00    +0.000 NA
ATOM     10  C   UNL     1       2.523 -16.206  15.858  0.00  0.00    +0.000 C 
ENDBRANCH   7   9
ENDBRANCH   1   6
TORSDOF 3
ENDMDL
MODEL 9
REMARK VINA RESULT:      -2.9     24.181     24.812
REMARK  Name = 5350_Sulforaphane.pdbqt.pdb
REMARK  3 active torsions:
REMARK  status: ('A' for Active; 'I' for Inactive)
REMARK    1  A    between atoms: C_1  and  C_2
REMARK    2  A    between atoms: C_3  and  N_5
REMARK    3  A    between atoms: C_7  and  S_8
REMARK                            x       y       z     vdW  Elec       q    Type
REMARK                         _______ _______ _______ _____ _____    ______ ____
ROOT
ATOM      1  C   UNL     1      -0.838 -13.141  20.339  0.00  0.00    +0.000 C 
ATOM      2  C   UNL     1      -1.907 -14.234  20.233  0.00  0.00    +0.000 C 
ENDROOT
BRANCH   2   3
ATOM      3  S   UNL     1      -3.140 -15.487  20.112  0.00  0.00    +0.000 S 
ATOM      4  O   UNL     1      -4.222 -14.476  19.875  0.00  0.00    +0.000 OA
ATOM      5  C   UNL     1      -3.443 -15.502  21.846  0.00  0.00    +0.000 C 
ENDBRANCH   2   3
BRANCH   1   6
ATOM      6  C   UNL     1       0.231 -12.050  20.448  0.00  0.00    +0.000 C 
ATOM      7  C   UNL     1       1.302 -10.958  20.557  0.00  0.00    +0.000 C 
BRANCH   7   9
ATOM      8  S   UNL     1       3.184  -9.788  23.255  0.00  0.00    +0.000 S 
ATOM      9  N   UNL     1       2.235 -10.003  20.665  0.00  0.00    +0.000 NA
ATOM     10  C   UNL     1       2.625  -9.928  21.769  0.00  0.00    +0.000 C 
ENDBRANCH   7   9
ENDBRANCH   1   6
TORSDOF 3
ENDMDL
