MODEL 1
REMARK VINA RESULT:      -5.1      0.000      0.000
REMARK  Name = 5357283_Methylferulate.pdbqt.pdb
REMARK  5 active torsions:
REMARK  status: ('A' for Active; 'I' for Inactive)
REMARK    1  A    between atoms: C_1  and  C_11
REMARK    2  A    between atoms: C_2  and  O_7
REMARK    3  A    between atoms: C_5  and  O_9
REMARK    4  A    between atoms: C_12  and  C_14
REMARK    5  A    between atoms: C_14  and  O_15
REMARK                            x       y       z     vdW  Elec       q    Type
REMARK                         _______ _______ _______ _____ _____    ______ ____
ROOT
ATOM      1  C   UNL     1      -9.933  -3.766  19.857  0.00  0.00    +0.000 A 
ATOM      2  C   UNL     1     -10.121  -1.791  21.253  0.00  0.00    +0.000 A 
ATOM      3  C   UNL     1      -9.569  -2.453  20.151  0.00  0.00    +0.000 A 
ATOM      4  C   UNL     1     -10.854  -4.433  20.662  0.00  0.00    +0.000 A 
ATOM      5  C   UNL     1     -11.043  -2.473  22.051  0.00  0.00    +0.000 A 
ATOM      6  C   UNL     1     -11.411  -3.786  21.762  0.00  0.00    +0.000 A 
ENDROOT
BRANCH   2   7
ATOM      7  O   UNL     1      -9.817  -0.500  21.612  0.00  0.00    +0.000 OA
ATOM      8  C   UNL     1      -8.491  -0.105  21.374  0.00  0.00    +0.000 C 
ENDBRANCH   2   7
BRANCH   5   9
ATOM      9  O   UNL     1     -11.595  -1.842  23.133  0.00  0.00    +0.000 OA
ATOM     10  H   UNL     1     -11.387  -0.891  23.080  0.00  0.00    +0.000 HD
ENDBRANCH   5   9
BRANCH   1  11
ATOM     11  C   UNL     1      -9.360  -4.425  18.731  0.00  0.00    +0.000 C 
ATOM     12  C   UNL     1      -8.876  -4.983  17.782  0.00  0.00    +0.000 C 
BRANCH  12  14
ATOM     13  O   UNL     1      -7.189  -5.310  16.236  0.00  0.00    +0.000 OA
ATOM     14  C   UNL     1      -8.291  -5.654  16.644  0.00  0.00    +0.000 C 
BRANCH  14  15
ATOM     15  O   UNL     1      -9.117  -6.633  16.170  0.00  0.00    +0.000 OA
ATOM     16  C   UNL     1     -10.044  -6.286  15.173  0.00  0.00    +0.000 C 
ENDBRANCH  14  15
ENDBRANCH  12  14
ENDBRANCH   1  11
TORSDOF 5
ENDMDL
MODEL 2
REMARK VINA RESULT:      -5.1      3.034      6.143
REMARK  Name = 5357283_Methylferulate.pdbqt.pdb
REMARK  5 active torsions:
REMARK  status: ('A' for Active; 'I' for Inactive)
REMARK    1  A    between atoms: C_1  and  C_11
REMARK    2  A    between atoms: C_2  and  O_7
REMARK    3  A    between atoms: C_5  and  O_9
REMARK    4  A    between atoms: C_12  and  C_14
REMARK    5  A    between atoms: C_14  and  O_15
REMARK                            x       y       z     vdW  Elec       q    Type
REMARK                         _______ _______ _______ _____ _____    ______ ____
ROOT
ATOM      1  C   UNL     1      -9.415  -1.405  20.111  0.00  0.00    +0.000 A 
ATOM      2  C   UNL     1      -8.509  -3.472  20.999  0.00  0.00    +0.000 A 
ATOM      3  C   UNL     1      -8.609  -2.078  21.029  0.00  0.00    +0.000 A 
ATOM      4  C   UNL     1     -10.129  -2.120  19.152  0.00  0.00    +0.000 A 
ATOM      5  C   UNL     1      -9.231  -4.176  20.032  0.00  0.00    +0.000 A 
ATOM      6  C   UNL     1     -10.038  -3.508  19.112  0.00  0.00    +0.000 A 
ENDROOT
BRANCH   2   7
ATOM      7  O   UNL     1      -7.739  -4.211  21.865  0.00  0.00    +0.000 OA
ATOM      8  C   UNL     1      -7.837  -3.848  23.217  0.00  0.00    +0.000 C 
ENDBRANCH   2   7
BRANCH   5   9
ATOM      9  O   UNL     1      -9.147  -5.541  19.987  0.00  0.00    +0.000 OA
ATOM     10  H   UNL     1      -8.308  -5.789  19.556  0.00  0.00    +0.000 HD
ENDBRANCH   5   9
BRANCH   1  11
ATOM     11  C   UNL     1      -9.504   0.017  20.155  0.00  0.00    +0.000 C 
ATOM     12  C   UNL     1      -9.581   1.216  20.193  0.00  0.00    +0.000 C 
BRANCH  12  14
ATOM     13  O   UNL     1     -10.388   3.193  21.077  0.00  0.00    +0.000 OA
ATOM     14  C   UNL     1      -9.678   2.657  20.237  0.00  0.00    +0.000 C 
BRANCH  14  15
ATOM     15  O   UNL     1      -8.908   3.233  19.268  0.00  0.00    +0.000 OA
ATOM     16  C   UNL     1      -9.330   3.110  17.933  0.00  0.00    +0.000 C 
ENDBRANCH  14  15
ENDBRANCH  12  14
ENDBRANCH   1  11
TORSDOF 5
ENDMDL
MODEL 3
REMARK VINA RESULT:      -4.8      3.574      6.730
REMARK  Name = 5357283_Methylferulate.pdbqt.pdb
REMARK  5 active torsions:
REMARK  status: ('A' for Active; 'I' for Inactive)
REMARK    1  A    between atoms: C_1  and  C_11
REMARK    2  A    between atoms: C_2  and  O_7
REMARK    3  A    between atoms: C_5  and  O_9
REMARK    4  A    between atoms: C_12  and  C_14
REMARK    5  A    between atoms: C_14  and  O_15
REMARK                            x       y       z     vdW  Elec       q    Type
REMARK                         _______ _______ _______ _____ _____    ______ ____
ROOT
ATOM      1  C   UNL     1      -7.905  -2.309  21.468  0.00  0.00    +0.000 A 
ATOM      2  C   UNL     1      -9.051  -4.116  20.327  0.00  0.00    +0.000 A 
ATOM      3  C   UNL     1      -8.059  -3.669  21.205  0.00  0.00    +0.000 A 
ATOM      4  C   UNL     1      -8.743  -1.380  20.857  0.00  0.00    +0.000 A 
ATOM      5  C   UNL     1      -9.884  -3.172  19.721  0.00  0.00    +0.000 A 
ATOM      6  C   UNL     1      -9.734  -1.811  19.981  0.00  0.00    +0.000 A 
ENDROOT
BRANCH   2   7
ATOM      7  O   UNL     1      -9.269  -5.436  20.013  0.00  0.00    +0.000 OA
ATOM      8  C   UNL     1      -8.334  -6.009  19.138  0.00  0.00    +0.000 C 
ENDBRANCH   2   7
BRANCH   5   9
ATOM      9  O   UNL     1     -10.862  -3.590  18.859  0.00  0.00    +0.000 OA
ATOM     10  H   UNL     1     -11.667  -3.787  19.372  0.00  0.00    +0.000 HD
ENDBRANCH   5   9
BRANCH   1  11
ATOM     11  C   UNL     1      -6.887  -1.871  22.365  0.00  0.00    +0.000 C 
ATOM     12  C   UNL     1      -6.028  -1.504  23.122  0.00  0.00    +0.000 C 
BRANCH  12  14
ATOM     13  O   UNL     1      -3.820  -1.225  23.746  0.00  0.00    +0.000 OA
ATOM     14  C   UNL     1      -4.998  -1.064  24.035  0.00  0.00    +0.000 C 
BRANCH  14  15
ATOM     15  O   UNL     1      -5.540  -0.498  25.154  0.00  0.00    +0.000 OA
ATOM     16  C   UNL     1      -5.999  -1.356  26.169  0.00  0.00    +0.000 C 
ENDBRANCH  14  15
ENDBRANCH  12  14
ENDBRANCH   1  11
TORSDOF 5
ENDMDL
MODEL 4
REMARK VINA RESULT:      -4.6      2.947      4.450
REMARK  Name = 5357283_Methylferulate.pdbqt.pdb
REMARK  5 active torsions:
REMARK  status: ('A' for Active; 'I' for Inactive)
REMARK    1  A    between atoms: C_1  and  C_11
REMARK    2  A    between atoms: C_2  and  O_7
REMARK    3  A    between atoms: C_5  and  O_9
REMARK    4  A    between atoms: C_12  and  C_14
REMARK    5  A    between atoms: C_14  and  O_15
REMARK                            x       y       z     vdW  Elec       q    Type
REMARK                         _______ _______ _______ _____ _____    ______ ____
ROOT
ATOM      1  C   UNL     1      -8.720  -1.087  20.876  0.00  0.00    +0.000 A 
ATOM      2  C   UNL     1      -7.530   0.750  21.920  0.00  0.00    +0.000 A 
ATOM      3  C   UNL     1      -7.743  -0.622  21.754  0.00  0.00    +0.000 A 
ATOM      4  C   UNL     1      -9.497  -0.185  20.153  0.00  0.00    +0.000 A 
ATOM      5  C   UNL     1      -8.317   1.643  21.188  0.00  0.00    +0.000 A 
ATOM      6  C   UNL     1      -9.296   1.183  20.308  0.00  0.00    +0.000 A 
ENDROOT
BRANCH   2   7
ATOM      7  O   UNL     1      -6.590   1.291  22.763  0.00  0.00    +0.000 OA
ATOM      8  C   UNL     1      -5.253   1.075  22.391  0.00  0.00    +0.000 C 
ENDBRANCH   2   7
BRANCH   5   9
ATOM      9  O   UNL     1      -8.123   2.990  21.335  0.00  0.00    +0.000 OA
ATOM     10  H   UNL     1      -7.349   3.255  20.806  0.00  0.00    +0.000 HD
ENDBRANCH   5   9
BRANCH   1  11
ATOM     11  C   UNL     1      -8.924  -2.490  20.720  0.00  0.00    +0.000 C 
ATOM     12  C   UNL     1      -9.096  -3.673  20.590  0.00  0.00    +0.000 C 
BRANCH  12  14
ATOM     13  O   UNL     1      -8.818  -5.678  19.476  0.00  0.00    +0.000 OA
ATOM     14  C   UNL     1      -9.300  -5.095  20.438  0.00  0.00    +0.000 C 
BRANCH  14  15
ATOM     15  O   UNL     1     -10.051  -5.598  21.462  0.00  0.00    +0.000 OA
ATOM     16  C   UNL     1     -11.350  -5.091  21.637  0.00  0.00    +0.000 C 
ENDBRANCH  14  15
ENDBRANCH  12  14
ENDBRANCH   1  11
TORSDOF 5
ENDMDL
MODEL 5
REMARK VINA RESULT:      -4.6     16.228     18.712
REMARK  Name = 5357283_Methylferulate.pdbqt.pdb
REMARK  5 active torsions:
REMARK  status: ('A' for Active; 'I' for Inactive)
REMARK    1  A    between atoms: C_1  and  C_11
REMARK    2  A    between atoms: C_2  and  O_7
REMARK    3  A    between atoms: C_5  and  O_9
REMARK    4  A    between atoms: C_12  and  C_14
REMARK    5  A    between atoms: C_14  and  O_15
REMARK                            x       y       z     vdW  Elec       q    Type
REMARK                         _______ _______ _______ _____ _____    ______ ____
ROOT
ATOM      1  C   UNL     1       4.316 -13.145  12.031  0.00  0.00    +0.000 A 
ATOM      2  C   UNL     1       4.398 -10.723  12.135  0.00  0.00    +0.000 A 
ATOM      3  C   UNL     1       3.685 -11.920  12.245  0.00  0.00    +0.000 A 
ATOM      4  C   UNL     1       5.669 -13.185  11.705  0.00  0.00    +0.000 A 
ATOM      5  C   UNL     1       5.755 -10.780  11.808  0.00  0.00    +0.000 A 
ATOM      6  C   UNL     1       6.392 -12.001  11.593  0.00  0.00    +0.000 A 
ENDROOT
BRANCH   2   7
ATOM      7  O   UNL     1       3.853  -9.477  12.330  0.00  0.00    +0.000 OA
ATOM      8  C   UNL     1       2.646  -9.236  11.656  0.00  0.00    +0.000 C 
ENDBRANCH   2   7
BRANCH   5   9
ATOM      9  O   UNL     1       6.472  -9.619  11.697  0.00  0.00    +0.000 OA
ATOM     10  H   UNL     1       7.422  -9.837  11.694  0.00  0.00    +0.000 HD
ENDBRANCH   5   9
BRANCH   1  11
ATOM     11  C   UNL     1       3.572 -14.356  12.146  0.00  0.00    +0.000 C 
ATOM     12  C   UNL     1       2.944 -15.376  12.244  0.00  0.00    +0.000 C 
BRANCH  12  14
ATOM     13  O   UNL     1       1.613 -16.859  13.415  0.00  0.00    +0.000 OA
ATOM     14  C   UNL     1       2.191 -16.603  12.367  0.00  0.00    +0.000 C 
BRANCH  14  15
ATOM     15  O   UNL     1       2.247 -17.334  11.215  0.00  0.00    +0.000 OA
ATOM     16  C   UNL     1       2.592 -18.693  11.314  0.00  0.00    +0.000 C 
ENDBRANCH  14  15
ENDBRANCH  12  14
ENDBRANCH   1  11
TORSDOF 5
ENDMDL
MODEL 6
REMARK VINA RESULT:      -4.5     16.191     18.234
REMARK  Name = 5357283_Methylferulate.pdbqt.pdb
REMARK  5 active torsions:
REMARK  status: ('A' for Active; 'I' for Inactive)
REMARK    1  A    between atoms: C_1  and  C_11
REMARK    2  A    between atoms: C_2  and  O_7
REMARK    3  A    between atoms: C_5  and  O_9
REMARK    4  A    between atoms: C_12  and  C_14
REMARK    5  A    between atoms: C_14  and  O_15
REMARK                            x       y       z     vdW  Elec       q    Type
REMARK                         _______ _______ _______ _____ _____    ______ ____
ROOT
ATOM      1  C   UNL     1     -11.046   5.596   4.725  0.00  0.00    +0.000 A 
ATOM      2  C   UNL     1      -8.676   5.102   4.575  0.00  0.00    +0.000 A 
ATOM      3  C   UNL     1      -9.796   5.465   5.329  0.00  0.00    +0.000 A 
ATOM      4  C   UNL     1     -11.189   5.365   3.359  0.00  0.00    +0.000 A 
ATOM      5  C   UNL     1      -8.835   4.874   3.206  0.00  0.00    +0.000 A 
ATOM      6  C   UNL     1     -10.083   5.003   2.597  0.00  0.00    +0.000 A 
ENDROOT
BRANCH   2   7
ATOM      7  O   UNL     1      -7.411   4.952   5.091  0.00  0.00    +0.000 OA
ATOM      8  C   UNL     1      -7.352   4.611   6.451  0.00  0.00    +0.000 C 
ENDBRANCH   2   7
BRANCH   5   9
ATOM      9  O   UNL     1      -7.751   4.516   2.450  0.00  0.00    +0.000 OA
ATOM     10  H   UNL     1      -7.799   4.982   1.595  0.00  0.00    +0.000 HD
ENDBRANCH   5   9
BRANCH   1  11
ATOM     11  C   UNL     1     -12.176   5.968   5.510  0.00  0.00    +0.000 C 
ATOM     12  C   UNL     1     -13.129   6.284   6.172  0.00  0.00    +0.000 C 
BRANCH  12  14
ATOM     13  O   UNL     1     -14.214   6.581   8.191  0.00  0.00    +0.000 OA
ATOM     14  C   UNL     1     -14.271   6.663   6.971  0.00  0.00    +0.000 C 
BRANCH  14  15
ATOM     15  O   UNL     1     -15.306   7.082   6.185  0.00  0.00    +0.000 OA
ATOM     16  C   UNL     1     -15.164   8.304   5.505  0.00  0.00    +0.000 C 
ENDBRANCH  14  15
ENDBRANCH  12  14
ENDBRANCH   1  11
TORSDOF 5
ENDMDL
MODEL 7
REMARK VINA RESULT:      -4.4      2.157      3.538
REMARK  Name = 5357283_Methylferulate.pdbqt.pdb
REMARK  5 active torsions:
REMARK  status: ('A' for Active; 'I' for Inactive)
REMARK    1  A    between atoms: C_1  and  C_11
REMARK    2  A    between atoms: C_2  and  O_7
REMARK    3  A    between atoms: C_5  and  O_9
REMARK    4  A    between atoms: C_12  and  C_14
REMARK    5  A    between atoms: C_14  and  O_15
REMARK                            x       y       z     vdW  Elec       q    Type
REMARK                         _______ _______ _______ _____ _____    ______ ____
ROOT
ATOM      1  C   UNL     1      -9.766  -1.133  20.779  0.00  0.00    +0.000 A 
ATOM      2  C   UNL     1     -10.655   0.189  22.608  0.00  0.00    +0.000 A 
ATOM      3  C   UNL     1     -10.384  -1.053  22.026  0.00  0.00    +0.000 A 
ATOM      4  C   UNL     1      -9.411   0.030  20.100  0.00  0.00    +0.000 A 
ATOM      5  C   UNL     1     -10.293   1.347  21.914  0.00  0.00    +0.000 A 
ATOM      6  C   UNL     1      -9.675   1.273  20.667  0.00  0.00    +0.000 A 
ENDROOT
BRANCH   2   7
ATOM      7  O   UNL     1     -11.260   0.356  23.830  0.00  0.00    +0.000 OA
ATOM      8  C   UNL     1     -12.609  -0.027  23.891  0.00  0.00    +0.000 C 
ENDBRANCH   2   7
BRANCH   5   9
ATOM      9  O   UNL     1     -10.549   2.573  22.468  0.00  0.00    +0.000 OA
ATOM     10  H   UNL     1     -11.251   2.473  23.137  0.00  0.00    +0.000 HD
ENDBRANCH   5   9
BRANCH   1  11
ATOM     11  C   UNL     1      -9.498  -2.408  20.201  0.00  0.00    +0.000 C 
ATOM     12  C   UNL     1      -9.273  -3.484  19.714  0.00  0.00    +0.000 C 
BRANCH  12  14
ATOM     13  O   UNL     1      -8.661  -5.708  19.853  0.00  0.00    +0.000 OA
ATOM     14  C   UNL     1      -9.000  -4.778  19.133  0.00  0.00    +0.000 C 
BRANCH  14  15
ATOM     15  O   UNL     1      -9.175  -4.759  17.779  0.00  0.00    +0.000 OA
ATOM     16  C   UNL     1      -8.278  -5.497  16.989  0.00  0.00    +0.000 C 
ENDBRANCH  14  15
ENDBRANCH  12  14
ENDBRANCH   1  11
TORSDOF 5
ENDMDL
MODEL 8
REMARK VINA RESULT:      -4.3     16.568     17.402
REMARK  Name = 5357283_Methylferulate.pdbqt.pdb
REMARK  5 active torsions:
REMARK  status: ('A' for Active; 'I' for Inactive)
REMARK    1  A    between atoms: C_1  and  C_11
REMARK    2  A    between atoms: C_2  and  O_7
REMARK    3  A    between atoms: C_5  and  O_9
REMARK    4  A    between atoms: C_12  and  C_14
REMARK    5  A    between atoms: C_14  and  O_15
REMARK                            x       y       z     vdW  Elec       q    Type
REMARK                         _______ _______ _______ _____ _____    ______ ____
ROOT
ATOM      1  C   UNL     1       3.683 -11.682  12.867  0.00  0.00    +0.000 A 
ATOM      2  C   UNL     1       4.865  -9.654  13.476  0.00  0.00    +0.000 A 
ATOM      3  C   UNL     1       4.553 -10.995  13.714  0.00  0.00    +0.000 A 
ATOM      4  C   UNL     1       3.116 -11.033  11.773  0.00  0.00    +0.000 A 
ATOM      5  C   UNL     1       4.289  -9.016  12.375  0.00  0.00    +0.000 A 
ATOM      6  C   UNL     1       3.418  -9.697  11.525  0.00  0.00    +0.000 A 
ENDROOT
BRANCH   2   7
ATOM      7  O   UNL     1       5.711  -8.906  14.260  0.00  0.00    +0.000 OA
ATOM      8  C   UNL     1       5.233  -8.605  15.545  0.00  0.00    +0.000 C 
ENDBRANCH   2   7
BRANCH   5   9
ATOM      9  O   UNL     1       4.583  -7.703  12.125  0.00  0.00    +0.000 OA
ATOM     10  H   UNL     1       5.411  -7.475  12.586  0.00  0.00    +0.000 HD
ENDBRANCH   5   9
BRANCH   1  11
ATOM     11  C   UNL     1       3.374 -13.050  13.125  0.00  0.00    +0.000 C 
ATOM     12  C   UNL     1       3.114 -14.203  13.344  0.00  0.00    +0.000 C 
BRANCH  12  14
ATOM     13  O   UNL     1       3.534 -16.245  14.340  0.00  0.00    +0.000 OA
ATOM     14  C   UNL     1       2.803 -15.588  13.611  0.00  0.00    +0.000 C 
BRANCH  14  15
ATOM     15  O   UNL     1       1.663 -15.972  12.964  0.00  0.00    +0.000 OA
ATOM     16  C   UNL     1       1.798 -16.634  11.732  0.00  0.00    +0.000 C 
ENDBRANCH  14  15
ENDBRANCH  12  14
ENDBRANCH   1  11
TORSDOF 5
ENDMDL
MODEL 9
REMARK VINA RESULT:      -4.3      3.699      5.634
REMARK  Name = 5357283_Methylferulate.pdbqt.pdb
REMARK  5 active torsions:
REMARK  status: ('A' for Active; 'I' for Inactive)
REMARK    1  A    between atoms: C_1  and  C_11
REMARK    2  A    between atoms: C_2  and  O_7
REMARK    3  A    between atoms: C_5  and  O_9
REMARK    4  A    between atoms: C_12  and  C_14
REMARK    5  A    between atoms: C_14  and  O_15
REMARK                            x       y       z     vdW  Elec       q    Type
REMARK                         _______ _______ _______ _____ _____    ______ ____
ROOT
ATOM      1  C   UNL     1      -9.759  -2.145  20.991  0.00  0.00    +0.000 A 
ATOM      2  C   UNL     1     -11.158  -3.870  21.964  0.00  0.00    +0.000 A 
ATOM      3  C   UNL     1     -10.988  -2.563  21.498  0.00  0.00    +0.000 A 
ATOM      4  C   UNL     1      -8.684  -3.030  20.946  0.00  0.00    +0.000 A 
ATOM      5  C   UNL     1     -10.072  -4.747  21.912  0.00  0.00    +0.000 A 
ATOM      6  C   UNL     1      -8.840  -4.334  21.406  0.00  0.00    +0.000 A 
ENDROOT
BRANCH   2   7
ATOM      7  O   UNL     1     -12.334  -4.362  22.477  0.00  0.00    +0.000 OA
ATOM      8  C   UNL     1     -13.039  -3.484  23.316  0.00  0.00    +0.000 C 
ENDBRANCH   2   7
BRANCH   5   9
ATOM      9  O   UNL     1     -10.218  -6.031  22.362  0.00  0.00    +0.000 OA
ATOM     10  H   UNL     1     -11.016  -6.416  21.956  0.00  0.00    +0.000 HD
ENDBRANCH   5   9
BRANCH   1  11
ATOM     11  C   UNL     1      -9.603  -0.808  20.521  0.00  0.00    +0.000 C 
ATOM     12  C   UNL     1      -9.471   0.319  20.125  0.00  0.00    +0.000 C 
BRANCH  12  14
ATOM     13  O   UNL     1      -8.810   2.519  20.383  0.00  0.00    +0.000 OA
ATOM     14  C   UNL     1      -9.307   1.674  19.650  0.00  0.00    +0.000 C 
BRANCH  14  15
ATOM     15  O   UNL     1      -9.766   1.808  18.371  0.00  0.00    +0.000 OA
ATOM     16  C   UNL     1      -9.478   3.003  17.691  0.00  0.00    +0.000 C 
ENDBRANCH  14  15
ENDBRANCH  12  14
ENDBRANCH   1  11
TORSDOF 5
ENDMDL
