MODEL 1
REMARK VINA RESULT:      -6.3      0.000      0.000
REMARK  Name = 5358691_Yuanhuacine.pdbqt.pdb
REMARK  12 active torsions:
REMARK  status: ('A' for Active; 'I' for Inactive)
REMARK    1  A    between atoms: C_9  and  C_48
REMARK    2  A    between atoms: C_13  and  C_23
REMARK    3  A    between atoms: C_14  and  O_26
REMARK    4  A    between atoms: C_15  and  O_28
REMARK    5  A    between atoms: C_16  and  O_39
REMARK    6  A    between atoms: C_17  and  C_30
REMARK    7  A    between atoms: C_31  and  C_32
REMARK    8  A    between atoms: C_33  and  C_34
REMARK    9  A    between atoms: C_35  and  C_36
REMARK   10  A    between atoms: O_39  and  C_41
REMARK   11  A    between atoms: C_41  and  C_42
REMARK   12  A    between atoms: C_48  and  O_49
REMARK                            x       y       z     vdW  Elec       q    Type
REMARK                         _______ _______ _______ _____ _____    ______ ____
ROOT
ATOM      1  O   UNL     1     -11.920  -0.277  26.246  0.00  0.00    +0.000 OA
ATOM      2  O   UNL     1      -9.699  -2.981  26.385  0.00  0.00    +0.000 OA
ATOM      3  O   UNL     1      -8.820  -1.101  25.232  0.00  0.00    +0.000 OA
ATOM      4  O   UNL     1      -8.061  -3.194  24.682  0.00  0.00    +0.000 OA
ATOM      5  O   UNL     1     -15.469  -4.024  26.942  0.00  0.00    +0.000 OA
ATOM      6  C   UNL     1     -10.938  -1.742  24.699  0.00  0.00    +0.000 C 
ATOM      7  C   UNL     1     -10.874  -3.039  25.519  0.00  0.00    +0.000 C 
ATOM      8  C   UNL     1     -11.825  -0.636  24.925  0.00  0.00    +0.000 C 
ATOM      9  C   UNL     1     -13.147  -0.464  25.529  0.00  0.00    +0.000 C 
ATOM     10  C   UNL     1      -9.590  -1.538  24.155  0.00  0.00    +0.000 C 
ATOM     11  C   UNL     1     -12.069  -3.206  26.407  0.00  0.00    +0.000 C 
ATOM     12  C   UNL     1     -10.706  -4.239  24.538  0.00  0.00    +0.000 C 
ATOM     13  C   UNL     1      -8.889  -2.783  23.558  0.00  0.00    +0.000 C 
ATOM     14  C   UNL     1     -13.474  -3.058  25.869  0.00  0.00    +0.000 C 
ATOM     15  C   UNL     1     -14.001  -1.655  25.790  0.00  0.00    +0.000 C 
ATOM     16  C   UNL     1      -9.854  -3.944  23.397  0.00  0.00    +0.000 C 
ATOM     17  C   UNL     1      -8.526  -2.396  25.768  0.00  0.00    +0.000 C 
ATOM     18  C   UNL     1     -12.128  -3.926  27.628  0.00  0.00    +0.000 C 
ATOM     19  C   UNL     1     -11.143  -5.682  24.793  0.00  0.00    +0.000 C 
ATOM     20  C   UNL     1     -14.251  -3.863  26.962  0.00  0.00    +0.000 C 
ATOM     21  C   UNL     1     -13.287  -4.357  27.999  0.00  0.00    +0.000 C 
ATOM     22  C   UNL     1     -13.621  -4.739  29.404  0.00  0.00    +0.000 C 
ENDROOT
BRANCH  13  23
ATOM     23  C   UNL     1      -8.064  -2.376  22.314  0.00  0.00    +0.000 C 
ATOM     24  C   UNL     1      -8.561  -1.419  21.232  0.00  0.00    +0.000 C 
ATOM     25  C   UNL     1      -6.956  -3.030  21.909  0.00  0.00    +0.000 C 
ENDBRANCH  13  23
BRANCH  14  26
ATOM     26  O   UNL     1     -13.594  -3.640  24.588  0.00  0.00    +0.000 OA
ATOM     27  H   UNL     1     -14.486  -4.037  24.533  0.00  0.00    +0.000 HD
ENDBRANCH  14  26
BRANCH  15  28
ATOM     28  O   UNL     1     -15.390  -1.502  25.780  0.00  0.00    +0.000 OA
ATOM     29  H   UNL     1     -15.722  -0.702  26.240  0.00  0.00    +0.000 HD
ENDBRANCH  15  28
BRANCH  17  30
ATOM     30  C   UNL     1      -7.473  -2.285  26.773  0.00  0.00    +0.000 C 
ATOM     31  C   UNL     1      -6.608  -2.192  27.600  0.00  0.00    +0.000 C 
BRANCH  31  32
ATOM     32  C   UNL     1      -5.505  -2.072  28.655  0.00  0.00    +0.000 C 
ATOM     33  C   UNL     1      -4.640  -1.979  29.483  0.00  0.00    +0.000 C 
BRANCH  33  34
ATOM     34  C   UNL     1      -3.538  -1.863  30.540  0.00  0.00    +0.000 C 
ATOM     35  C   UNL     1      -2.437  -1.747  31.597  0.00  0.00    +0.000 C 
BRANCH  35  36
ATOM     36  C   UNL     1      -1.335  -1.632  32.656  0.00  0.00    +0.000 C 
ATOM     37  C   UNL     1      -0.234  -1.518  33.714  0.00  0.00    +0.000 C 
ATOM     38  C   UNL     1       0.868  -1.405  34.772  0.00  0.00    +0.000 C 
ENDBRANCH  35  36
ENDBRANCH  33  34
ENDBRANCH  31  32
ENDBRANCH  17  30
BRANCH  16  39
ATOM     39  O   UNL     1      -9.954  -4.772  22.266  0.00  0.00    +0.000 OA
BRANCH  39  41
ATOM     40  O   UNL     1     -11.734  -3.636  21.361  0.00  0.00    +0.000 OA
ATOM     41  C   UNL     1     -10.681  -4.238  21.241  0.00  0.00    +0.000 C 
BRANCH  41  42
ATOM     42  C   UNL     1     -10.035  -4.530  19.949  0.00  0.00    +0.000 A 
ATOM     43  C   UNL     1     -10.435  -3.897  18.773  0.00  0.00    +0.000 A 
ATOM     44  C   UNL     1      -9.000  -5.464  19.924  0.00  0.00    +0.000 A 
ATOM     45  C   UNL     1      -9.799  -4.198  17.571  0.00  0.00    +0.000 A 
ATOM     46  C   UNL     1      -8.365  -5.764  18.722  0.00  0.00    +0.000 A 
ATOM     47  C   UNL     1      -8.765  -5.131  17.547  0.00  0.00    +0.000 A 
ENDBRANCH  41  42
ENDBRANCH  39  41
ENDBRANCH  16  39
BRANCH   9  48
ATOM     48  C   UNL     1     -13.815   0.819  25.357  0.00  0.00    +0.000 C 
BRANCH  48  49
ATOM     49  O   UNL     1     -14.430   1.988  25.201  0.00  0.00    +0.000 OA
ATOM     50  H   UNL     1     -15.286   1.987  25.664  0.00  0.00    +0.000 HD
ENDBRANCH  48  49
ENDBRANCH   9  48
TORSDOF 12
ENDMDL
MODEL 2
REMARK VINA RESULT:      -6.2      4.728      6.827
REMARK  Name = 5358691_Yuanhuacine.pdbqt.pdb
REMARK  12 active torsions:
REMARK  status: ('A' for Active; 'I' for Inactive)
REMARK    1  A    between atoms: C_9  and  C_48
REMARK    2  A    between atoms: C_13  and  C_23
REMARK    3  A    between atoms: C_14  and  O_26
REMARK    4  A    between atoms: C_15  and  O_28
REMARK    5  A    between atoms: C_16  and  O_39
REMARK    6  A    between atoms: C_17  and  C_30
REMARK    7  A    between atoms: C_31  and  C_32
REMARK    8  A    between atoms: C_33  and  C_34
REMARK    9  A    between atoms: C_35  and  C_36
REMARK   10  A    between atoms: O_39  and  C_41
REMARK   11  A    between atoms: C_41  and  C_42
REMARK   12  A    between atoms: C_48  and  O_49
REMARK                            x       y       z     vdW  Elec       q    Type
REMARK                         _______ _______ _______ _____ _____    ______ ____
ROOT
ATOM      1  O   UNL     1     -13.250  -8.286  27.648  0.00  0.00    +0.000 OA
ATOM      2  O   UNL     1     -10.584  -6.020  27.775  0.00  0.00    +0.000 OA
ATOM      3  O   UNL     1     -12.607  -5.047  27.006  0.00  0.00    +0.000 OA
ATOM      4  O   UNL     1     -10.614  -4.147  26.318  0.00  0.00    +0.000 OA
ATOM      5  O   UNL     1      -9.392 -11.771  27.343  0.00  0.00    +0.000 OA
ATOM      6  C   UNL     1     -12.008  -7.043  26.092  0.00  0.00    +0.000 C 
ATOM      7  C   UNL     1     -10.618  -7.055  26.745  0.00  0.00    +0.000 C 
ATOM      8  C   UNL     1     -13.063  -7.990  26.321  0.00  0.00    +0.000 C 
ATOM      9  C   UNL     1     -13.137  -9.391  26.740  0.00  0.00    +0.000 C 
ATOM     10  C   UNL     1     -12.300  -5.639  25.782  0.00  0.00    +0.000 C 
ATOM     11  C   UNL     1     -10.322  -8.359  27.421  0.00  0.00    +0.000 C 
ATOM     12  C   UNL     1      -9.556  -6.708  25.659  0.00  0.00    +0.000 C 
ATOM     13  C   UNL     1     -11.152  -4.818  25.144  0.00  0.00    +0.000 C 
ATOM     14  C   UNL     1     -10.517  -9.677  26.704  0.00  0.00    +0.000 C 
ATOM     15  C   UNL     1     -11.910 -10.233  26.723  0.00  0.00    +0.000 C 
ATOM     16  C   UNL     1     -10.007  -5.711  24.701  0.00  0.00    +0.000 C 
ATOM     17  C   UNL     1     -11.259  -4.790  27.415  0.00  0.00    +0.000 C 
ATOM     18  C   UNL     1      -9.451  -8.570  28.521  0.00  0.00    +0.000 C 
ATOM     19  C   UNL     1      -8.086  -7.128  25.666  0.00  0.00    +0.000 C 
ATOM     20  C   UNL     1      -9.567 -10.576  27.563  0.00  0.00    +0.000 C 
ATOM     21  C   UNL     1      -8.959  -9.755  28.661  0.00  0.00    +0.000 C 
ATOM     22  C   UNL     1      -8.396 -10.275  29.943  0.00  0.00    +0.000 C 
ENDROOT
BRANCH  13  23
ATOM     23  C   UNL     1     -11.726  -3.837  24.096  0.00  0.00    +0.000 C 
ATOM     24  C   UNL     1     -11.675  -2.315  24.227  0.00  0.00    +0.000 C 
ATOM     25  C   UNL     1     -12.572  -4.208  23.113  0.00  0.00    +0.000 C 
ENDBRANCH  13  23
BRANCH  14  26
ATOM     26  O   UNL     1     -10.101  -9.592  25.357  0.00  0.00    +0.000 OA
ATOM     27  H   UNL     1      -9.228  -9.150  25.351  0.00  0.00    +0.000 HD
ENDBRANCH  14  26
BRANCH  15  28
ATOM     28  O   UNL     1     -12.042 -11.610  26.528  0.00  0.00    +0.000 OA
ATOM     29  H   UNL     1     -12.757 -11.874  25.910  0.00  0.00    +0.000 HD
ENDBRANCH  15  28
BRANCH  17  30
ATOM     30  C   UNL     1     -11.257  -3.897  28.570  0.00  0.00    +0.000 C 
ATOM     31  C   UNL     1     -11.256  -3.161  29.518  0.00  0.00    +0.000 C 
BRANCH  31  32
ATOM     32  C   UNL     1     -11.256  -2.223  30.728  0.00  0.00    +0.000 C 
ATOM     33  C   UNL     1     -11.257  -1.486  31.675  0.00  0.00    +0.000 C 
BRANCH  33  34
ATOM     34  C   UNL     1     -11.257  -0.544  32.883  0.00  0.00    +0.000 C 
ATOM     35  C   UNL     1     -11.257   0.398  34.090  0.00  0.00    +0.000 C 
BRANCH  35  36
ATOM     36  C   UNL     1     -11.259   1.342  35.297  0.00  0.00    +0.000 C 
ATOM     37  C   UNL     1     -11.259   2.285  36.504  0.00  0.00    +0.000 C 
ATOM     38  C   UNL     1     -11.259   3.229  37.711  0.00  0.00    +0.000 C 
ENDBRANCH  35  36
ENDBRANCH  33  34
ENDBRANCH  31  32
ENDBRANCH  17  30
BRANCH  16  39
ATOM     39  O   UNL     1      -9.328  -5.619  23.474  0.00  0.00    +0.000 OA
BRANCH  39  41
ATOM     40  O   UNL     1      -7.750  -4.085  24.137  0.00  0.00    +0.000 OA
ATOM     41  C   UNL     1      -8.573  -4.489  23.333  0.00  0.00    +0.000 C 
BRANCH  41  42
ATOM     42  C   UNL     1      -8.924  -3.792  22.083  0.00  0.00    +0.000 A 
ATOM     43  C   UNL     1      -8.707  -2.423  21.925  0.00  0.00    +0.000 A 
ATOM     44  C   UNL     1      -9.483  -4.537  21.046  0.00  0.00    +0.000 A 
ATOM     45  C   UNL     1      -9.050  -1.800  20.728  0.00  0.00    +0.000 A 
ATOM     46  C   UNL     1      -9.824  -3.912  19.850  0.00  0.00    +0.000 A 
ATOM     47  C   UNL     1      -9.608  -2.545  19.691  0.00  0.00    +0.000 A 
ENDBRANCH  41  42
ENDBRANCH  39  41
ENDBRANCH  16  39
BRANCH   9  48
ATOM     48  C   UNL     1     -14.422 -10.069  26.633  0.00  0.00    +0.000 C 
BRANCH  48  49
ATOM     49  O   UNL     1     -15.597 -10.684  26.531  0.00  0.00    +0.000 OA
ATOM     50  H   UNL     1     -15.659 -11.162  25.686  0.00  0.00    +0.000 HD
ENDBRANCH  48  49
ENDBRANCH   9  48
TORSDOF 12
ENDMDL
MODEL 3
REMARK VINA RESULT:      -5.9      3.696     10.569
REMARK  Name = 5358691_Yuanhuacine.pdbqt.pdb
REMARK  12 active torsions:
REMARK  status: ('A' for Active; 'I' for Inactive)
REMARK    1  A    between atoms: C_9  and  C_48
REMARK    2  A    between atoms: C_13  and  C_23
REMARK    3  A    between atoms: C_14  and  O_26
REMARK    4  A    between atoms: C_15  and  O_28
REMARK    5  A    between atoms: C_16  and  O_39
REMARK    6  A    between atoms: C_17  and  C_30
REMARK    7  A    between atoms: C_31  and  C_32
REMARK    8  A    between atoms: C_33  and  C_34
REMARK    9  A    between atoms: C_35  and  C_36
REMARK   10  A    between atoms: O_39  and  C_41
REMARK   11  A    between atoms: C_41  and  C_42
REMARK   12  A    between atoms: C_48  and  O_49
REMARK                            x       y       z     vdW  Elec       q    Type
REMARK                         _______ _______ _______ _____ _____    ______ ____
ROOT
ATOM      1  O   UNL     1      -9.651  -0.693  23.064  0.00  0.00    +0.000 OA
ATOM      2  O   UNL     1     -12.654  -2.488  22.918  0.00  0.00    +0.000 OA
ATOM      3  O   UNL     1     -12.506  -1.056  24.805  0.00  0.00    +0.000 OA
ATOM      4  O   UNL     1     -13.808  -2.938  24.942  0.00  0.00    +0.000 OA
ATOM      5  O   UNL     1      -7.942  -4.620  20.101  0.00  0.00    +0.000 OA
ATOM      6  C   UNL     1     -10.694  -2.355  24.350  0.00  0.00    +0.000 C 
ATOM      7  C   UNL     1     -11.408  -3.169  23.261  0.00  0.00    +0.000 C 
ATOM      8  C   UNL     1      -9.552  -1.505  24.166  0.00  0.00    +0.000 C 
ATOM      9  C   UNL     1      -8.438  -1.443  23.218  0.00  0.00    +0.000 C 
ATOM     10  C   UNL     1     -11.711  -2.054  25.365  0.00  0.00    +0.000 C 
ATOM     11  C   UNL     1     -10.598  -3.264  22.004  0.00  0.00    +0.000 C 
ATOM     12  C   UNL     1     -11.755  -4.574  23.838  0.00  0.00    +0.000 C 
ATOM     13  C   UNL     1     -12.646  -3.218  25.774  0.00  0.00    +0.000 C 
ATOM     14  C   UNL     1      -9.147  -3.690  22.036  0.00  0.00    +0.000 C 
ATOM     15  C   UNL     1      -8.152  -2.607  22.337  0.00  0.00    +0.000 C 
ATOM     16  C   UNL     1     -12.150  -4.549  25.237  0.00  0.00    +0.000 C 
ATOM     17  C   UNL     1     -13.361  -1.921  24.049  0.00  0.00    +0.000 C 
ATOM     18  C   UNL     1     -11.089  -3.439  20.685  0.00  0.00    +0.000 C 
ATOM     19  C   UNL     1     -11.934  -5.862  23.033  0.00  0.00    +0.000 C 
ATOM     20  C   UNL     1      -8.990  -4.168  20.555  0.00  0.00    +0.000 C 
ATOM     21  C   UNL     1     -10.283  -3.962  19.824  0.00  0.00    +0.000 C 
ATOM     22  C   UNL     1     -10.450  -3.834  18.345  0.00  0.00    +0.000 C 
ENDROOT
BRANCH  13  23
ATOM     23  C   UNL     1     -12.953  -3.140  27.288  0.00  0.00    +0.000 C 
ATOM     24  C   UNL     1     -14.174  -3.777  27.949  0.00  0.00    +0.000 C 
ATOM     25  C   UNL     1     -12.344  -2.278  28.128  0.00  0.00    +0.000 C 
ENDBRANCH  13  23
BRANCH  14  26
ATOM     26  O   UNL     1      -8.942  -4.737  22.961  0.00  0.00    +0.000 OA
ATOM     27  H   UNL     1      -9.443  -5.512  22.637  0.00  0.00    +0.000 HD
ENDBRANCH  14  26
BRANCH  15  28
ATOM     28  O   UNL     1      -6.840  -2.819  21.906  0.00  0.00    +0.000 OA
ATOM     29  H   UNL     1      -6.462  -2.097  21.359  0.00  0.00    +0.000 HD
ENDBRANCH  15  28
BRANCH  17  30
ATOM     30  C   UNL     1     -14.511  -1.170  23.556  0.00  0.00    +0.000 C 
ATOM     31  C   UNL     1     -15.456  -0.553  23.149  0.00  0.00    +0.000 C 
BRANCH  31  32
ATOM     32  C   UNL     1     -16.664   0.232  22.629  0.00  0.00    +0.000 C 
ATOM     33  C   UNL     1     -17.611   0.847  22.221  0.00  0.00    +0.000 C 
BRANCH  33  34
ATOM     34  C   UNL     1     -18.820   1.630  21.699  0.00  0.00    +0.000 C 
ATOM     35  C   UNL     1     -20.027   2.412  21.177  0.00  0.00    +0.000 C 
BRANCH  35  36
ATOM     36  C   UNL     1     -21.235   3.195  20.652  0.00  0.00    +0.000 C 
ATOM     37  C   UNL     1     -22.443   3.977  20.128  0.00  0.00    +0.000 C 
ATOM     38  C   UNL     1     -23.652   4.758  19.603  0.00  0.00    +0.000 C 
ENDBRANCH  35  36
ENDBRANCH  33  34
ENDBRANCH  31  32
ENDBRANCH  17  30
BRANCH  16  39
ATOM     39  O   UNL     1     -12.087  -5.750  25.964  0.00  0.00    +0.000 OA
BRANCH  39  41
ATOM     40  O   UNL     1     -10.337  -7.200  25.623  0.00  0.00    +0.000 OA
ATOM     41  C   UNL     1     -10.821  -6.220  26.164  0.00  0.00    +0.000 C 
BRANCH  41  42
ATOM     42  C   UNL     1     -10.123  -5.398  27.169  0.00  0.00    +0.000 A 
ATOM     43  C   UNL     1     -10.466  -5.450  28.520  0.00  0.00    +0.000 A 
ATOM     44  C   UNL     1      -9.097  -4.558  26.738  0.00  0.00    +0.000 A 
ATOM     45  C   UNL     1      -9.782  -4.659  29.440  0.00  0.00    +0.000 A 
ATOM     46  C   UNL     1      -8.415  -3.769  27.660  0.00  0.00    +0.000 A 
ATOM     47  C   UNL     1      -8.757  -3.819  29.010  0.00  0.00    +0.000 A 
ENDBRANCH  41  42
ENDBRANCH  39  41
ENDBRANCH  16  39
BRANCH   9  48
ATOM     48  C   UNL     1      -7.337  -0.537  23.516  0.00  0.00    +0.000 C 
BRANCH  48  49
ATOM     49  O   UNL     1      -6.333   0.294  23.784  0.00  0.00    +0.000 OA
ATOM     50  H   UNL     1      -5.485  -0.101  23.519  0.00  0.00    +0.000 HD
ENDBRANCH  48  49
ENDBRANCH   9  48
TORSDOF 12
ENDMDL
MODEL 4
REMARK VINA RESULT:      -5.8     19.330     24.482
REMARK  Name = 5358691_Yuanhuacine.pdbqt.pdb
REMARK  12 active torsions:
REMARK  status: ('A' for Active; 'I' for Inactive)
REMARK    1  A    between atoms: C_9  and  C_48
REMARK    2  A    between atoms: C_13  and  C_23
REMARK    3  A    between atoms: C_14  and  O_26
REMARK    4  A    between atoms: C_15  and  O_28
REMARK    5  A    between atoms: C_16  and  O_39
REMARK    6  A    between atoms: C_17  and  C_30
REMARK    7  A    between atoms: C_31  and  C_32
REMARK    8  A    between atoms: C_33  and  C_34
REMARK    9  A    between atoms: C_35  and  C_36
REMARK   10  A    between atoms: O_39  and  C_41
REMARK   11  A    between atoms: C_41  and  C_42
REMARK   12  A    between atoms: C_48  and  O_49
REMARK                            x       y       z     vdW  Elec       q    Type
REMARK                         _______ _______ _______ _____ _____    ______ ____
ROOT
ATOM      1  O   UNL     1     -11.438 -19.107   5.073  0.00  0.00    +0.000 OA
ATOM      2  O   UNL     1      -9.067 -18.304   7.521  0.00  0.00    +0.000 OA
ATOM      3  O   UNL     1      -9.785 -20.564   7.615  0.00  0.00    +0.000 OA
ATOM      4  O   UNL     1      -9.047 -19.556   9.537  0.00  0.00    +0.000 OA
ATOM      5  O   UNL     1     -12.310 -13.974   5.193  0.00  0.00    +0.000 OA
ATOM      6  C   UNL     1     -11.401 -18.974   7.415  0.00  0.00    +0.000 C 
ATOM      7  C   UNL     1     -10.434 -17.801   7.630  0.00  0.00    +0.000 C 
ATOM      8  C   UNL     1     -12.165 -19.240   6.229  0.00  0.00    +0.000 C 
ATOM      9  C   UNL     1     -12.703 -18.435   5.131  0.00  0.00    +0.000 C 
ATOM     10  C   UNL     1     -10.912 -20.066   8.266  0.00  0.00    +0.000 C 
ATOM     11  C   UNL     1     -10.596 -16.736   6.589  0.00  0.00    +0.000 C 
ATOM     12  C   UNL     1     -10.642 -17.243   9.071  0.00  0.00    +0.000 C 
ATOM     13  C   UNL     1     -10.487 -19.684   9.705  0.00  0.00    +0.000 C 
ATOM     14  C   UNL     1     -11.957 -16.169   6.252  0.00  0.00    +0.000 C 
ATOM     15  C   UNL     1     -12.767 -16.954   5.263  0.00  0.00    +0.000 C 
ATOM     16  C   UNL     1     -10.920 -18.272  10.059  0.00  0.00    +0.000 C 
ATOM     17  C   UNL     1      -8.853 -19.604   8.125  0.00  0.00    +0.000 C 
ATOM     18  C   UNL     1      -9.605 -15.825   6.141  0.00  0.00    +0.000 C 
ATOM     19  C   UNL     1     -10.355 -15.816   9.536  0.00  0.00    +0.000 C 
ATOM     20  C   UNL     1     -11.515 -14.806   5.624  0.00  0.00    +0.000 C 
ATOM     21  C   UNL     1     -10.018 -14.717   5.624  0.00  0.00    +0.000 C 
ATOM     22  C   UNL     1      -9.185 -13.854   4.733  0.00  0.00    +0.000 C 
ENDROOT
BRANCH  13  23
ATOM     23  C   UNL     1     -10.884 -20.810  10.687  0.00  0.00    +0.000 C 
ATOM     24  C   UNL     1      -9.894 -21.792  11.312  0.00  0.00    +0.000 C 
ATOM     25  C   UNL     1     -12.155 -21.224  10.872  0.00  0.00    +0.000 C 
ENDBRANCH  13  23
BRANCH  14  26
ATOM     26  O   UNL     1     -12.739 -15.994   7.414  0.00  0.00    +0.000 OA
ATOM     27  H   UNL     1     -13.014 -15.056   7.440  0.00  0.00    +0.000 HD
ENDBRANCH  14  26
BRANCH  15  28
ATOM     28  O   UNL     1     -13.760 -16.259   4.568  0.00  0.00    +0.000 OA
ATOM     29  H   UNL     1     -14.514 -15.953   5.117  0.00  0.00    +0.000 HD
ENDBRANCH  15  28
BRANCH  17  30
ATOM     30  C   UNL     1      -7.490 -20.038   7.836  0.00  0.00    +0.000 C 
ATOM     31  C   UNL     1      -6.369 -20.393   7.599  0.00  0.00    +0.000 C 
BRANCH  31  32
ATOM     32  C   UNL     1      -4.938 -20.845   7.296  0.00  0.00    +0.000 C 
ATOM     33  C   UNL     1      -3.816 -21.200   7.057  0.00  0.00    +0.000 C 
BRANCH  33  34
ATOM     34  C   UNL     1      -2.385 -21.652   6.750  0.00  0.00    +0.000 C 
ATOM     35  C   UNL     1      -0.955 -22.105   6.445  0.00  0.00    +0.000 C 
BRANCH  35  36
ATOM     36  C   UNL     1       0.477 -22.559   6.140  0.00  0.00    +0.000 C 
ATOM     37  C   UNL     1       1.907 -23.013   5.835  0.00  0.00    +0.000 C 
ATOM     38  C   UNL     1       3.337 -23.469   5.529  0.00  0.00    +0.000 C 
ENDBRANCH  35  36
ENDBRANCH  33  34
ENDBRANCH  31  32
ENDBRANCH  17  30
BRANCH  16  39
ATOM     39  O   UNL     1     -11.517 -17.882  11.270  0.00  0.00    +0.000 OA
BRANCH  39  41
ATOM     40  O   UNL     1     -13.520 -17.692  10.159  0.00  0.00    +0.000 OA
ATOM     41  C   UNL     1     -12.857 -17.632  11.181  0.00  0.00    +0.000 C 
BRANCH  41  42
ATOM     42  C   UNL     1     -13.391 -17.231  12.495  0.00  0.00    +0.000 A 
ATOM     43  C   UNL     1     -13.035 -17.904  13.663  0.00  0.00    +0.000 A 
ATOM     44  C   UNL     1     -14.271 -16.151  12.548  0.00  0.00    +0.000 A 
ATOM     45  C   UNL     1     -13.560 -17.494  14.887  0.00  0.00    +0.000 A 
ATOM     46  C   UNL     1     -14.794 -15.743  13.772  0.00  0.00    +0.000 A 
ATOM     47  C   UNL     1     -14.439 -16.414  14.940  0.00  0.00    +0.000 A 
ENDBRANCH  41  42
ENDBRANCH  39  41
ENDBRANCH  16  39
BRANCH   9  48
ATOM     48  C   UNL     1     -13.638 -19.071   4.212  0.00  0.00    +0.000 C 
BRANCH  48  49
ATOM     49  O   UNL     1     -14.496 -19.648   3.375  0.00  0.00    +0.000 OA
ATOM     50  H   UNL     1     -15.412 -19.447   3.635  0.00  0.00    +0.000 HD
ENDBRANCH  48  49
ENDBRANCH   9  48
TORSDOF 12
ENDMDL
MODEL 5
REMARK VINA RESULT:      -5.7     17.147     21.021
REMARK  Name = 5358691_Yuanhuacine.pdbqt.pdb
REMARK  12 active torsions:
REMARK  status: ('A' for Active; 'I' for Inactive)
REMARK    1  A    between atoms: C_9  and  C_48
REMARK    2  A    between atoms: C_13  and  C_23
REMARK    3  A    between atoms: C_14  and  O_26
REMARK    4  A    between atoms: C_15  and  O_28
REMARK    5  A    between atoms: C_16  and  O_39
REMARK    6  A    between atoms: C_17  and  C_30
REMARK    7  A    between atoms: C_31  and  C_32
REMARK    8  A    between atoms: C_33  and  C_34
REMARK    9  A    between atoms: C_35  and  C_36
REMARK   10  A    between atoms: O_39  and  C_41
REMARK   11  A    between atoms: C_41  and  C_42
REMARK   12  A    between atoms: C_48  and  O_49
REMARK                            x       y       z     vdW  Elec       q    Type
REMARK                         _______ _______ _______ _____ _____    ______ ____
ROOT
ATOM      1  O   UNL     1     -25.695  -3.020  11.246  0.00  0.00    +0.000 OA
ATOM      2  O   UNL     1     -22.336  -2.527  10.390  0.00  0.00    +0.000 OA
ATOM      3  O   UNL     1     -23.799  -0.942   9.401  0.00  0.00    +0.000 OA
ATOM      4  O   UNL     1     -21.833  -1.450   8.337  0.00  0.00    +0.000 OA
ATOM      5  O   UNL     1     -24.061  -7.889  12.112  0.00  0.00    +0.000 OA
ATOM      6  C   UNL     1     -24.414  -3.130   9.284  0.00  0.00    +0.000 C 
ATOM      7  C   UNL     1     -23.078  -3.654   9.831  0.00  0.00    +0.000 C 
ATOM      8  C   UNL     1     -25.702  -3.281   9.899  0.00  0.00    +0.000 C 
ATOM      9  C   UNL     1     -26.315  -4.241  10.820  0.00  0.00    +0.000 C 
ATOM     10  C   UNL     1     -24.089  -1.947   8.479  0.00  0.00    +0.000 C 
ATOM     11  C   UNL     1     -23.270  -4.648  10.935  0.00  0.00    +0.000 C 
ATOM     12  C   UNL     1     -22.256  -4.249   8.648  0.00  0.00    +0.000 C 
ATOM     13  C   UNL     1     -22.872  -2.069   7.529  0.00  0.00    +0.000 C 
ATOM     14  C   UNL     1     -24.208  -5.824  10.778  0.00  0.00    +0.000 C 
ATOM     15  C   UNL     1     -25.655  -5.551  11.067  0.00  0.00    +0.000 C 
ATOM     16  C   UNL     1     -22.403  -3.508   7.405  0.00  0.00    +0.000 C 
ATOM     17  C   UNL     1     -22.431  -1.302   9.623  0.00  0.00    +0.000 C 
ATOM     18  C   UNL     1     -22.368  -4.929  11.994  0.00  0.00    +0.000 C 
ATOM     19  C   UNL     1     -21.187  -5.338   8.749  0.00  0.00    +0.000 C 
ATOM     20  C   UNL     1     -23.611  -6.772  11.871  0.00  0.00    +0.000 C 
ATOM     21  C   UNL     1     -22.460  -6.091  12.549  0.00  0.00    +0.000 C 
ATOM     22  C   UNL     1     -21.923  -6.407  13.907  0.00  0.00    +0.000 C 
ENDROOT
BRANCH  13  23
ATOM     23  C   UNL     1     -23.153  -1.305   6.213  0.00  0.00    +0.000 C 
ATOM     24  C   UNL     1     -24.425  -1.468   5.382  0.00  0.00    +0.000 C 
ATOM     25  C   UNL     1     -22.204  -0.643   5.520  0.00  0.00    +0.000 C 
ENDBRANCH  13  23
BRANCH  14  26
ATOM     26  O   UNL     1     -24.120  -6.378   9.483  0.00  0.00    +0.000 OA
ATOM     27  H   UNL     1     -23.348  -6.978   9.476  0.00  0.00    +0.000 HD
ENDBRANCH  14  26
BRANCH  15  28
ATOM     28  O   UNL     1     -26.447  -6.649  11.413  0.00  0.00    +0.000 OA
ATOM     29  H   UNL     1     -26.097  -7.519  11.125  0.00  0.00    +0.000 HD
ENDBRANCH  15  28
BRANCH  17  30
ATOM     30  C   UNL     1     -21.753  -0.236  10.353  0.00  0.00    +0.000 C 
ATOM     31  C   UNL     1     -21.195   0.640  10.955  0.00  0.00    +0.000 C 
BRANCH  31  32
ATOM     32  C   UNL     1     -20.482   1.756  11.723  0.00  0.00    +0.000 C 
ATOM     33  C   UNL     1     -19.922   2.632  12.324  0.00  0.00    +0.000 C 
BRANCH  33  34
ATOM     34  C   UNL     1     -19.206   3.748  13.089  0.00  0.00    +0.000 C 
ATOM     35  C   UNL     1     -18.489   4.864  13.854  0.00  0.00    +0.000 C 
BRANCH  35  36
ATOM     36  C   UNL     1     -17.772   5.982  14.618  0.00  0.00    +0.000 C 
ATOM     37  C   UNL     1     -17.055   7.099  15.382  0.00  0.00    +0.000 C 
ATOM     38  C   UNL     1     -16.338   8.216  16.148  0.00  0.00    +0.000 C 
ENDBRANCH  35  36
ENDBRANCH  33  34
ENDBRANCH  31  32
ENDBRANCH  17  30
BRANCH  16  39
ATOM     39  O   UNL     1     -22.059  -4.154   6.206  0.00  0.00    +0.000 OA
BRANCH  39  41
ATOM     40  O   UNL     1     -23.971  -5.423   6.333  0.00  0.00    +0.000 OA
ATOM     41  C   UNL     1     -23.042  -4.955   5.697  0.00  0.00    +0.000 C 
BRANCH  41  42
ATOM     42  C   UNL     1     -22.802  -5.215   4.267  0.00  0.00    +0.000 A 
ATOM     43  C   UNL     1     -23.270  -4.350   3.278  0.00  0.00    +0.000 A 
ATOM     44  C   UNL     1     -22.085  -6.358   3.916  0.00  0.00    +0.000 A 
ATOM     45  C   UNL     1     -23.021  -4.630   1.937  0.00  0.00    +0.000 A 
ATOM     46  C   UNL     1     -21.836  -6.635   2.574  0.00  0.00    +0.000 A 
ATOM     47  C   UNL     1     -22.304  -5.772   1.586  0.00  0.00    +0.000 A 
ENDBRANCH  41  42
ENDBRANCH  39  41
ENDBRANCH  16  39
BRANCH   9  48
ATOM     48  C   UNL     1     -27.754  -4.160  11.033  0.00  0.00    +0.000 C 
BRANCH  48  49
ATOM     49  O   UNL     1     -29.068  -4.083  11.223  0.00  0.00    +0.000 OA
ATOM     50  H   UNL     1     -29.519  -3.861  10.390  0.00  0.00    +0.000 HD
ENDBRANCH  48  49
ENDBRANCH   9  48
TORSDOF 12
ENDMDL
MODEL 6
REMARK VINA RESULT:      -5.7     23.470     28.822
REMARK  Name = 5358691_Yuanhuacine.pdbqt.pdb
REMARK  12 active torsions:
REMARK  status: ('A' for Active; 'I' for Inactive)
REMARK    1  A    between atoms: C_9  and  C_48
REMARK    2  A    between atoms: C_13  and  C_23
REMARK    3  A    between atoms: C_14  and  O_26
REMARK    4  A    between atoms: C_15  and  O_28
REMARK    5  A    between atoms: C_16  and  O_39
REMARK    6  A    between atoms: C_17  and  C_30
REMARK    7  A    between atoms: C_31  and  C_32
REMARK    8  A    between atoms: C_33  and  C_34
REMARK    9  A    between atoms: C_35  and  C_36
REMARK   10  A    between atoms: O_39  and  C_41
REMARK   11  A    between atoms: C_41  and  C_42
REMARK   12  A    between atoms: C_48  and  O_49
REMARK                            x       y       z     vdW  Elec       q    Type
REMARK                         _______ _______ _______ _____ _____    ______ ____
ROOT
ATOM      1  O   UNL     1      -7.912  -9.478  -1.626  0.00  0.00    +0.000 OA
ATOM      2  O   UNL     1      -5.235  -7.476  -2.669  0.00  0.00    +0.000 OA
ATOM      3  O   UNL     1      -4.749  -8.761  -0.733  0.00  0.00    +0.000 OA
ATOM      4  O   UNL     1      -3.642  -6.779  -1.054  0.00  0.00    +0.000 OA
ATOM      5  O   UNL     1     -10.699  -5.942  -4.244  0.00  0.00    +0.000 OA
ATOM      6  C   UNL     1      -6.732  -7.645  -0.761  0.00  0.00    +0.000 C 
ATOM      7  C   UNL     1      -6.408  -6.868  -2.045  0.00  0.00    +0.000 C 
ATOM      8  C   UNL     1      -7.797  -8.591  -0.586  0.00  0.00    +0.000 C 
ATOM      9  C   UNL     1      -9.108  -8.814  -1.197  0.00  0.00    +0.000 C 
ATOM     10  C   UNL     1      -5.462  -7.785  -0.038  0.00  0.00    +0.000 C 
ATOM     11  C   UNL     1      -7.523  -6.935  -3.044  0.00  0.00    +0.000 C 
ATOM     12  C   UNL     1      -6.057  -5.398  -1.662  0.00  0.00    +0.000 C 
ATOM     13  C   UNL     1      -4.567  -6.524   0.040  0.00  0.00    +0.000 C 
ATOM     14  C   UNL     1      -8.948  -6.620  -2.650  0.00  0.00    +0.000 C 
ATOM     15  C   UNL     1      -9.723  -7.748  -2.035  0.00  0.00    +0.000 C 
ATOM     16  C   UNL     1      -5.311  -5.282  -0.420  0.00  0.00    +0.000 C 
ATOM     17  C   UNL     1      -4.208  -7.896  -1.737  0.00  0.00    +0.000 C 
ATOM     18  C   UNL     1      -7.411  -6.828  -4.454  0.00  0.00    +0.000 C 
ATOM     19  C   UNL     1      -6.217  -4.169  -2.557  0.00  0.00    +0.000 C 
ATOM     20  C   UNL     1      -9.530  -6.274  -4.061  0.00  0.00    +0.000 C 
ATOM     21  C   UNL     1      -8.459  -6.438  -5.097  0.00  0.00    +0.000 C 
ATOM     22  C   UNL     1      -8.672  -6.670  -6.557  0.00  0.00    +0.000 C 
ENDROOT
BRANCH  13  23
ATOM     23  C   UNL     1      -3.871  -6.458   1.419  0.00  0.00    +0.000 C 
ATOM     24  C   UNL     1      -2.371  -6.653   1.632  0.00  0.00    +0.000 C 
ATOM     25  C   UNL     1      -4.535  -6.506   2.592  0.00  0.00    +0.000 C 
ENDBRANCH  13  23
BRANCH  14  26
ATOM     26  O   UNL     1      -9.003  -5.521  -1.765  0.00  0.00    +0.000 OA
ATOM     27  H   UNL     1      -8.208  -5.567  -1.197  0.00  0.00    +0.000 HD
ENDBRANCH  14  26
BRANCH  15  28
ATOM     28  O   UNL     1     -11.116  -7.673  -2.112  0.00  0.00    +0.000 OA
ATOM     29  H   UNL     1     -11.585  -7.782  -1.257  0.00  0.00    +0.000 HD
ENDBRANCH  15  28
BRANCH  17  30
ATOM     30  C   UNL     1      -3.160  -8.594  -2.476  0.00  0.00    +0.000 C 
ATOM     31  C   UNL     1      -2.298  -9.166  -3.084  0.00  0.00    +0.000 C 
BRANCH  31  32
ATOM     32  C   UNL     1      -1.197  -9.894  -3.860  0.00  0.00    +0.000 C 
ATOM     33  C   UNL     1      -0.335 -10.467  -4.468  0.00  0.00    +0.000 C 
BRANCH  33  34
ATOM     34  C   UNL     1       0.766 -11.199  -5.242  0.00  0.00    +0.000 C 
ATOM     35  C   UNL     1       1.866 -11.931  -6.015  0.00  0.00    +0.000 C 
BRANCH  35  36
ATOM     36  C   UNL     1       2.966 -12.665  -6.790  0.00  0.00    +0.000 C 
ATOM     37  C   UNL     1       4.065 -13.398  -7.563  0.00  0.00    +0.000 C 
ATOM     38  C   UNL     1       5.165 -14.133  -8.336  0.00  0.00    +0.000 C 
ENDBRANCH  35  36
ENDBRANCH  33  34
ENDBRANCH  31  32
ENDBRANCH  17  30
BRANCH  16  39
ATOM     39  O   UNL     1      -5.295  -4.036   0.228  0.00  0.00    +0.000 OA
BRANCH  39  41
ATOM     40  O   UNL     1      -3.324  -3.331  -0.719  0.00  0.00    +0.000 OA
ATOM     41  C   UNL     1      -4.075  -3.422   0.237  0.00  0.00    +0.000 C 
BRANCH  41  42
ATOM     42  C   UNL     1      -3.766  -2.916   1.586  0.00  0.00    +0.000 A 
ATOM     43  C   UNL     1      -4.741  -2.316   2.382  0.00  0.00    +0.000 A 
ATOM     44  C   UNL     1      -2.462  -3.053   2.060  0.00  0.00    +0.000 A 
ATOM     45  C   UNL     1      -4.410  -1.852   3.653  0.00  0.00    +0.000 A 
ATOM     46  C   UNL     1      -2.134  -2.589   3.331  0.00  0.00    +0.000 A 
ATOM     47  C   UNL     1      -3.107  -1.989   4.126  0.00  0.00    +0.000 A 
ENDBRANCH  41  42
ENDBRANCH  39  41
ENDBRANCH  16  39
BRANCH   9  48
ATOM     48  C   UNL     1     -10.003  -9.775  -0.566  0.00  0.00    +0.000 C 
BRANCH  48  49
ATOM     49  O   UNL     1     -10.823 -10.652   0.006  0.00  0.00    +0.000 OA
ATOM     50  H   UNL     1     -11.522 -10.920  -0.617  0.00  0.00    +0.000 HD
ENDBRANCH  48  49
ENDBRANCH   9  48
TORSDOF 12
ENDMDL
MODEL 7
REMARK VINA RESULT:      -5.6     18.338     24.400
REMARK  Name = 5358691_Yuanhuacine.pdbqt.pdb
REMARK  12 active torsions:
REMARK  status: ('A' for Active; 'I' for Inactive)
REMARK    1  A    between atoms: C_9  and  C_48
REMARK    2  A    between atoms: C_13  and  C_23
REMARK    3  A    between atoms: C_14  and  O_26
REMARK    4  A    between atoms: C_15  and  O_28
REMARK    5  A    between atoms: C_16  and  O_39
REMARK    6  A    between atoms: C_17  and  C_30
REMARK    7  A    between atoms: C_31  and  C_32
REMARK    8  A    between atoms: C_33  and  C_34
REMARK    9  A    between atoms: C_35  and  C_36
REMARK   10  A    between atoms: O_39  and  C_41
REMARK   11  A    between atoms: C_41  and  C_42
REMARK   12  A    between atoms: C_48  and  O_49
REMARK                            x       y       z     vdW  Elec       q    Type
REMARK                         _______ _______ _______ _____ _____    ______ ____
ROOT
ATOM      1  O   UNL     1     -21.412  -3.946   7.483  0.00  0.00    +0.000 OA
ATOM      2  O   UNL     1     -24.586  -2.515   7.856  0.00  0.00    +0.000 OA
ATOM      3  O   UNL     1     -22.972  -1.008   6.985  0.00  0.00    +0.000 OA
ATOM      4  O   UNL     1     -24.744  -0.169   8.175  0.00  0.00    +0.000 OA
ATOM      5  O   UNL     1     -23.193  -7.205  11.134  0.00  0.00    +0.000 OA
ATOM      6  C   UNL     1     -22.359  -2.246   8.794  0.00  0.00    +0.000 C 
ATOM      7  C   UNL     1     -23.769  -2.806   9.031  0.00  0.00    +0.000 C 
ATOM      8  C   UNL     1     -21.188  -3.005   8.457  0.00  0.00    +0.000 C 
ATOM      9  C   UNL     1     -20.738  -4.382   8.672  0.00  0.00    +0.000 C 
ATOM     10  C   UNL     1     -22.543  -0.874   8.305  0.00  0.00    +0.000 C 
ATOM     11  C   UNL     1     -23.765  -4.294   9.207  0.00  0.00    +0.000 C 
ATOM     12  C   UNL     1     -24.393  -2.077  10.260  0.00  0.00    +0.000 C 
ATOM     13  C   UNL     1     -23.591  -0.010   9.048  0.00  0.00    +0.000 C 
ATOM     14  C   UNL     1     -22.820  -4.966  10.179  0.00  0.00    +0.000 C 
ATOM     15  C   UNL     1     -21.438  -5.241   9.665  0.00  0.00    +0.000 C 
ATOM     16  C   UNL     1     -24.043  -0.668  10.340  0.00  0.00    +0.000 C 
ATOM     17  C   UNL     1     -24.360  -1.207   7.275  0.00  0.00    +0.000 C 
ATOM     18  C   UNL     1     -24.827  -5.189   8.919  0.00  0.00    +0.000 C 
ATOM     19  C   UNL     1     -25.470  -2.635  11.190  0.00  0.00    +0.000 C 
ATOM     20  C   UNL     1     -23.592  -6.311  10.392  0.00  0.00    +0.000 C 
ATOM     21  C   UNL     1     -24.833  -6.315   9.551  0.00  0.00    +0.000 C 
ATOM     22  C   UNL     1     -25.584  -7.521   9.091  0.00  0.00    +0.000 C 
ENDROOT
BRANCH  13  23
ATOM     23  C   UNL     1     -23.097   1.453   9.139  0.00  0.00    +0.000 C 
ATOM     24  C   UNL     1     -24.021   2.663   9.272  0.00  0.00    +0.000 C 
ATOM     25  C   UNL     1     -21.842   1.836   8.828  0.00  0.00    +0.000 C 
ENDBRANCH  13  23
BRANCH  14  26
ATOM     26  O   UNL     1     -22.701  -4.222  11.372  0.00  0.00    +0.000 OA
ATOM     27  H   UNL     1     -23.605  -3.984  11.657  0.00  0.00    +0.000 HD
ENDBRANCH  14  26
BRANCH  15  28
ATOM     28  O   UNL     1     -20.719  -6.256  10.301  0.00  0.00    +0.000 OA
ATOM     29  H   UNL     1     -20.803  -6.273  11.279  0.00  0.00    +0.000 HD
ENDBRANCH  15  28
BRANCH  17  30
ATOM     30  C   UNL     1     -25.141  -1.097   6.047  0.00  0.00    +0.000 C 
ATOM     31  C   UNL     1     -25.783  -1.008   5.037  0.00  0.00    +0.000 C 
BRANCH  31  32
ATOM     32  C   UNL     1     -26.604  -0.896   3.749  0.00  0.00    +0.000 C 
ATOM     33  C   UNL     1     -27.248  -0.808   2.740  0.00  0.00    +0.000 C 
BRANCH  33  34
ATOM     34  C   UNL     1     -28.070  -0.699   1.452  0.00  0.00    +0.000 C 
ATOM     35  C   UNL     1     -28.891  -0.589   0.165  0.00  0.00    +0.000 C 
BRANCH  35  36
ATOM     36  C   UNL     1     -29.713  -0.481  -1.124  0.00  0.00    +0.000 C 
ATOM     37  C   UNL     1     -30.533  -0.373  -2.413  0.00  0.00    +0.000 C 
ATOM     38  C   UNL     1     -31.353  -0.265  -3.703  0.00  0.00    +0.000 C 
ENDBRANCH  35  36
ENDBRANCH  33  34
ENDBRANCH  31  32
ENDBRANCH  17  30
BRANCH  16  39
ATOM     39  O   UNL     1     -24.192  -0.019  11.578  0.00  0.00    +0.000 OA
BRANCH  39  41
ATOM     40  O   UNL     1     -23.196  -1.203  13.278  0.00  0.00    +0.000 OA
ATOM     41  C   UNL     1     -23.197  -0.285  12.474  0.00  0.00    +0.000 C 
BRANCH  41  42
ATOM     42  C   UNL     1     -22.130   0.726  12.369  0.00  0.00    +0.000 A 
ATOM     43  C   UNL     1     -22.353   2.061  12.708  0.00  0.00    +0.000 A 
ATOM     44  C   UNL     1     -20.875   0.318  11.921  0.00  0.00    +0.000 A 
ATOM     45  C   UNL     1     -21.319   2.987  12.597  0.00  0.00    +0.000 A 
ATOM     46  C   UNL     1     -19.842   1.245  11.812  0.00  0.00    +0.000 A 
ATOM     47  C   UNL     1     -20.065   2.578  12.149  0.00  0.00    +0.000 A 
ENDBRANCH  41  42
ENDBRANCH  39  41
ENDBRANCH  16  39
BRANCH   9  48
ATOM     48  C   UNL     1     -19.352  -4.704   8.359  0.00  0.00    +0.000 C 
BRANCH  48  49
ATOM     49  O   UNL     1     -18.085  -4.993   8.076  0.00  0.00    +0.000 OA
ATOM     50  H   UNL     1     -18.032  -5.539   7.272  0.00  0.00    +0.000 HD
ENDBRANCH  48  49
ENDBRANCH   9  48
TORSDOF 12
ENDMDL
MODEL 8
REMARK VINA RESULT:      -5.6     19.066     22.647
REMARK  Name = 5358691_Yuanhuacine.pdbqt.pdb
REMARK  12 active torsions:
REMARK  status: ('A' for Active; 'I' for Inactive)
REMARK    1  A    between atoms: C_9  and  C_48
REMARK    2  A    between atoms: C_13  and  C_23
REMARK    3  A    between atoms: C_14  and  O_26
REMARK    4  A    between atoms: C_15  and  O_28
REMARK    5  A    between atoms: C_16  and  O_39
REMARK    6  A    between atoms: C_17  and  C_30
REMARK    7  A    between atoms: C_31  and  C_32
REMARK    8  A    between atoms: C_33  and  C_34
REMARK    9  A    between atoms: C_35  and  C_36
REMARK   10  A    between atoms: O_39  and  C_41
REMARK   11  A    between atoms: C_41  and  C_42
REMARK   12  A    between atoms: C_48  and  O_49
REMARK                            x       y       z     vdW  Elec       q    Type
REMARK                         _______ _______ _______ _____ _____    ______ ____
ROOT
ATOM      1  O   UNL     1     -20.412  -3.747   8.625  0.00  0.00    +0.000 OA
ATOM      2  O   UNL     1     -23.858  -3.411   9.146  0.00  0.00    +0.000 OA
ATOM      3  O   UNL     1     -22.596  -3.378  11.156  0.00  0.00    +0.000 OA
ATOM      4  O   UNL     1     -24.766  -4.114  11.223  0.00  0.00    +0.000 OA
ATOM      5  O   UNL     1     -21.982  -5.987   4.193  0.00  0.00    +0.000 OA
ATOM      6  C   UNL     1     -22.100  -5.012   9.652  0.00  0.00    +0.000 C 
ATOM      7  C   UNL     1     -23.298  -4.699   8.745  0.00  0.00    +0.000 C 
ATOM      8  C   UNL     1     -20.713  -4.905   9.296  0.00  0.00    +0.000 C 
ATOM      9  C   UNL     1     -19.945  -4.976   8.052  0.00  0.00    +0.000 C 
ATOM     10  C   UNL     1     -22.554  -4.765  11.026  0.00  0.00    +0.000 C 
ATOM     11  C   UNL     1     -22.901  -4.578   7.305  0.00  0.00    +0.000 C 
ATOM     12  C   UNL     1     -24.383  -5.798   8.958  0.00  0.00    +0.000 C 
ATOM     13  C   UNL     1     -23.955  -5.309  11.400  0.00  0.00    +0.000 C 
ATOM     14  C   UNL     1     -22.063  -5.640   6.630  0.00  0.00    +0.000 C 
ATOM     15  C   UNL     1     -20.580  -5.526   6.823  0.00  0.00    +0.000 C 
ATOM     16  C   UNL     1     -24.491  -6.251  10.336  0.00  0.00    +0.000 C 
ATOM     17  C   UNL     1     -23.892  -3.190  10.577  0.00  0.00    +0.000 C 
ATOM     18  C   UNL     1     -23.554  -3.815   6.303  0.00  0.00    +0.000 C 
ATOM     19  C   UNL     1     -25.440  -6.232   7.943  0.00  0.00    +0.000 C 
ATOM     20  C   UNL     1     -22.436  -5.347   5.138  0.00  0.00    +0.000 C 
ATOM     21  C   UNL     1     -23.382  -4.185   5.078  0.00  0.00    +0.000 C 
ATOM     22  C   UNL     1     -23.615  -3.297   3.901  0.00  0.00    +0.000 C 
ENDROOT
BRANCH  13  23
ATOM     23  C   UNL     1     -23.947  -5.825  12.857  0.00  0.00    +0.000 C 
ATOM     24  C   UNL     1     -22.850  -6.709  13.448  0.00  0.00    +0.000 C 
ATOM     25  C   UNL     1     -25.027  -5.791  13.665  0.00  0.00    +0.000 C 
ENDBRANCH  13  23
BRANCH  14  26
ATOM     26  O   UNL     1     -22.456  -6.934   7.035  0.00  0.00    +0.000 OA
ATOM     27  H   UNL     1     -22.108  -7.074   7.938  0.00  0.00    +0.000 HD
ENDBRANCH  14  26
BRANCH  15  28
ATOM     28  O   UNL     1     -19.770  -6.142   5.865  0.00  0.00    +0.000 OA
ATOM     29  H   UNL     1     -18.813  -6.159   6.081  0.00  0.00    +0.000 HD
ENDBRANCH  15  28
BRANCH  17  30
ATOM     30  C   UNL     1     -24.353  -1.828  10.832  0.00  0.00    +0.000 C 
ATOM     31  C   UNL     1     -24.730  -0.708  11.042  0.00  0.00    +0.000 C 
BRANCH  31  32
ATOM     32  C   UNL     1     -25.209   0.721  11.308  0.00  0.00    +0.000 C 
ATOM     33  C   UNL     1     -25.584   1.842  11.518  0.00  0.00    +0.000 C 
BRANCH  33  34
ATOM     34  C   UNL     1     -26.062   3.272  11.788  0.00  0.00    +0.000 C 
ATOM     35  C   UNL     1     -26.541   4.700  12.059  0.00  0.00    +0.000 C 
BRANCH  35  36
ATOM     36  C   UNL     1     -27.019   6.131  12.331  0.00  0.00    +0.000 C 
ATOM     37  C   UNL     1     -27.496   7.560  12.604  0.00  0.00    +0.000 C 
ATOM     38  C   UNL     1     -27.972   8.991  12.877  0.00  0.00    +0.000 C 
ENDBRANCH  35  36
ENDBRANCH  33  34
ENDBRANCH  31  32
ENDBRANCH  17  30
BRANCH  16  39
ATOM     39  O   UNL     1     -25.114  -7.486  10.579  0.00  0.00    +0.000 OA
BRANCH  39  41
ATOM     40  O   UNL     1     -23.220  -8.621   9.944  0.00  0.00    +0.000 OA
ATOM     41  C   UNL     1     -24.266  -8.556  10.567  0.00  0.00    +0.000 C 
BRANCH  41  42
ATOM     42  C   UNL     1     -24.814  -9.653  11.385  0.00  0.00    +0.000 A 
ATOM     43  C   UNL     1     -24.800 -10.974  10.937  0.00  0.00    +0.000 A 
ATOM     44  C   UNL     1     -25.352  -9.341  12.633  0.00  0.00    +0.000 A 
ATOM     45  C   UNL     1     -25.326 -11.983  11.740  0.00  0.00    +0.000 A 
ATOM     46  C   UNL     1     -25.876 -10.352  13.433  0.00  0.00    +0.000 A 
ATOM     47  C   UNL     1     -25.864 -11.672  12.987  0.00  0.00    +0.000 A 
ENDBRANCH  41  42
ENDBRANCH  39  41
ENDBRANCH  16  39
BRANCH   9  48
ATOM     48  C   UNL     1     -18.493  -5.041   8.147  0.00  0.00    +0.000 C 
BRANCH  48  49
ATOM     49  O   UNL     1     -17.168  -5.107   8.235  0.00  0.00    +0.000 OA
ATOM     50  H   UNL     1     -16.879  -6.030   8.337  0.00  0.00    +0.000 HD
ENDBRANCH  48  49
ENDBRANCH   9  48
TORSDOF 12
ENDMDL
MODEL 9
REMARK VINA RESULT:      -5.6      4.174      7.818
REMARK  Name = 5358691_Yuanhuacine.pdbqt.pdb
REMARK  12 active torsions:
REMARK  status: ('A' for Active; 'I' for Inactive)
REMARK    1  A    between atoms: C_9  and  C_48
REMARK    2  A    between atoms: C_13  and  C_23
REMARK    3  A    between atoms: C_14  and  O_26
REMARK    4  A    between atoms: C_15  and  O_28
REMARK    5  A    between atoms: C_16  and  O_39
REMARK    6  A    between atoms: C_17  and  C_30
REMARK    7  A    between atoms: C_31  and  C_32
REMARK    8  A    between atoms: C_33  and  C_34
REMARK    9  A    between atoms: C_35  and  C_36
REMARK   10  A    between atoms: O_39  and  C_41
REMARK   11  A    between atoms: C_41  and  C_42
REMARK   12  A    between atoms: C_48  and  O_49
REMARK                            x       y       z     vdW  Elec       q    Type
REMARK                         _______ _______ _______ _____ _____    ______ ____
ROOT
ATOM      1  O   UNL     1     -13.204  -7.223  26.454  0.00  0.00    +0.000 OA
ATOM      2  O   UNL     1     -11.706  -4.343  27.766  0.00  0.00    +0.000 OA
ATOM      3  O   UNL     1     -13.389  -3.877  26.159  0.00  0.00    +0.000 OA
ATOM      4  O   UNL     1     -11.683  -2.372  26.446  0.00  0.00    +0.000 OA
ATOM      5  O   UNL     1      -8.725  -9.419  27.948  0.00  0.00    +0.000 OA
ATOM      6  C   UNL     1     -11.867  -5.483  25.625  0.00  0.00    +0.000 C 
ATOM      7  C   UNL     1     -10.969  -5.196  26.837  0.00  0.00    +0.000 C 
ATOM      8  C   UNL     1     -12.565  -6.708  25.355  0.00  0.00    +0.000 C 
ATOM      9  C   UNL     1     -12.374  -8.117  25.701  0.00  0.00    +0.000 C 
ATOM     10  C   UNL     1     -12.416  -4.186  25.210  0.00  0.00    +0.000 C 
ATOM     11  C   UNL     1     -10.605  -6.445  27.580  0.00  0.00    +0.000 C 
ATOM     12  C   UNL     1      -9.708  -4.421  26.349  0.00  0.00    +0.000 C 
ATOM     13  C   UNL     1     -11.423  -2.999  25.159  0.00  0.00    +0.000 C 
ATOM     14  C   UNL     1     -10.051  -7.654  26.858  0.00  0.00    +0.000 C 
ATOM     15  C   UNL     1     -11.066  -8.573  26.246  0.00  0.00    +0.000 C 
ATOM     16  C   UNL     1      -9.984  -3.468  25.287  0.00  0.00    +0.000 C 
ATOM     17  C   UNL     1     -12.504  -3.313  27.134  0.00  0.00    +0.000 C 
ATOM     18  C   UNL     1     -10.278  -6.554  28.956  0.00  0.00    +0.000 C 
ATOM     19  C   UNL     1      -8.336  -4.412  27.024  0.00  0.00    +0.000 C 
ATOM     20  C   UNL     1      -9.339  -8.362  28.059  0.00  0.00    +0.000 C 
ATOM     21  C   UNL     1      -9.554  -7.563  29.309  0.00  0.00    +0.000 C 
ATOM     22  C   UNL     1      -9.470  -8.076  30.709  0.00  0.00    +0.000 C 
ENDROOT
BRANCH  13  23
ATOM     23  C   UNL     1     -11.761  -2.082  23.959  0.00  0.00    +0.000 C 
ATOM     24  C   UNL     1     -11.256  -0.648  23.808  0.00  0.00    +0.000 C 
ATOM     25  C   UNL     1     -12.749  -2.342  23.079  0.00  0.00    +0.000 C 
ENDBRANCH  13  23
BRANCH  14  26
ATOM     26  O   UNL     1      -9.143  -7.273  25.847  0.00  0.00    +0.000 OA
ATOM     27  H   UNL     1      -9.167  -7.967  25.159  0.00  0.00    +0.000 HD
ENDBRANCH  14  26
BRANCH  15  28
ATOM     28  O   UNL     1     -10.666  -9.893  26.018  0.00  0.00    +0.000 OA
ATOM     29  H   UNL     1      -9.717 -10.073  26.188  0.00  0.00    +0.000 HD
ENDBRANCH  15  28
BRANCH  17  30
ATOM     30  C   UNL     1     -13.278  -2.622  28.160  0.00  0.00    +0.000 C 
ATOM     31  C   UNL     1     -13.914  -2.052  29.004  0.00  0.00    +0.000 C 
BRANCH  31  32
ATOM     32  C   UNL     1     -14.724  -1.324  30.080  0.00  0.00    +0.000 C 
ATOM     33  C   UNL     1     -15.360  -0.752  30.923  0.00  0.00    +0.000 C 
BRANCH  33  34
ATOM     34  C   UNL     1     -16.172  -0.022  31.996  0.00  0.00    +0.000 C 
ATOM     35  C   UNL     1     -16.985   0.707  33.069  0.00  0.00    +0.000 C 
BRANCH  35  36
ATOM     36  C   UNL     1     -17.800   1.436  34.143  0.00  0.00    +0.000 C 
ATOM     37  C   UNL     1     -18.615   2.164  35.216  0.00  0.00    +0.000 C 
ATOM     38  C   UNL     1     -19.431   2.891  36.290  0.00  0.00    +0.000 C 
ENDBRANCH  35  36
ENDBRANCH  33  34
ENDBRANCH  31  32
ENDBRANCH  17  30
BRANCH  16  39
ATOM     39  O   UNL     1      -8.908  -3.023  24.501  0.00  0.00    +0.000 OA
BRANCH  39  41
ATOM     40  O   UNL     1      -7.593  -4.755  23.758  0.00  0.00    +0.000 OA
ATOM     41  C   UNL     1      -8.474  -3.931  23.578  0.00  0.00    +0.000 C 
BRANCH  41  42
ATOM     42  C   UNL     1      -9.191  -3.749  22.303  0.00  0.00    +0.000 A 
ATOM     43  C   UNL     1      -8.967  -2.636  21.492  0.00  0.00    +0.000 A 
ATOM     44  C   UNL     1     -10.108  -4.725  21.917  0.00  0.00    +0.000 A 
ATOM     45  C   UNL     1      -9.663  -2.501  20.293  0.00  0.00    +0.000 A 
ATOM     46  C   UNL     1     -10.802  -4.587  20.718  0.00  0.00    +0.000 A 
ATOM     47  C   UNL     1     -10.580  -3.476  19.907  0.00  0.00    +0.000 A 
ENDBRANCH  41  42
ENDBRANCH  39  41
ENDBRANCH  16  39
BRANCH   9  48
ATOM     48  C   UNL     1     -13.204  -9.105  25.026  0.00  0.00    +0.000 C 
BRANCH  48  49
ATOM     49  O   UNL     1     -13.968 -10.006  24.413  0.00  0.00    +0.000 OA
ATOM     50  H   UNL     1     -14.325  -9.641  23.584  0.00  0.00    +0.000 HD
ENDBRANCH  48  49
ENDBRANCH   9  48
TORSDOF 12
ENDMDL
