MODEL 1
REMARK VINA RESULT:      -5.7      0.000      0.000
REMARK  Name = 5386_Tegafur.pdbqt.pdb
REMARK  1 active torsions:
REMARK  status: ('A' for Active; 'I' for Inactive)
REMARK    1  A    between atoms: N_4  and  C_12
REMARK                            x       y       z     vdW  Elec       q    Type
REMARK                         _______ _______ _______ _____ _____    ______ ____
ROOT
ATOM      1  F   UNL     1      -7.308  -6.379  19.043  0.00  0.00    +0.000 F 
ATOM      2  O   UNL     1     -10.978  -2.541  17.898  0.00  0.00    +0.000 OA
ATOM      3  O   UNL     1      -8.287  -5.957  16.423  0.00  0.00    +0.000 OA
ATOM      4  N   UNL     1      -9.819  -3.818  19.518  0.00  0.00    +0.000 N 
ATOM      5  N   UNL     1      -9.684  -4.311  17.224  0.00  0.00    +0.000 N 
ATOM      6  C   UNL     1     -10.236  -3.464  18.214  0.00  0.00    +0.000 C 
ATOM      7  C   UNL     1      -8.983  -4.871  19.633  0.00  0.00    +0.000 C 
ATOM      8  C   UNL     1      -8.437  -5.692  18.802  0.00  0.00    +0.000 C 
ATOM      9  C   UNL     1      -8.775  -5.366  17.379  0.00  0.00    +0.000 C 
ATOM     10  H   UNL     1      -9.923  -4.072  16.272  0.00  0.00    +0.000 HD
ENDROOT
BRANCH   4  12
ATOM     11  O   UNL     1     -11.494  -3.273  21.187  0.00  0.00    +0.000 OA
ATOM     12  C   UNL     1     -10.208  -3.157  20.646  0.00  0.00    +0.000 C 
ATOM     13  C   UNL     1      -9.462  -2.263  21.461  0.00  0.00    +0.000 C 
ATOM     14  C   UNL     1     -10.061  -1.597  22.701  0.00  0.00    +0.000 C 
ATOM     15  C   UNL     1     -11.237  -2.432  22.198  0.00  0.00    +0.000 C 
ENDBRANCH   4  12
TORSDOF 1
ENDMDL
MODEL 2
REMARK VINA RESULT:      -5.0      2.420      2.925
REMARK  Name = 5386_Tegafur.pdbqt.pdb
REMARK  1 active torsions:
REMARK  status: ('A' for Active; 'I' for Inactive)
REMARK    1  A    between atoms: N_4  and  C_12
REMARK                            x       y       z     vdW  Elec       q    Type
REMARK                         _______ _______ _______ _____ _____    ______ ____
ROOT
ATOM      1  F   UNL     1      -7.896  -5.417  18.629  0.00  0.00    +0.000 F 
ATOM      2  O   UNL     1     -11.833  -3.162  21.615  0.00  0.00    +0.000 OA
ATOM      3  O   UNL     1      -9.965  -3.868  17.480  0.00  0.00    +0.000 OA
ATOM      4  N   UNL     1     -10.020  -4.675  21.460  0.00  0.00    +0.000 N 
ATOM      5  N   UNL     1     -10.914  -3.615  19.563  0.00  0.00    +0.000 N 
ATOM      6  C   UNL     1     -10.993  -3.775  20.966  0.00  0.00    +0.000 C 
ATOM      7  C   UNL     1      -9.182  -5.231  20.562  0.00  0.00    +0.000 C 
ATOM      8  C   UNL     1      -9.038  -5.150  19.283  0.00  0.00    +0.000 C 
ATOM      9  C   UNL     1      -9.992  -4.172  18.667  0.00  0.00    +0.000 C 
ATOM     10  H   UNL     1     -11.565  -2.951  19.168  0.00  0.00    +0.000 HD
ENDROOT
BRANCH   4  12
ATOM     11  O   UNL     1     -10.784  -5.837  23.450  0.00  0.00    +0.000 OA
ATOM     12  C   UNL     1      -9.886  -4.999  22.779  0.00  0.00    +0.000 C 
ATOM     13  C   UNL     1      -8.888  -4.587  23.703  0.00  0.00    +0.000 C 
ATOM     14  C   UNL     1      -8.890  -5.044  25.163  0.00  0.00    +0.000 C 
ATOM     15  C   UNL     1     -10.133  -5.744  24.616  0.00  0.00    +0.000 C 
ENDBRANCH   4  12
TORSDOF 1
ENDMDL
MODEL 3
REMARK VINA RESULT:      -4.7     16.398     17.440
REMARK  Name = 5386_Tegafur.pdbqt.pdb
REMARK  1 active torsions:
REMARK  status: ('A' for Active; 'I' for Inactive)
REMARK    1  A    between atoms: N_4  and  C_12
REMARK                            x       y       z     vdW  Elec       q    Type
REMARK                         _______ _______ _______ _____ _____    ______ ____
ROOT
ATOM      1  F   UNL     1       2.582  -8.667  10.730  0.00  0.00    +0.000 F 
ATOM      2  O   UNL     1       6.028 -11.350  13.960  0.00  0.00    +0.000 OA
ATOM      3  O   UNL     1       4.687  -7.370  12.105  0.00  0.00    +0.000 OA
ATOM      4  N   UNL     1       4.015 -11.328  12.717  0.00  0.00    +0.000 N 
ATOM      5  N   UNL     1       5.268  -9.373  13.080  0.00  0.00    +0.000 N 
ATOM      6  C   UNL     1       5.168 -10.765  13.313  0.00  0.00    +0.000 C 
ATOM      7  C   UNL     1       3.205 -10.495  12.034  0.00  0.00    +0.000 C 
ATOM      8  C   UNL     1       3.211  -9.232  11.774  0.00  0.00    +0.000 C 
ATOM      9  C   UNL     1       4.429  -8.549  12.319  0.00  0.00    +0.000 C 
ATOM     10  H   UNL     1       6.096  -8.933  13.454  0.00  0.00    +0.000 HD
ENDROOT
BRANCH   4  12
ATOM     11  O   UNL     1       4.064 -13.581  11.815  0.00  0.00    +0.000 OA
ATOM     12  C   UNL     1       3.691 -12.652  12.793  0.00  0.00    +0.000 C 
ATOM     13  C   UNL     1       2.951 -13.334  13.796  0.00  0.00    +0.000 C 
ATOM     14  C   UNL     1       2.669 -14.836  13.722  0.00  0.00    +0.000 C 
ATOM     15  C   UNL     1       3.472 -14.606  12.442  0.00  0.00    +0.000 C 
ENDBRANCH   4  12
TORSDOF 1
ENDMDL
MODEL 4
REMARK VINA RESULT:      -4.5     14.353     15.671
REMARK  Name = 5386_Tegafur.pdbqt.pdb
REMARK  1 active torsions:
REMARK  status: ('A' for Active; 'I' for Inactive)
REMARK    1  A    between atoms: N_4  and  C_12
REMARK                            x       y       z     vdW  Elec       q    Type
REMARK                         _______ _______ _______ _____ _____    ______ ____
ROOT
ATOM      1  F   UNL     1     -25.197  -3.290  13.990  0.00  0.00    +0.000 F 
ATOM      2  O   UNL     1     -21.213  -6.978  13.842  0.00  0.00    +0.000 OA
ATOM      3  O   UNL     1     -24.450  -4.801  16.262  0.00  0.00    +0.000 OA
ATOM      4  N   UNL     1     -22.689  -5.541  12.679  0.00  0.00    +0.000 N 
ATOM      5  N   UNL     1     -22.900  -5.928  14.987  0.00  0.00    +0.000 N 
ATOM      6  C   UNL     1     -22.175  -6.219  13.808  0.00  0.00    +0.000 C 
ATOM      7  C   UNL     1     -23.756  -4.739  12.874  0.00  0.00    +0.000 C 
ATOM      8  C   UNL     1     -24.476  -4.418  13.895  0.00  0.00    +0.000 C 
ATOM      9  C   UNL     1     -23.975  -5.046  15.160  0.00  0.00    +0.000 C 
ATOM     10  H   UNL     1     -22.545  -6.360  15.828  0.00  0.00    +0.000 HD
ENDROOT
BRANCH   4  12
ATOM     11  O   UNL     1     -22.320  -6.798  10.635  0.00  0.00    +0.000 OA
ATOM     12  C   UNL     1     -22.166  -5.651  11.423  0.00  0.00    +0.000 C 
ATOM     13  C   UNL     1     -21.398  -4.707  10.689  0.00  0.00    +0.000 C 
ATOM     14  C   UNL     1     -20.879  -4.998   9.280  0.00  0.00    +0.000 C 
ATOM     15  C   UNL     1     -21.618  -6.293   9.612  0.00  0.00    +0.000 C 
ENDBRANCH   4  12
TORSDOF 1
ENDMDL
MODEL 5
REMARK VINA RESULT:      -4.5      3.938      6.001
REMARK  Name = 5386_Tegafur.pdbqt.pdb
REMARK  1 active torsions:
REMARK  status: ('A' for Active; 'I' for Inactive)
REMARK    1  A    between atoms: N_4  and  C_12
REMARK                            x       y       z     vdW  Elec       q    Type
REMARK                         _______ _______ _______ _____ _____    ______ ____
ROOT
ATOM      1  F   UNL     1     -13.958  -2.158  24.818  0.00  0.00    +0.000 F 
ATOM      2  O   UNL     1     -10.987  -5.839  22.150  0.00  0.00    +0.000 OA
ATOM      3  O   UNL     1     -14.148  -4.929  25.352  0.00  0.00    +0.000 OA
ATOM      4  N   UNL     1     -11.773  -3.616  22.331  0.00  0.00    +0.000 N 
ATOM      5  N   UNL     1     -12.625  -5.344  23.676  0.00  0.00    +0.000 N 
ATOM      6  C   UNL     1     -11.717  -4.992  22.651  0.00  0.00    +0.000 C 
ATOM      7  C   UNL     1     -12.648  -2.857  23.023  0.00  0.00    +0.000 C 
ATOM      8  C   UNL     1     -13.506  -3.086  23.959  0.00  0.00    +0.000 C 
ATOM      9  C   UNL     1     -13.485  -4.515  24.410  0.00  0.00    +0.000 C 
ATOM     10  H   UNL     1     -12.593  -6.311  23.966  0.00  0.00    +0.000 HD
ENDROOT
BRANCH   4  12
ATOM     11  O   UNL     1     -11.155  -3.273  20.009  0.00  0.00    +0.000 OA
ATOM     12  C   UNL     1     -10.996  -3.024  21.378  0.00  0.00    +0.000 C 
ATOM     13  C   UNL     1      -9.928  -2.102  21.541  0.00  0.00    +0.000 C 
ATOM     14  C   UNL     1      -9.150  -1.536  20.352  0.00  0.00    +0.000 C 
ATOM     15  C   UNL     1     -10.157  -2.451  19.658  0.00  0.00    +0.000 C 
ENDBRANCH   4  12
TORSDOF 1
ENDMDL
MODEL 6
REMARK VINA RESULT:      -4.4      3.924      5.161
REMARK  Name = 5386_Tegafur.pdbqt.pdb
REMARK  1 active torsions:
REMARK  status: ('A' for Active; 'I' for Inactive)
REMARK    1  A    between atoms: N_4  and  C_12
REMARK                            x       y       z     vdW  Elec       q    Type
REMARK                         _______ _______ _______ _____ _____    ______ ____
ROOT
ATOM      1  F   UNL     1     -12.183  -4.206  25.502  0.00  0.00    +0.000 F 
ATOM      2  O   UNL     1      -9.801  -5.503  20.796  0.00  0.00    +0.000 OA
ATOM      3  O   UNL     1     -12.644  -6.677  24.205  0.00  0.00    +0.000 OA
ATOM      4  N   UNL     1     -10.325  -3.862  22.417  0.00  0.00    +0.000 N 
ATOM      5  N   UNL     1     -11.280  -6.009  22.475  0.00  0.00    +0.000 N 
ATOM      6  C   UNL     1     -10.401  -5.131  21.798  0.00  0.00    +0.000 C 
ATOM      7  C   UNL     1     -11.068  -3.673  23.527  0.00  0.00    +0.000 C 
ATOM      8  C   UNL     1     -11.888  -4.401  24.206  0.00  0.00    +0.000 C 
ATOM      9  C   UNL     1     -11.997  -5.792  23.659  0.00  0.00    +0.000 C 
ATOM     10  H   UNL     1     -11.337  -6.941  22.090  0.00  0.00    +0.000 HD
ENDROOT
BRANCH   4  12
ATOM     11  O   UNL     1      -8.229  -2.639  22.388  0.00  0.00    +0.000 OA
ATOM     12  C   UNL     1      -9.547  -2.839  21.961  0.00  0.00    +0.000 C 
ATOM     13  C   UNL     1      -9.871  -1.817  21.028  0.00  0.00    +0.000 C 
ATOM     14  C   UNL     1      -8.870  -0.731  20.628  0.00  0.00    +0.000 C 
ATOM     15  C   UNL     1      -8.055  -1.553  21.624  0.00  0.00    +0.000 C 
ENDBRANCH   4  12
TORSDOF 1
ENDMDL
MODEL 7
REMARK VINA RESULT:      -4.3      3.894      6.003
REMARK  Name = 5386_Tegafur.pdbqt.pdb
REMARK  1 active torsions:
REMARK  status: ('A' for Active; 'I' for Inactive)
REMARK    1  A    between atoms: N_4  and  C_12
REMARK                            x       y       z     vdW  Elec       q    Type
REMARK                         _______ _______ _______ _____ _____    ______ ____
ROOT
ATOM      1  F   UNL     1     -11.900  -7.097  25.487  0.00  0.00    +0.000 F 
ATOM      2  O   UNL     1     -12.335  -2.840  22.142  0.00  0.00    +0.000 OA
ATOM      3  O   UNL     1     -13.998  -5.212  25.704  0.00  0.00    +0.000 OA
ATOM      4  N   UNL     1     -11.043  -4.637  22.978  0.00  0.00    +0.000 N 
ATOM      5  N   UNL     1     -13.077  -4.008  23.971  0.00  0.00    +0.000 N 
ATOM      6  C   UNL     1     -12.142  -3.748  22.943  0.00  0.00    +0.000 C 
ATOM      7  C   UNL     1     -11.041  -5.577  23.946  0.00  0.00    +0.000 C 
ATOM      8  C   UNL     1     -11.835  -5.884  24.914  0.00  0.00    +0.000 C 
ATOM      9  C   UNL     1     -13.066  -5.029  24.930  0.00  0.00    +0.000 C 
ATOM     10  H   UNL     1     -13.900  -3.421  23.963  0.00  0.00    +0.000 HD
ENDROOT
BRANCH   4  12
ATOM     11  O   UNL     1      -8.811  -3.916  22.354  0.00  0.00    +0.000 OA
ATOM     12  C   UNL     1     -10.005  -4.598  22.093  0.00  0.00    +0.000 C 
ATOM     13  C   UNL     1      -9.908  -5.185  20.802  0.00  0.00    +0.000 C 
ATOM     14  C   UNL     1      -8.660  -5.036  19.930  0.00  0.00    +0.000 C 
ATOM     15  C   UNL     1      -8.267  -4.243  21.175  0.00  0.00    +0.000 C 
ENDBRANCH   4  12
TORSDOF 1
ENDMDL
MODEL 8
REMARK VINA RESULT:      -4.2      3.183      5.638
REMARK  Name = 5386_Tegafur.pdbqt.pdb
REMARK  1 active torsions:
REMARK  status: ('A' for Active; 'I' for Inactive)
REMARK    1  A    between atoms: N_4  and  C_12
REMARK                            x       y       z     vdW  Elec       q    Type
REMARK                         _______ _______ _______ _____ _____    ______ ____
ROOT
ATOM      1  F   UNL     1      -9.430  -1.248  24.309  0.00  0.00    +0.000 F 
ATOM      2  O   UNL     1     -11.530  -5.875  22.390  0.00  0.00    +0.000 OA
ATOM      3  O   UNL     1     -10.703  -3.140  25.983  0.00  0.00    +0.000 OA
ATOM      4  N   UNL     1     -10.628  -3.730  21.966  0.00  0.00    +0.000 N 
ATOM      5  N   UNL     1     -11.174  -4.436  24.140  0.00  0.00    +0.000 N 
ATOM      6  C   UNL     1     -11.143  -4.775  22.766  0.00  0.00    +0.000 C 
ATOM      7  C   UNL     1     -10.247  -2.600  22.597  0.00  0.00    +0.000 C 
ATOM      8  C   UNL     1     -10.240  -2.204  23.824  0.00  0.00    +0.000 C 
ATOM      9  C   UNL     1     -10.719  -3.268  24.765  0.00  0.00    +0.000 C 
ATOM     10  H   UNL     1     -11.499  -5.167  24.756  0.00  0.00    +0.000 HD
ENDROOT
BRANCH   4  12
ATOM     11  O   UNL     1     -11.506  -3.422  19.724  0.00  0.00    +0.000 OA
ATOM     12  C   UNL     1     -10.493  -3.807  20.610  0.00  0.00    +0.000 C 
ATOM     13  C   UNL     1      -9.386  -4.267  19.847  0.00  0.00    +0.000 C 
ATOM     14  C   UNL     1      -9.404  -4.293  18.317  0.00  0.00    +0.000 C 
ATOM     15  C   UNL     1     -10.789  -3.732  18.636  0.00  0.00    +0.000 C 
ENDBRANCH   4  12
TORSDOF 1
ENDMDL
MODEL 9
REMARK VINA RESULT:      -4.2     16.922     18.971
REMARK  Name = 5386_Tegafur.pdbqt.pdb
REMARK  1 active torsions:
REMARK  status: ('A' for Active; 'I' for Inactive)
REMARK    1  A    between atoms: N_4  and  C_12
REMARK                            x       y       z     vdW  Elec       q    Type
REMARK                         _______ _______ _______ _____ _____    ______ ____
ROOT
ATOM      1  F   UNL     1       9.102 -10.994  12.636  0.00  0.00    +0.000 F 
ATOM      2  O   UNL     1       4.414 -13.518  11.560  0.00  0.00    +0.000 OA
ATOM      3  O   UNL     1       8.845 -13.810  12.727  0.00  0.00    +0.000 OA
ATOM      4  N   UNL     1       5.576 -11.508  12.015  0.00  0.00    +0.000 N 
ATOM      5  N   UNL     1       6.607 -13.609  12.228  0.00  0.00    +0.000 N 
ATOM      6  C   UNL     1       5.421 -12.909  11.902  0.00  0.00    +0.000 C 
ATOM      7  C   UNL     1       6.785 -11.050  12.398  0.00  0.00    +0.000 C 
ATOM      8  C   UNL     1       7.907 -11.603  12.714  0.00  0.00    +0.000 C 
ATOM      9  C   UNL     1       7.863 -13.094  12.572  0.00  0.00    +0.000 C 
ATOM     10  H   UNL     1       6.556 -14.613  12.124  0.00  0.00    +0.000 HD
ENDROOT
BRANCH   4  12
ATOM     11  O   UNL     1       4.835  -9.283  11.388  0.00  0.00    +0.000 OA
ATOM     12  C   UNL     1       4.582 -10.611  11.754  0.00  0.00    +0.000 C 
ATOM     13  C   UNL     1       3.174 -10.798  11.800  0.00  0.00    +0.000 C 
ATOM     14  C   UNL     1       2.190  -9.670  11.481  0.00  0.00    +0.000 C 
ATOM     15  C   UNL     1       3.536  -8.972  11.294  0.00  0.00    +0.000 C 
ENDBRANCH   4  12
TORSDOF 1
ENDMDL
