MODEL 1
REMARK VINA RESULT:      -6.0      0.000      0.000
REMARK  Name = 5470187_Zerumbone.pdbqt.pdb
REMARK  0 active torsions:
REMARK  status: ('A' for Active; 'I' for Inactive)
REMARK                            x       y       z     vdW  Elec       q    Type
REMARK                         _______ _______ _______ _____ _____    ______ ____
ROOT
ATOM      1  O   UNL     1     -13.229  -4.627  23.321  0.00  0.00    +0.000 OA
ATOM      2  C   UNL     1      -9.937  -3.358  19.940  0.00  0.00    +0.000 C 
ATOM      3  C   UNL     1      -9.451  -1.960  20.014  0.00  0.00    +0.000 C 
ATOM      4  C   UNL     1      -8.756  -4.340  20.125  0.00  0.00    +0.000 C 
ATOM      5  C   UNL     1     -10.640  -3.592  18.580  0.00  0.00    +0.000 C 
ATOM      6  C   UNL     1     -10.922  -3.524  21.057  0.00  0.00    +0.000 C 
ATOM      7  C   UNL     1      -9.217  -0.494  20.424  0.00  0.00    +0.000 C 
ATOM      8  C   UNL     1      -9.310   0.626  21.076  0.00  0.00    +0.000 C 
ATOM      9  C   UNL     1     -10.260   0.529  22.126  0.00  0.00    +0.000 C 
ATOM     10  C   UNL     1     -11.293  -0.143  23.031  0.00  0.00    +0.000 C 
ATOM     11  C   UNL     1     -11.703  -3.568  21.976  0.00  0.00    +0.000 C 
ATOM     12  C   UNL     1      -8.123   1.521  21.215  0.00  0.00    +0.000 C 
ATOM     13  C   UNL     1     -12.193  -1.243  23.603  0.00  0.00    +0.000 C 
ATOM     14  C   UNL     1     -12.856  -2.320  23.909  0.00  0.00    +0.000 C 
ATOM     15  C   UNL     1     -12.644  -3.573  23.097  0.00  0.00    +0.000 C 
ATOM     16  C   UNL     1     -13.815  -2.229  25.071  0.00  0.00    +0.000 C 
ENDROOT
TORSDOF 0
ENDMDL
MODEL 2
REMARK VINA RESULT:      -5.8      3.560      5.374
REMARK  Name = 5470187_Zerumbone.pdbqt.pdb
REMARK  0 active torsions:
REMARK  status: ('A' for Active; 'I' for Inactive)
REMARK                            x       y       z     vdW  Elec       q    Type
REMARK                         _______ _______ _______ _____ _____    ______ ____
ROOT
ATOM      1  O   UNL     1      -5.869  -1.734  22.310  0.00  0.00    +0.000 OA
ATOM      2  C   UNL     1      -9.223  -4.542  20.134  0.00  0.00    +0.000 C 
ATOM      3  C   UNL     1     -10.291  -5.065  21.018  0.00  0.00    +0.000 C 
ATOM      4  C   UNL     1      -9.839  -3.662  19.020  0.00  0.00    +0.000 C 
ATOM      5  C   UNL     1      -8.429  -5.725  19.524  0.00  0.00    +0.000 C 
ATOM      6  C   UNL     1      -8.320  -3.718  21.000  0.00  0.00    +0.000 C 
ATOM      7  C   UNL     1     -11.181  -5.387  22.232  0.00  0.00    +0.000 C 
ATOM      8  C   UNL     1     -11.633  -5.403  23.451  0.00  0.00    +0.000 C 
ATOM      9  C   UNL     1     -10.791  -4.662  24.319  0.00  0.00    +0.000 C 
ATOM     10  C   UNL     1      -9.607  -3.778  24.716  0.00  0.00    +0.000 C 
ATOM     11  C   UNL     1      -7.646  -3.079  21.770  0.00  0.00    +0.000 C 
ATOM     12  C   UNL     1     -13.101  -5.479  23.710  0.00  0.00    +0.000 C 
ATOM     13  C   UNL     1      -8.334  -2.939  24.563  0.00  0.00    +0.000 C 
ATOM     14  C   UNL     1      -7.271  -2.289  24.191  0.00  0.00    +0.000 C 
ATOM     15  C   UNL     1      -6.856  -2.320  22.741  0.00  0.00    +0.000 C 
ATOM     16  C   UNL     1      -6.509  -1.546  25.262  0.00  0.00    +0.000 C 
ENDROOT
TORSDOF 0
ENDMDL
MODEL 3
REMARK VINA RESULT:      -5.8      1.711      4.127
REMARK  Name = 5470187_Zerumbone.pdbqt.pdb
REMARK  0 active torsions:
REMARK  status: ('A' for Active; 'I' for Inactive)
REMARK                            x       y       z     vdW  Elec       q    Type
REMARK                         _______ _______ _______ _____ _____    ______ ____
ROOT
ATOM      1  O   UNL     1     -12.785  -1.775  24.773  0.00  0.00    +0.000 OA
ATOM      2  C   UNL     1      -9.099  -1.086  21.640  0.00  0.00    +0.000 C 
ATOM      3  C   UNL     1      -8.686  -2.280  20.865  0.00  0.00    +0.000 C 
ATOM      4  C   UNL     1      -9.575   0.031  20.681  0.00  0.00    +0.000 C 
ATOM      5  C   UNL     1      -7.913  -0.596  22.509  0.00  0.00    +0.000 C 
ATOM      6  C   UNL     1     -10.229  -1.522  22.522  0.00  0.00    +0.000 C 
ATOM      7  C   UNL     1      -8.574  -3.702  20.287  0.00  0.00    +0.000 C 
ATOM      8  C   UNL     1      -8.813  -4.962  20.077  0.00  0.00    +0.000 C 
ATOM      9  C   UNL     1      -9.856  -5.432  20.916  0.00  0.00    +0.000 C 
ATOM     10  C   UNL     1     -10.959  -5.347  21.973  0.00  0.00    +0.000 C 
ATOM     11  C   UNL     1     -11.127  -1.959  23.200  0.00  0.00    +0.000 C 
ATOM     12  C   UNL     1      -8.615  -5.552  18.720  0.00  0.00    +0.000 C 
ATOM     13  C   UNL     1     -11.888  -4.731  23.022  0.00  0.00    +0.000 C 
ATOM     14  C   UNL     1     -12.554  -3.995  23.864  0.00  0.00    +0.000 C 
ATOM     15  C   UNL     1     -12.206  -2.534  24.004  0.00  0.00    +0.000 C 
ATOM     16  C   UNL     1     -13.640  -4.676  24.662  0.00  0.00    +0.000 C 
ENDROOT
TORSDOF 0
ENDMDL
MODEL 4
REMARK VINA RESULT:      -5.5      2.131      4.726
REMARK  Name = 5470187_Zerumbone.pdbqt.pdb
REMARK  0 active torsions:
REMARK  status: ('A' for Active; 'I' for Inactive)
REMARK                            x       y       z     vdW  Elec       q    Type
REMARK                         _______ _______ _______ _____ _____    ______ ____
ROOT
ATOM      1  O   UNL     1     -11.016  -0.275  24.445  0.00  0.00    +0.000 OA
ATOM      2  C   UNL     1     -10.883  -5.077  23.548  0.00  0.00    +0.000 C 
ATOM      3  C   UNL     1     -10.355  -5.465  22.218  0.00  0.00    +0.000 C 
ATOM      4  C   UNL     1     -10.002  -5.682  24.666  0.00  0.00    +0.000 C 
ATOM      5  C   UNL     1     -12.350  -5.556  23.682  0.00  0.00    +0.000 C 
ATOM      6  C   UNL     1     -10.831  -3.580  23.605  0.00  0.00    +0.000 C 
ATOM      7  C   UNL     1      -9.767  -5.442  20.796  0.00  0.00    +0.000 C 
ATOM      8  C   UNL     1      -9.278  -4.992  19.678  0.00  0.00    +0.000 C 
ATOM      9  C   UNL     1      -9.240  -3.574  19.670  0.00  0.00    +0.000 C 
ATOM     10  C   UNL     1      -9.415  -2.158  20.222  0.00  0.00    +0.000 C 
ATOM     11  C   UNL     1     -10.758  -2.377  23.564  0.00  0.00    +0.000 C 
ATOM     12  C   UNL     1      -8.250  -5.777  18.934  0.00  0.00    +0.000 C 
ATOM     13  C   UNL     1      -9.764  -1.043  21.212  0.00  0.00    +0.000 C 
ATOM     14  C   UNL     1     -10.127  -0.283  22.205  0.00  0.00    +0.000 C 
ATOM     15  C   UNL     1     -10.655  -0.919  23.466  0.00  0.00    +0.000 C 
ATOM     16  C   UNL     1     -10.000   1.208  22.011  0.00  0.00    +0.000 C 
ENDROOT
TORSDOF 0
ENDMDL
MODEL 5
REMARK VINA RESULT:      -5.5      2.159      4.654
REMARK  Name = 5470187_Zerumbone.pdbqt.pdb
REMARK  0 active torsions:
REMARK  status: ('A' for Active; 'I' for Inactive)
REMARK                            x       y       z     vdW  Elec       q    Type
REMARK                         _______ _______ _______ _____ _____    ______ ____
ROOT
ATOM      1  O   UNL     1      -8.697   1.291  20.363  0.00  0.00    +0.000 OA
ATOM      2  C   UNL     1      -9.657  -3.496  20.183  0.00  0.00    +0.000 C 
ATOM      3  C   UNL     1     -10.659  -3.985  21.160  0.00  0.00    +0.000 C 
ATOM      4  C   UNL     1     -10.149  -3.765  18.740  0.00  0.00    +0.000 C 
ATOM      5  C   UNL     1      -8.298  -4.193  20.440  0.00  0.00    +0.000 C 
ATOM      6  C   UNL     1      -9.524  -2.022  20.413  0.00  0.00    +0.000 C 
ATOM      7  C   UNL     1     -11.703  -4.078  22.287  0.00  0.00    +0.000 C 
ATOM      8  C   UNL     1     -12.502  -3.726  23.250  0.00  0.00    +0.000 C 
ATOM      9  C   UNL     1     -12.387  -2.340  23.530  0.00  0.00    +0.000 C 
ATOM     10  C   UNL     1     -11.876  -0.908  23.362  0.00  0.00    +0.000 C 
ATOM     11  C   UNL     1      -9.476  -0.843  20.670  0.00  0.00    +0.000 C 
ATOM     12  C   UNL     1     -13.806  -4.427  23.444  0.00  0.00    +0.000 C 
ATOM     13  C   UNL     1     -11.082   0.268  22.787  0.00  0.00    +0.000 C 
ATOM     14  C   UNL     1     -10.313   1.096  22.140  0.00  0.00    +0.000 C 
ATOM     15  C   UNL     1      -9.448   0.578  21.019  0.00  0.00    +0.000 C 
ATOM     16  C   UNL     1     -10.337   2.540  22.579  0.00  0.00    +0.000 C 
ENDROOT
TORSDOF 0
ENDMDL
MODEL 6
REMARK VINA RESULT:      -5.2     16.043     18.438
REMARK  Name = 5470187_Zerumbone.pdbqt.pdb
REMARK  0 active torsions:
REMARK  status: ('A' for Active; 'I' for Inactive)
REMARK                            x       y       z     vdW  Elec       q    Type
REMARK                         _______ _______ _______ _____ _____    ______ ____
ROOT
ATOM      1  O   UNL     1     -23.263  -7.373   5.070  0.00  0.00    +0.000 OA
ATOM      2  C   UNL     1     -20.759  -4.391   8.021  0.00  0.00    +0.000 C 
ATOM      3  C   UNL     1     -20.963  -4.607   9.473  0.00  0.00    +0.000 C 
ATOM      4  C   UNL     1     -19.270  -4.605   7.658  0.00  0.00    +0.000 C 
ATOM      5  C   UNL     1     -21.219  -2.961   7.640  0.00  0.00    +0.000 C 
ATOM      6  C   UNL     1     -21.609  -5.403   7.317  0.00  0.00    +0.000 C 
ATOM      7  C   UNL     1     -21.437  -5.141  10.837  0.00  0.00    +0.000 C 
ATOM      8  C   UNL     1     -22.058  -5.863  11.722  0.00  0.00    +0.000 C 
ATOM      9  C   UNL     1     -22.905  -6.817  11.103  0.00  0.00    +0.000 C 
ATOM     10  C   UNL     1     -23.561  -7.579   9.949  0.00  0.00    +0.000 C 
ATOM     11  C   UNL     1     -22.326  -6.245   6.832  0.00  0.00    +0.000 C 
ATOM     12  C   UNL     1     -21.413  -6.168  13.033  0.00  0.00    +0.000 C 
ATOM     13  C   UNL     1     -23.888  -7.990   8.510  0.00  0.00    +0.000 C 
ATOM     14  C   UNL     1     -24.003  -8.158   7.225  0.00  0.00    +0.000 C 
ATOM     15  C   UNL     1     -23.211  -7.278   6.291  0.00  0.00    +0.000 C 
ATOM     16  C   UNL     1     -24.949  -9.237   6.756  0.00  0.00    +0.000 C 
ENDROOT
TORSDOF 0
ENDMDL
MODEL 7
REMARK VINA RESULT:      -5.2      3.073      5.013
REMARK  Name = 5470187_Zerumbone.pdbqt.pdb
REMARK  0 active torsions:
REMARK  status: ('A' for Active; 'I' for Inactive)
REMARK                            x       y       z     vdW  Elec       q    Type
REMARK                         _______ _______ _______ _____ _____    ______ ____
ROOT
ATOM      1  O   UNL     1      -6.982  -2.120  25.684  0.00  0.00    +0.000 OA
ATOM      2  C   UNL     1     -10.673  -4.434  23.472  0.00  0.00    +0.000 C 
ATOM      3  C   UNL     1     -10.915  -4.051  22.060  0.00  0.00    +0.000 C 
ATOM      4  C   UNL     1     -10.330  -5.940  23.562  0.00  0.00    +0.000 C 
ATOM      5  C   UNL     1     -11.927  -4.103  24.320  0.00  0.00    +0.000 C 
ATOM      6  C   UNL     1      -9.511  -3.613  23.942  0.00  0.00    +0.000 C 
ATOM      7  C   UNL     1     -10.832  -3.393  20.671  0.00  0.00    +0.000 C 
ATOM      8  C   UNL     1     -10.427  -2.635  19.696  0.00  0.00    +0.000 C 
ATOM      9  C   UNL     1      -9.346  -1.811  20.103  0.00  0.00    +0.000 C 
ATOM     10  C   UNL     1      -8.281  -1.251  21.047  0.00  0.00    +0.000 C 
ATOM     11  C   UNL     1      -8.575  -2.911  24.237  0.00  0.00    +0.000 C 
ATOM     12  C   UNL     1     -10.524  -3.106  18.283  0.00  0.00    +0.000 C 
ATOM     13  C   UNL     1      -7.457  -1.069  22.325  0.00  0.00    +0.000 C 
ATOM     14  C   UNL     1      -6.906  -1.093  23.504  0.00  0.00    +0.000 C 
ATOM     15  C   UNL     1      -7.444  -2.037  24.551  0.00  0.00    +0.000 C 
ATOM     16  C   UNL     1      -5.755  -0.147  23.744  0.00  0.00    +0.000 C 
ENDROOT
TORSDOF 0
ENDMDL
MODEL 8
REMARK VINA RESULT:      -5.0     15.189     17.238
REMARK  Name = 5470187_Zerumbone.pdbqt.pdb
REMARK  0 active torsions:
REMARK  status: ('A' for Active; 'I' for Inactive)
REMARK                            x       y       z     vdW  Elec       q    Type
REMARK                         _______ _______ _______ _____ _____    ______ ____
ROOT
ATOM      1  O   UNL     1     -24.235  -7.788  13.404  0.00  0.00    +0.000 OA
ATOM      2  C   UNL     1     -23.747  -8.114   8.553  0.00  0.00    +0.000 C 
ATOM      3  C   UNL     1     -22.724  -7.226   7.951  0.00  0.00    +0.000 C 
ATOM      4  C   UNL     1     -23.395  -9.595   8.272  0.00  0.00    +0.000 C 
ATOM      5  C   UNL     1     -25.142  -7.762   7.979  0.00  0.00    +0.000 C 
ATOM      6  C   UNL     1     -23.723  -7.852  10.028  0.00  0.00    +0.000 C 
ATOM      7  C   UNL     1     -21.610  -6.185   7.737  0.00  0.00    +0.000 C 
ATOM      8  C   UNL     1     -20.710  -5.283   7.992  0.00  0.00    +0.000 C 
ATOM      9  C   UNL     1     -20.673  -4.974   9.376  0.00  0.00    +0.000 C 
ATOM     10  C   UNL     1     -21.057  -5.080  10.853  0.00  0.00    +0.000 C 
ATOM     11  C   UNL     1     -23.640  -7.575  11.200  0.00  0.00    +0.000 C 
ATOM     12  C   UNL     1     -19.468  -5.202   7.169  0.00  0.00    +0.000 C 
ATOM     13  C   UNL     1     -21.779  -5.574  12.110  0.00  0.00    +0.000 C 
ATOM     14  C   UNL     1     -22.513  -6.145  13.020  0.00  0.00    +0.000 C 
ATOM     15  C   UNL     1     -23.507  -7.203  12.609  0.00  0.00    +0.000 C 
ATOM     16  C   UNL     1     -22.320  -5.689  14.446  0.00  0.00    +0.000 C 
ENDROOT
TORSDOF 0
ENDMDL
MODEL 9
REMARK VINA RESULT:      -4.9     18.913     20.324
REMARK  Name = 5470187_Zerumbone.pdbqt.pdb
REMARK  0 active torsions:
REMARK  status: ('A' for Active; 'I' for Inactive)
REMARK                            x       y       z     vdW  Elec       q    Type
REMARK                         _______ _______ _______ _____ _____    ______ ____
ROOT
ATOM      1  O   UNL     1       4.308  -7.417  12.578  0.00  0.00    +0.000 OA
ATOM      2  C   UNL     1       6.053 -10.625  15.824  0.00  0.00    +0.000 C 
ATOM      3  C   UNL     1       5.647 -12.035  15.613  0.00  0.00    +0.000 C 
ATOM      4  C   UNL     1       7.593 -10.499  15.743  0.00  0.00    +0.000 C 
ATOM      5  C   UNL     1       5.532 -10.136  17.199  0.00  0.00    +0.000 C 
ATOM      6  C   UNL     1       5.414  -9.830  14.727  0.00  0.00    +0.000 C 
ATOM      7  C   UNL     1       5.017 -13.326  15.059  0.00  0.00    +0.000 C 
ATOM      8  C   UNL     1       4.335 -14.128  14.297  0.00  0.00    +0.000 C 
ATOM      9  C   UNL     1       3.681 -13.415  13.259  0.00  0.00    +0.000 C 
ATOM     10  C   UNL     1       3.281 -12.198  12.422  0.00  0.00    +0.000 C 
ATOM     11  C   UNL     1       4.858  -9.267  13.815  0.00  0.00    +0.000 C 
ATOM     12  C   UNL     1       4.794 -15.530  14.073  0.00  0.00    +0.000 C 
ATOM     13  C   UNL     1       3.218 -10.739  11.960  0.00  0.00    +0.000 C 
ATOM     14  C   UNL     1       3.317  -9.457  11.762  0.00  0.00    +0.000 C 
ATOM     15  C   UNL     1       4.163  -8.628  12.696  0.00  0.00    +0.000 C 
ATOM     16  C   UNL     1       2.554  -8.882  10.593  0.00  0.00    +0.000 C 
ENDROOT
TORSDOF 0
ENDMDL
