MODEL 1
REMARK VINA RESULT:      -5.6      0.000      0.000
REMARK  Name = 5azacytidine.pdbqt.pdb
REMARK  5 active torsions:
REMARK  status: ('A' for Active; 'I' for Inactive)
REMARK    1  A    between atoms: C2*_2  and  O2*_16
REMARK    2  A    between atoms: C3*_3  and  O3*_21
REMARK    3  A    between atoms: C4*_4  and  C5*_18
REMARK    4  A    between atoms: C1*_5  and  N_6
REMARK    5  A    between atoms: C5*_18  and  O5*_19
REMARK                            x       y       z     vdW  Elec       q    Type
REMARK                         _______ _______ _______ _____ _____    ______ ____
ROOT
ATOM      1  O4* UNL     1      -8.787  -5.353  19.720  0.00  0.00    +0.000 OA
ATOM      2  C2* UNL     1     -10.506  -3.830  19.938  0.00  0.00    +0.000 A 
ATOM      3  C3* UNL     1     -10.214  -3.986  18.545  0.00  0.00    +0.000 A 
ATOM      4  C4* UNL     1      -9.152  -4.943  18.427  0.00  0.00    +0.000 A 
ATOM      5  C1* UNL     1      -9.589  -4.675  20.664  0.00  0.00    +0.000 A 
ENDROOT
BRANCH   5   6
ATOM      6  N   UNL     1      -9.397  -4.841  22.003  0.00  0.00    +0.000 N 
ATOM      7  C   UNL     1     -10.266  -5.432  22.912  0.00  0.00    +0.000 A 
ATOM      8  O   UNL     1     -11.375  -5.866  22.608  0.00  0.00    +0.000 OA
ATOM      9  N   UNL     1      -9.800  -5.487  24.223  0.00  0.00    +0.000 NA
ATOM     10  C   UNL     1      -8.623  -5.001  24.531  0.00  0.00    +0.000 A 
ATOM     11  N   UNL     1      -7.775  -4.387  23.626  0.00  0.00    +0.000 NA
ATOM     12  C   UNL     1      -8.271  -4.417  22.571  0.00  0.00    +0.000 A 
ATOM     13  N   UNL     1      -8.209  -5.080  25.820  0.00  0.00    +0.000 N 
ATOM     14  H   UNL     1      -7.537  -4.374  26.088  0.00  0.00    +0.000 HD
ATOM     15  H   UNL     1      -8.964  -5.222  26.481  0.00  0.00    +0.000 HD
ENDBRANCH   5   6
BRANCH   2  16
ATOM     16  O2* UNL     1     -11.013  -2.645  20.395  0.00  0.00    +0.000 OA
ATOM     17  H2* UNL     1     -10.966  -2.580  21.374  0.00  0.00    +0.000 HD
ENDBRANCH   2  16
BRANCH   3  18
ATOM     18  O3* UNL     1     -10.360  -2.944  17.672  0.00  0.00    +0.000 OA
ATOM     19  H3* UNL     1     -10.944  -2.267  18.060  0.00  0.00    +0.000 HD
ENDBRANCH   3  18
BRANCH   4  20
ATOM     20  C5* UNL     1      -8.355  -5.210  17.297  0.00  0.00    +0.000 C 
BRANCH  20  21
ATOM     21  O5* UNL     1      -7.596  -5.467  16.236  0.00  0.00    +0.000 OA
ATOM     22  H5* UNL     1      -6.687  -5.159  16.395  0.00  0.00    +0.000 HD
ENDBRANCH  20  21
ENDBRANCH   4  20
TORSDOF 5
ENDMDL
MODEL 2
REMARK VINA RESULT:      -5.1      1.513      2.046
REMARK  Name = 5azacytidine.pdbqt.pdb
REMARK  5 active torsions:
REMARK  status: ('A' for Active; 'I' for Inactive)
REMARK    1  A    between atoms: C2*_2  and  O2*_16
REMARK    2  A    between atoms: C3*_3  and  O3*_21
REMARK    3  A    between atoms: C4*_4  and  C5*_18
REMARK    4  A    between atoms: C1*_5  and  N_6
REMARK    5  A    between atoms: C5*_18  and  O5*_19
REMARK                            x       y       z     vdW  Elec       q    Type
REMARK                         _______ _______ _______ _____ _____    ______ ____
ROOT
ATOM      1  O4* UNL     1      -9.122  -5.268  20.819  0.00  0.00    +0.000 OA
ATOM      2  C2* UNL     1     -11.061  -4.100  21.262  0.00  0.00    +0.000 A 
ATOM      3  C3* UNL     1     -10.885  -4.161  19.843  0.00  0.00    +0.000 A 
ATOM      4  C4* UNL     1      -9.682  -4.899  19.584  0.00  0.00    +0.000 A 
ATOM      5  C1* UNL     1      -9.938  -4.778  21.862  0.00  0.00    +0.000 A 
ENDROOT
BRANCH   5   6
ATOM      6  N   UNL     1      -9.588  -4.942  23.169  0.00  0.00    +0.000 N 
ATOM      7  C   UNL     1      -8.392  -4.575  23.774  0.00  0.00    +0.000 A 
ATOM      8  O   UNL     1      -7.452  -4.065  23.168  0.00  0.00    +0.000 OA
ATOM      9  N   UNL     1      -8.316  -4.845  25.138  0.00  0.00    +0.000 NA
ATOM     10  C   UNL     1      -9.320  -5.407  25.762  0.00  0.00    +0.000 A 
ATOM     11  N   UNL     1     -10.497  -5.797  25.148  0.00  0.00    +0.000 NA
ATOM     12  C   UNL     1     -10.441  -5.507  24.020  0.00  0.00    +0.000 A 
ATOM     13  N   UNL     1      -9.201  -5.647  27.093  0.00  0.00    +0.000 N 
ATOM     14  H   UNL     1      -9.775  -6.406  27.434  0.00  0.00    +0.000 HD
ATOM     15  H   UNL     1      -8.242  -5.658  27.419  0.00  0.00    +0.000 HD
ENDBRANCH   5   6
BRANCH   2  16
ATOM     16  O2* UNL     1     -11.729  -3.043  21.817  0.00  0.00    +0.000 OA
ATOM     17  H2* UNL     1     -11.147  -2.260  21.930  0.00  0.00    +0.000 HD
ENDBRANCH   2  16
BRANCH   3  18
ATOM     18  O3* UNL     1     -11.305  -3.141  19.035  0.00  0.00    +0.000 OA
ATOM     19  H3* UNL     1     -12.227  -3.295  18.759  0.00  0.00    +0.000 HD
ENDBRANCH   3  18
BRANCH   4  20
ATOM     20  C5* UNL     1      -8.965  -4.981  18.375  0.00  0.00    +0.000 C 
BRANCH  20  21
ATOM     21  O5* UNL     1      -8.283  -5.066  17.237  0.00  0.00    +0.000 OA
ATOM     22  H5* UNL     1      -7.830  -5.926  17.185  0.00  0.00    +0.000 HD
ENDBRANCH  20  21
ENDBRANCH   4  20
TORSDOF 5
ENDMDL
MODEL 3
REMARK VINA RESULT:      -4.8      3.630      6.538
REMARK  Name = 5azacytidine.pdbqt.pdb
REMARK  5 active torsions:
REMARK  status: ('A' for Active; 'I' for Inactive)
REMARK    1  A    between atoms: C2*_2  and  O2*_16
REMARK    2  A    between atoms: C3*_3  and  O3*_21
REMARK    3  A    between atoms: C4*_4  and  C5*_18
REMARK    4  A    between atoms: C1*_5  and  N_6
REMARK    5  A    between atoms: C5*_18  and  O5*_19
REMARK                            x       y       z     vdW  Elec       q    Type
REMARK                         _______ _______ _______ _____ _____    ______ ____
ROOT
ATOM      1  O4* UNL     1     -10.555  -5.025  25.007  0.00  0.00    +0.000 OA
ATOM      2  C2* UNL     1     -12.355  -6.346  24.430  0.00  0.00    +0.000 A 
ATOM      3  C3* UNL     1     -12.050  -6.577  25.809  0.00  0.00    +0.000 A 
ATOM      4  C4* UNL     1     -10.936  -5.741  26.155  0.00  0.00    +0.000 A 
ATOM      5  C1* UNL     1     -11.396  -5.388  23.934  0.00  0.00    +0.000 A 
ENDROOT
BRANCH   5   6
ATOM      6  N   UNL     1     -11.202  -4.886  22.682  0.00  0.00    +0.000 N 
ATOM      7  C   UNL     1     -11.849  -3.804  22.098  0.00  0.00    +0.000 A 
ATOM      8  O   UNL     1     -12.737  -3.162  22.655  0.00  0.00    +0.000 OA
ATOM      9  N   UNL     1     -11.432  -3.496  20.806  0.00  0.00    +0.000 NA
ATOM     10  C   UNL     1     -10.499  -4.204  20.222  0.00  0.00    +0.000 A 
ATOM     11  N   UNL     1      -9.879  -5.299  20.798  0.00  0.00    +0.000 NA
ATOM     12  C   UNL     1     -10.303  -5.443  21.874  0.00  0.00    +0.000 A 
ATOM     13  N   UNL     1     -10.122  -3.864  18.963  0.00  0.00    +0.000 N 
ATOM     14  H   UNL     1      -9.736  -4.626  18.422  0.00  0.00    +0.000 HD
ATOM     15  H   UNL     1     -10.806  -3.298  18.474  0.00  0.00    +0.000 HD
ENDBRANCH   5   6
BRANCH   2  16
ATOM     16  O2* UNL     1     -12.928  -7.341  23.687  0.00  0.00    +0.000 OA
ATOM     17  H2* UNL     1     -13.903  -7.239  23.627  0.00  0.00    +0.000 HD
ENDBRANCH   2  16
BRANCH   3  18
ATOM     18  O3* UNL     1     -12.248  -7.803  26.381  0.00  0.00    +0.000 OA
ATOM     19  H3* UNL     1     -11.895  -8.501  25.798  0.00  0.00    +0.000 HD
ENDBRANCH   3  18
BRANCH   4  20
ATOM     20  C5* UNL     1     -10.121  -5.822  27.300  0.00  0.00    +0.000 C 
BRANCH  20  21
ATOM     21  O5* UNL     1      -9.349  -5.908  28.379  0.00  0.00    +0.000 OA
ATOM     22  H5* UNL     1      -8.496  -5.471  28.213  0.00  0.00    +0.000 HD
ENDBRANCH  20  21
ENDBRANCH   4  20
TORSDOF 5
ENDMDL
MODEL 4
REMARK VINA RESULT:      -4.7     14.606     16.423
REMARK  Name = 5azacytidine.pdbqt.pdb
REMARK  5 active torsions:
REMARK  status: ('A' for Active; 'I' for Inactive)
REMARK    1  A    between atoms: C2*_2  and  O2*_16
REMARK    2  A    between atoms: C3*_3  and  O3*_21
REMARK    3  A    between atoms: C4*_4  and  C5*_18
REMARK    4  A    between atoms: C1*_5  and  N_6
REMARK    5  A    between atoms: C5*_18  and  O5*_19
REMARK                            x       y       z     vdW  Elec       q    Type
REMARK                         _______ _______ _______ _____ _____    ______ ____
ROOT
ATOM      1  O4* UNL     1     -11.972 -17.589   9.162  0.00  0.00    +0.000 OA
ATOM      2  C2* UNL     1     -10.455 -15.928   9.671  0.00  0.00    +0.000 A 
ATOM      3  C3* UNL     1      -9.959 -16.665   8.548  0.00  0.00    +0.000 A 
ATOM      4  C4* UNL     1     -10.918 -17.686   8.238  0.00  0.00    +0.000 A 
ATOM      5  C1* UNL     1     -11.706 -16.533  10.059  0.00  0.00    +0.000 A 
ENDROOT
BRANCH   5   6
ATOM      6  N   UNL     1     -12.543 -16.262  11.101  0.00  0.00    +0.000 N 
ATOM      7  C   UNL     1     -13.823 -15.726  11.036  0.00  0.00    +0.000 A 
ATOM      8  O   UNL     1     -14.366 -15.387   9.987  0.00  0.00    +0.000 OA
ATOM      9  N   UNL     1     -14.461 -15.577  12.265  0.00  0.00    +0.000 NA
ATOM     10  C   UNL     1     -13.859 -15.926  13.374  0.00  0.00    +0.000 A 
ATOM     11  N   UNL     1     -12.572 -16.431  13.434  0.00  0.00    +0.000 NA
ATOM     12  C   UNL     1     -12.156 -16.519  12.348  0.00  0.00    +0.000 A 
ATOM     13  N   UNL     1     -14.522 -15.765  14.547  0.00  0.00    +0.000 N 
ATOM     14  H   UNL     1     -13.923 -15.653  15.354  0.00  0.00    +0.000 HD
ATOM     15  H   UNL     1     -15.291 -15.108  14.492  0.00  0.00    +0.000 HD
ENDBRANCH   5   6
BRANCH   2  16
ATOM     16  O2* UNL     1      -9.576 -15.322  10.526  0.00  0.00    +0.000 OA
ATOM     17  H2* UNL     1      -9.907 -14.451  10.836  0.00  0.00    +0.000 HD
ENDBRANCH   2  16
BRANCH   3  18
ATOM     18  O3* UNL     1      -8.616 -16.840   8.357  0.00  0.00    +0.000 OA
ATOM     19  H3* UNL     1      -8.332 -17.682   8.759  0.00  0.00    +0.000 HD
ENDBRANCH   3  18
BRANCH   4  20
ATOM     20  C5* UNL     1     -10.742 -18.808   7.407  0.00  0.00    +0.000 C 
BRANCH  20  21
ATOM     21  O5* UNL     1     -10.571 -19.863   6.615  0.00  0.00    +0.000 OA
ATOM     22  H5* UNL     1      -9.621 -20.045   6.506  0.00  0.00    +0.000 HD
ENDBRANCH  20  21
ENDBRANCH   4  20
TORSDOF 5
ENDMDL
MODEL 5
REMARK VINA RESULT:      -4.7     17.022     18.823
REMARK  Name = 5azacytidine.pdbqt.pdb
REMARK  5 active torsions:
REMARK  status: ('A' for Active; 'I' for Inactive)
REMARK    1  A    between atoms: C2*_2  and  O2*_16
REMARK    2  A    between atoms: C3*_3  and  O3*_21
REMARK    3  A    between atoms: C4*_4  and  C5*_18
REMARK    4  A    between atoms: C1*_5  and  N_6
REMARK    5  A    between atoms: C5*_18  and  O5*_19
REMARK                            x       y       z     vdW  Elec       q    Type
REMARK                         _______ _______ _______ _____ _____    ______ ____
ROOT
ATOM      1  O4* UNL     1     -20.838  -6.262   7.715  0.00  0.00    +0.000 OA
ATOM      2  C2* UNL     1     -22.170  -5.759   9.530  0.00  0.00    +0.000 A 
ATOM      3  C3* UNL     1     -20.957  -5.008   9.639  0.00  0.00    +0.000 A 
ATOM      4  C4* UNL     1     -20.145  -5.324   8.498  0.00  0.00    +0.000 A 
ATOM      5  C1* UNL     1     -22.073  -6.558   8.332  0.00  0.00    +0.000 A 
ENDROOT
BRANCH   5   6
ATOM      6  N   UNL     1     -22.917  -7.492   7.810  0.00  0.00    +0.000 N 
ATOM      7  C   UNL     1     -23.396  -8.638   8.433  0.00  0.00    +0.000 A 
ATOM      8  O   UNL     1     -23.073  -8.979   9.569  0.00  0.00    +0.000 OA
ATOM      9  N   UNL     1     -24.268  -9.405   7.665  0.00  0.00    +0.000 NA
ATOM     10  C   UNL     1     -24.584  -9.036   6.449  0.00  0.00    +0.000 A 
ATOM     11  N   UNL     1     -24.081  -7.908   5.824  0.00  0.00    +0.000 NA
ATOM     12  C   UNL     1     -23.379  -7.351   6.570  0.00  0.00    +0.000 A 
ATOM     13  N   UNL     1     -25.442  -9.813   5.741  0.00  0.00    +0.000 N 
ATOM     14  H   UNL     1     -25.342  -9.738   4.737  0.00  0.00    +0.000 HD
ATOM     15  H   UNL     1     -25.516 -10.760   6.092  0.00  0.00    +0.000 HD
ENDBRANCH   5   6
BRANCH   2  16
ATOM     16  O2* UNL     1     -22.848  -6.120  10.662  0.00  0.00    +0.000 OA
ATOM     17  H2* UNL     1     -22.633  -7.037  10.942  0.00  0.00    +0.000 HD
ENDBRANCH   2  16
BRANCH   3  18
ATOM     18  O3* UNL     1     -20.418  -4.710  10.860  0.00  0.00    +0.000 OA
ATOM     19  H3* UNL     1     -20.098  -5.526  11.288  0.00  0.00    +0.000 HD
ENDBRANCH   3  18
BRANCH   4  20
ATOM     20  C5* UNL     1     -18.777  -5.048   8.313  0.00  0.00    +0.000 C 
BRANCH  20  21
ATOM     21  O5* UNL     1     -17.483  -4.794   8.145  0.00  0.00    +0.000 OA
ATOM     22  H5* UNL     1     -17.338  -4.354   7.289  0.00  0.00    +0.000 HD
ENDBRANCH  20  21
ENDBRANCH   4  20
TORSDOF 5
ENDMDL
MODEL 6
REMARK VINA RESULT:      -4.7      2.767      5.651
REMARK  Name = 5azacytidine.pdbqt.pdb
REMARK  5 active torsions:
REMARK  status: ('A' for Active; 'I' for Inactive)
REMARK    1  A    between atoms: C2*_2  and  O2*_16
REMARK    2  A    between atoms: C3*_3  and  O3*_21
REMARK    3  A    between atoms: C4*_4  and  C5*_18
REMARK    4  A    between atoms: C1*_5  and  N_6
REMARK    5  A    between atoms: C5*_18  and  O5*_19
REMARK                            x       y       z     vdW  Elec       q    Type
REMARK                         _______ _______ _______ _____ _____    ______ ____
ROOT
ATOM      1  O4* UNL     1     -10.032  -6.098  25.048  0.00  0.00    +0.000 OA
ATOM      2  C2* UNL     1     -11.597  -5.619  23.422  0.00  0.00    +0.000 A 
ATOM      3  C3* UNL     1     -12.177  -6.542  24.349  0.00  0.00    +0.000 A 
ATOM      4  C4* UNL     1     -11.196  -6.822  25.359  0.00  0.00    +0.000 A 
ATOM      5  C1* UNL     1     -10.245  -5.367  23.859  0.00  0.00    +0.000 A 
ENDROOT
BRANCH   5   6
ATOM      6  N   UNL     1      -9.249  -4.626  23.298  0.00  0.00    +0.000 N 
ATOM      7  C   UNL     1      -8.927  -4.529  21.949  0.00  0.00    +0.000 A 
ATOM      8  O   UNL     1      -9.509  -5.154  21.065  0.00  0.00    +0.000 OA
ATOM      9  N   UNL     1      -7.868  -3.674  21.657  0.00  0.00    +0.000 NA
ATOM     10  C   UNL     1      -7.247  -3.033  22.614  0.00  0.00    +0.000 A 
ATOM     11  N   UNL     1      -7.553  -3.156  23.958  0.00  0.00    +0.000 NA
ATOM     12  C   UNL     1      -8.457  -3.883  24.068  0.00  0.00    +0.000 A 
ATOM     13  N   UNL     1      -6.222  -2.207  22.280  0.00  0.00    +0.000 N 
ATOM     14  H   UNL     1      -5.542  -2.066  23.015  0.00  0.00    +0.000 HD
ATOM     15  H   UNL     1      -5.829  -2.398  21.366  0.00  0.00    +0.000 HD
ENDBRANCH   5   6
BRANCH   2  16
ATOM     16  O2* UNL     1     -12.016  -5.612  22.121  0.00  0.00    +0.000 OA
ATOM     17  H2* UNL     1     -11.507  -4.974  21.574  0.00  0.00    +0.000 HD
ENDBRANCH   2  16
BRANCH   3  18
ATOM     18  O3* UNL     1     -13.090  -7.474  23.940  0.00  0.00    +0.000 OA
ATOM     19  H3* UNL     1     -13.182  -7.443  22.969  0.00  0.00    +0.000 HD
ENDBRANCH   3  18
BRANCH   4  20
ATOM     20  C5* UNL     1     -11.209  -7.862  26.307  0.00  0.00    +0.000 C 
BRANCH  20  21
ATOM     21  O5* UNL     1     -11.213  -8.839  27.209  0.00  0.00    +0.000 OA
ATOM     22  H5* UNL     1     -12.090  -9.260  27.238  0.00  0.00    +0.000 HD
ENDBRANCH  20  21
ENDBRANCH   4  20
TORSDOF 5
ENDMDL
MODEL 7
REMARK VINA RESULT:      -4.7      3.301      5.916
REMARK  Name = 5azacytidine.pdbqt.pdb
REMARK  5 active torsions:
REMARK  status: ('A' for Active; 'I' for Inactive)
REMARK    1  A    between atoms: C2*_2  and  O2*_16
REMARK    2  A    between atoms: C3*_3  and  O3*_21
REMARK    3  A    between atoms: C4*_4  and  C5*_18
REMARK    4  A    between atoms: C1*_5  and  N_6
REMARK    5  A    between atoms: C5*_18  and  O5*_19
REMARK                            x       y       z     vdW  Elec       q    Type
REMARK                         _______ _______ _______ _____ _____    ______ ____
ROOT
ATOM      1  O4* UNL     1     -12.086  -2.980  21.954  0.00  0.00    +0.000 OA
ATOM      2  C2* UNL     1     -10.090  -2.365  22.932  0.00  0.00    +0.000 A 
ATOM      3  C3* UNL     1     -11.162  -1.887  23.753  0.00  0.00    +0.000 A 
ATOM      4  C4* UNL     1     -12.394  -2.286  23.136  0.00  0.00    +0.000 A 
ATOM      5  C1* UNL     1     -10.685  -3.028  21.797  0.00  0.00    +0.000 A 
ENDROOT
BRANCH   5   6
ATOM      6  N   UNL     1     -10.116  -3.591  20.694  0.00  0.00    +0.000 N 
ATOM      7  C   UNL     1      -8.900  -4.259  20.620  0.00  0.00    +0.000 A 
ATOM      8  O   UNL     1      -8.142  -4.399  21.577  0.00  0.00    +0.000 OA
ATOM      9  N   UNL     1      -8.576  -4.755  19.359  0.00  0.00    +0.000 NA
ATOM     10  C   UNL     1      -9.387  -4.577  18.346  0.00  0.00    +0.000 A 
ATOM     11  N   UNL     1     -10.583  -3.885  18.420  0.00  0.00    +0.000 NA
ATOM     12  C   UNL     1     -10.743  -3.536  19.521  0.00  0.00    +0.000 A 
ATOM     13  N   UNL     1      -9.031  -5.082  17.138  0.00  0.00    +0.000 N 
ATOM     14  H   UNL     1      -9.438  -4.601  16.347  0.00  0.00    +0.000 HD
ATOM     15  H   UNL     1      -8.039  -5.274  17.055  0.00  0.00    +0.000 HD
ENDBRANCH   5   6
BRANCH   2  16
ATOM     16  O2* UNL     1      -8.899  -1.695  22.916  0.00  0.00    +0.000 OA
ATOM     17  H2* UNL     1      -8.133  -2.306  22.988  0.00  0.00    +0.000 HD
ENDBRANCH   2  16
BRANCH   3  18
ATOM     18  O3* UNL     1     -11.042  -0.725  24.463  0.00  0.00    +0.000 OA
ATOM     19  H3* UNL     1     -11.638  -0.048  24.092  0.00  0.00    +0.000 HD
ENDBRANCH   3  18
BRANCH   4  20
ATOM     20  C5* UNL     1     -13.691  -1.818  23.422  0.00  0.00    +0.000 C 
BRANCH  20  21
ATOM     21  O5* UNL     1     -14.918  -1.386  23.696  0.00  0.00    +0.000 OA
ATOM     22  H5* UNL     1     -15.148  -0.644  23.110  0.00  0.00    +0.000 HD
ENDBRANCH  20  21
ENDBRANCH   4  20
TORSDOF 5
ENDMDL
MODEL 8
REMARK VINA RESULT:      -4.6     15.203     16.575
REMARK  Name = 5azacytidine.pdbqt.pdb
REMARK  5 active torsions:
REMARK  status: ('A' for Active; 'I' for Inactive)
REMARK    1  A    between atoms: C2*_2  and  O2*_16
REMARK    2  A    between atoms: C3*_3  and  O3*_21
REMARK    3  A    between atoms: C4*_4  and  C5*_18
REMARK    4  A    between atoms: C1*_5  and  N_6
REMARK    5  A    between atoms: C5*_18  and  O5*_19
REMARK                            x       y       z     vdW  Elec       q    Type
REMARK                         _______ _______ _______ _____ _____    ______ ____
ROOT
ATOM      1  O4* UNL     1     -23.455  -7.099  10.552  0.00  0.00    +0.000 OA
ATOM      2  C2* UNL     1     -21.815  -5.504  10.844  0.00  0.00    +0.000 A 
ATOM      3  C3* UNL     1     -21.809  -5.911   9.472  0.00  0.00    +0.000 A 
ATOM      4  C4* UNL     1     -22.841  -6.894   9.305  0.00  0.00    +0.000 A 
ATOM      5  C1* UNL     1     -22.836  -6.272  11.514  0.00  0.00    +0.000 A 
ENDROOT
BRANCH   5   6
ATOM      6  N   UNL     1     -23.199  -6.321  12.827  0.00  0.00    +0.000 N 
ATOM      7  C   UNL     1     -22.396  -6.650  13.912  0.00  0.00    +0.000 A 
ATOM      8  O   UNL     1     -21.218  -6.983  13.810  0.00  0.00    +0.000 OA
ATOM      9  N   UNL     1     -23.031  -6.596  15.151  0.00  0.00    +0.000 NA
ATOM     10  C   UNL     1     -24.293  -6.260  15.238  0.00  0.00    +0.000 A 
ATOM     11  N   UNL     1     -25.095  -5.962  14.150  0.00  0.00    +0.000 NA
ATOM     12  C   UNL     1     -24.448  -6.029  13.182  0.00  0.00    +0.000 A 
ATOM     13  N   UNL     1     -24.867  -6.217  16.467  0.00  0.00    +0.000 N 
ATOM     14  H   UNL     1     -25.868  -6.358  16.466  0.00  0.00    +0.000 HD
ATOM     15  H   UNL     1     -24.363  -6.746  17.168  0.00  0.00    +0.000 HD
ENDBRANCH   5   6
BRANCH   2  16
ATOM     16  O2* UNL     1     -20.658  -5.059  11.424  0.00  0.00    +0.000 OA
ATOM     17  H2* UNL     1     -20.810  -4.721  12.333  0.00  0.00    +0.000 HD
ENDBRANCH   2  16
BRANCH   3  18
ATOM     18  O3* UNL     1     -20.649  -5.939   8.748  0.00  0.00    +0.000 OA
ATOM     19  H3* UNL     1     -20.528  -5.089   8.285  0.00  0.00    +0.000 HD
ENDBRANCH   3  18
BRANCH   4  20
ATOM     20  C5* UNL     1     -23.030  -7.768   8.217  0.00  0.00    +0.000 C 
BRANCH  20  21
ATOM     21  O5* UNL     1     -23.198  -8.596   7.191  0.00  0.00    +0.000 OA
ATOM     22  H5* UNL     1     -23.884  -9.253   7.402  0.00  0.00    +0.000 HD
ENDBRANCH  20  21
ENDBRANCH   4  20
TORSDOF 5
ENDMDL
MODEL 9
REMARK VINA RESULT:      -4.6     12.495     14.261
REMARK  Name = 5azacytidine.pdbqt.pdb
REMARK  5 active torsions:
REMARK  status: ('A' for Active; 'I' for Inactive)
REMARK    1  A    between atoms: C2*_2  and  O2*_16
REMARK    2  A    between atoms: C3*_3  and  O3*_21
REMARK    3  A    between atoms: C4*_4  and  C5*_18
REMARK    4  A    between atoms: C1*_5  and  N_6
REMARK    5  A    between atoms: C5*_18  and  O5*_19
REMARK                            x       y       z     vdW  Elec       q    Type
REMARK                         _______ _______ _______ _____ _____    ______ ____
ROOT
ATOM      1  O4* UNL     1     -16.880   7.213  14.629  0.00  0.00    +0.000 OA
ATOM      2  C2* UNL     1     -14.976   6.171  13.849  0.00  0.00    +0.000 A 
ATOM      3  C3* UNL     1     -15.290   7.256  12.969  0.00  0.00    +0.000 A 
ATOM      4  C4* UNL     1     -16.469   7.900  13.474  0.00  0.00    +0.000 A 
ATOM      5  C1* UNL     1     -15.993   6.142  14.871  0.00  0.00    +0.000 A 
ENDROOT
BRANCH   5   6
ATOM      6  N   UNL     1     -16.200   5.273  15.900  0.00  0.00    +0.000 N 
ATOM      7  C   UNL     1     -15.282   4.871  16.862  0.00  0.00    +0.000 A 
ATOM      8  O   UNL     1     -14.111   5.244  16.882  0.00  0.00    +0.000 OA
ATOM      9  N   UNL     1     -15.777   3.984  17.815  0.00  0.00    +0.000 NA
ATOM     10  C   UNL     1     -17.022   3.582  17.765  0.00  0.00    +0.000 A 
ATOM     11  N   UNL     1     -17.924   3.963  16.787  0.00  0.00    +0.000 NA
ATOM     12  C   UNL     1     -17.395   4.710  16.065  0.00  0.00    +0.000 A 
ATOM     13  N   UNL     1     -17.461   2.720  18.717  0.00  0.00    +0.000 N 
ATOM     14  H   UNL     1     -18.240   2.142  18.432  0.00  0.00    +0.000 HD
ATOM     15  H   UNL     1     -16.715   2.225  19.192  0.00  0.00    +0.000 HD
ENDBRANCH   5   6
BRANCH   2  16
ATOM     16  O2* UNL     1     -14.317   5.075  13.364  0.00  0.00    +0.000 OA
ATOM     17  H2* UNL     1     -14.471   4.950  12.402  0.00  0.00    +0.000 HD
ENDBRANCH   2  16
BRANCH   3  18
ATOM     18  O3* UNL     1     -15.012   7.184  11.632  0.00  0.00    +0.000 OA
ATOM     19  H3* UNL     1     -15.202   8.041  11.208  0.00  0.00    +0.000 HD
ENDBRANCH   3  18
BRANCH   4  20
ATOM     20  C5* UNL     1     -17.297   8.824  12.809  0.00  0.00    +0.000 C 
BRANCH  20  21
ATOM     21  O5* UNL     1     -18.071   9.702  12.179  0.00  0.00    +0.000 OA
ATOM     22  H5* UNL     1     -18.294  10.437  12.776  0.00  0.00    +0.000 HD
ENDBRANCH  20  21
ENDBRANCH   4  20
TORSDOF 5
ENDMDL
