MODEL 1
REMARK VINA RESULT:      -6.1      0.000      0.000
REMARK  Name = 60953_Capecitabine.pdbqt.pdb
REMARK  6 active torsions:
REMARK  status: ('A' for Active; 'I' for Inactive)
REMARK    1  A    between atoms: N_4  and  C_16
REMARK    2  A    between atoms: C_11  and  O_23
REMARK    3  A    between atoms: C_14  and  O_19
REMARK    4  A    between atoms: C_15  and  O_21
REMARK    5  A    between atoms: O_23  and  C_24
REMARK    6  A    between atoms: C_25  and  C_26
REMARK                            x       y       z     vdW  Elec       q    Type
REMARK                         _______ _______ _______ _____ _____    ______ ____
ROOT
ATOM      1  F   UNL     1     -11.644  -6.459  23.931  0.00  0.00    +0.000 F 
ATOM      2  O   UNL     1      -7.275  -3.849  22.259  0.00  0.00    +0.000 OA
ATOM      3  O   UNL     1      -7.751  -5.099  26.739  0.00  0.00    +0.000 OA
ATOM      4  N   UNL     1      -9.421  -4.608  21.793  0.00  0.00    +0.000 N 
ATOM      5  N   UNL     1      -8.484  -4.716  24.000  0.00  0.00    +0.000 NA
ATOM      6  N   UNL     1      -9.770  -5.665  25.731  0.00  0.00    +0.000 N 
ATOM      7  C   UNL     1     -10.517  -5.157  22.355  0.00  0.00    +0.000 C 
ATOM      8  C   UNL     1      -8.324  -4.351  22.656  0.00  0.00    +0.000 C 
ATOM      9  C   UNL     1     -10.794  -5.484  23.568  0.00  0.00    +0.000 C 
ATOM     10  C   UNL     1      -9.590  -5.249  24.427  0.00  0.00    +0.000 C 
ATOM     11  C   UNL     1      -8.869  -5.591  26.769  0.00  0.00    +0.000 C 
ATOM     12  H   UNL     1     -10.646  -6.102  25.979  0.00  0.00    +0.000 HD
ENDROOT
BRANCH   4  16
ATOM     13  O   UNL     1     -10.205  -3.227  19.967  0.00  0.00    +0.000 OA
ATOM     14  C   UNL     1      -8.871  -4.993  19.316  0.00  0.00    +0.000 A 
ATOM     15  C   UNL     1      -9.312  -4.305  18.141  0.00  0.00    +0.000 A 
ATOM     16  C   UNL     1      -9.460  -4.324  20.453  0.00  0.00    +0.000 A 
ATOM     17  C   UNL     1     -10.130  -3.202  18.565  0.00  0.00    +0.000 A 
ATOM     18  C   UNL     1     -11.039  -2.309  17.794  0.00  0.00    +0.000 C 
BRANCH  14  19
ATOM     19  O   UNL     1      -8.588  -6.328  19.247  0.00  0.00    +0.000 OA
ATOM     20  H   UNL     1      -8.473  -6.635  18.320  0.00  0.00    +0.000 HD
ENDBRANCH  14  19
BRANCH  15  21
ATOM     21  O   UNL     1      -9.491  -4.971  16.957  0.00  0.00    +0.000 OA
ATOM     22  H   UNL     1     -10.081  -4.466  16.367  0.00  0.00    +0.000 HD
ENDBRANCH  15  21
ENDBRANCH   4  16
BRANCH  11  23
ATOM     23  O   UNL     1      -9.439  -6.155  27.876  0.00  0.00    +0.000 OA
BRANCH  23  24
ATOM     24  C   UNL     1      -9.436  -7.486  27.914  0.00  0.00    +0.000 C 
ATOM     25  C   UNL     1      -9.434  -9.018  27.960  0.00  0.00    +0.000 C 
BRANCH  25  26
ATOM     26  C   UNL     1      -9.431 -10.548  28.008  0.00  0.00    +0.000 C 
ATOM     27  C   UNL     1      -9.421 -12.079  28.053  0.00  0.00    +0.000 C 
ATOM     28  C   UNL     1      -9.398 -13.610  28.096  0.00  0.00    +0.000 C 
ENDBRANCH  25  26
ENDBRANCH  23  24
ENDBRANCH  11  23
TORSDOF 6
ENDMDL
MODEL 2
REMARK VINA RESULT:      -5.9      2.738      8.987
REMARK  Name = 60953_Capecitabine.pdbqt.pdb
REMARK  6 active torsions:
REMARK  status: ('A' for Active; 'I' for Inactive)
REMARK    1  A    between atoms: N_4  and  C_16
REMARK    2  A    between atoms: C_11  and  O_23
REMARK    3  A    between atoms: C_14  and  O_19
REMARK    4  A    between atoms: C_15  and  O_21
REMARK    5  A    between atoms: O_23  and  C_24
REMARK    6  A    between atoms: C_25  and  C_26
REMARK                            x       y       z     vdW  Elec       q    Type
REMARK                         _______ _______ _______ _____ _____    ______ ____
ROOT
ATOM      1  F   UNL     1      -8.676  -5.652  24.017  0.00  0.00    +0.000 F 
ATOM      2  O   UNL     1     -12.851  -8.168  26.238  0.00  0.00    +0.000 OA
ATOM      3  O   UNL     1     -13.500  -4.740  23.126  0.00  0.00    +0.000 OA
ATOM      4  N   UNL     1     -10.558  -7.796  26.208  0.00  0.00    +0.000 N 
ATOM      5  N   UNL     1     -12.078  -6.484  24.893  0.00  0.00    +0.000 NA
ATOM      6  N   UNL     1     -11.203  -4.801  23.496  0.00  0.00    +0.000 N 
ATOM      7  C   UNL     1      -9.599  -7.013  25.674  0.00  0.00    +0.000 C 
ATOM      8  C   UNL     1     -11.894  -7.524  25.815  0.00  0.00    +0.000 C 
ATOM      9  C   UNL     1      -9.651  -6.011  24.869  0.00  0.00    +0.000 C 
ATOM     10  C   UNL     1     -11.070  -5.800  24.438  0.00  0.00    +0.000 C 
ATOM     11  C   UNL     1     -12.362  -4.358  22.898  0.00  0.00    +0.000 C 
ATOM     12  H   UNL     1     -10.369  -4.337  23.166  0.00  0.00    +0.000 HD
ENDROOT
BRANCH   4  16
ATOM     13  O   UNL     1     -10.000 -10.104  26.676  0.00  0.00    +0.000 OA
ATOM     14  C   UNL     1      -9.915  -8.716  28.516  0.00  0.00    +0.000 A 
ATOM     15  C   UNL     1      -9.628 -10.051  28.945  0.00  0.00    +0.000 A 
ATOM     16  C   UNL     1     -10.174  -8.767  27.095  0.00  0.00    +0.000 A 
ATOM     17  C   UNL     1      -9.672 -10.899  27.785  0.00  0.00    +0.000 A 
ATOM     18  C   UNL     1      -9.698 -12.384  27.663  0.00  0.00    +0.000 C 
BRANCH  14  19
ATOM     19  O   UNL     1     -10.489  -7.838  29.391  0.00  0.00    +0.000 OA
ATOM     20  H   UNL     1     -11.456  -7.991  29.489  0.00  0.00    +0.000 HD
ENDBRANCH  14  19
BRANCH  15  21
ATOM     21  O   UNL     1      -9.954 -10.473  30.207  0.00  0.00    +0.000 OA
ATOM     22  H   UNL     1      -9.274 -10.190  30.847  0.00  0.00    +0.000 HD
ENDBRANCH  15  21
ENDBRANCH   4  16
BRANCH  11  23
ATOM     23  O   UNL     1     -12.037  -3.385  21.994  0.00  0.00    +0.000 OA
BRANCH  23  24
ATOM     24  C   UNL     1     -11.254  -3.769  20.988  0.00  0.00    +0.000 C 
ATOM     25  C   UNL     1     -10.352  -4.211  19.831  0.00  0.00    +0.000 C 
BRANCH  25  26
ATOM     26  C   UNL     1      -9.448  -4.650  18.675  0.00  0.00    +0.000 C 
ATOM     27  C   UNL     1      -8.549  -5.086  17.515  0.00  0.00    +0.000 C 
ATOM     28  C   UNL     1      -7.653  -5.513  16.347  0.00  0.00    +0.000 C 
ENDBRANCH  25  26
ENDBRANCH  23  24
ENDBRANCH  11  23
TORSDOF 6
ENDMDL
MODEL 3
REMARK VINA RESULT:      -5.5     20.065     23.473
REMARK  Name = 60953_Capecitabine.pdbqt.pdb
REMARK  6 active torsions:
REMARK  status: ('A' for Active; 'I' for Inactive)
REMARK    1  A    between atoms: N_4  and  C_16
REMARK    2  A    between atoms: C_11  and  O_23
REMARK    3  A    between atoms: C_14  and  O_19
REMARK    4  A    between atoms: C_15  and  O_21
REMARK    5  A    between atoms: O_23  and  C_24
REMARK    6  A    between atoms: C_25  and  C_26
REMARK                            x       y       z     vdW  Elec       q    Type
REMARK                         _______ _______ _______ _____ _____    ______ ____
ROOT
ATOM      1  F   UNL     1     -14.877 -12.003   1.000  0.00  0.00    +0.000 F 
ATOM      2  O   UNL     1     -12.774 -14.268   5.375  0.00  0.00    +0.000 OA
ATOM      3  O   UNL     1     -10.161 -13.528   1.570  0.00  0.00    +0.000 OA
ATOM      4  N   UNL     1     -14.668 -13.536   4.248  0.00  0.00    +0.000 N 
ATOM      5  N   UNL     1     -12.517 -13.636   3.189  0.00  0.00    +0.000 NA
ATOM      6  N   UNL     1     -12.321 -12.925   0.952  0.00  0.00    +0.000 N 
ATOM      7  C   UNL     1     -15.108 -13.089   3.054  0.00  0.00    +0.000 C 
ATOM      8  C   UNL     1     -13.287 -13.848   4.341  0.00  0.00    +0.000 C 
ATOM      9  C   UNL     1     -14.513 -12.905   1.928  0.00  0.00    +0.000 C 
ATOM     10  C   UNL     1     -13.052 -13.190   2.092  0.00  0.00    +0.000 C 
ATOM     11  C   UNL     1     -10.966 -13.080   0.767  0.00  0.00    +0.000 C 
ATOM     12  H   UNL     1     -12.804 -12.547   0.149  0.00  0.00    +0.000 HD
ENDROOT
BRANCH   4  16
ATOM     13  O   UNL     1     -16.572 -14.682   5.208  0.00  0.00    +0.000 OA
ATOM     14  C   UNL     1     -15.795 -12.913   6.468  0.00  0.00    +0.000 A 
ATOM     15  C   UNL     1     -16.951 -13.453   7.115  0.00  0.00    +0.000 A 
ATOM     16  C   UNL     1     -15.583 -13.674   5.258  0.00  0.00    +0.000 A 
ATOM     17  C   UNL     1     -17.414 -14.561   6.324  0.00  0.00    +0.000 A 
ATOM     18  C   UNL     1     -18.689 -15.329   6.373  0.00  0.00    +0.000 C 
BRANCH  14  19
ATOM     19  O   UNL     1     -15.490 -11.591   6.631  0.00  0.00    +0.000 OA
ATOM     20  H   UNL     1     -16.037 -11.168   7.330  0.00  0.00    +0.000 HD
ENDBRANCH  14  19
BRANCH  15  21
ATOM     21  O   UNL     1     -17.778 -12.658   7.865  0.00  0.00    +0.000 OA
ATOM     22  H   UNL     1     -18.561 -12.395   7.345  0.00  0.00    +0.000 HD
ENDBRANCH  15  21
ENDBRANCH   4  16
BRANCH  11  23
ATOM     23  O   UNL     1     -10.651 -12.659  -0.495  0.00  0.00    +0.000 OA
BRANCH  23  24
ATOM     24  C   UNL     1     -10.865 -11.369  -0.744  0.00  0.00    +0.000 C 
ATOM     25  C   UNL     1     -11.111  -9.884  -1.029  0.00  0.00    +0.000 C 
BRANCH  25  26
ATOM     26  C   UNL     1     -11.357  -8.399  -1.312  0.00  0.00    +0.000 C 
ATOM     27  C   UNL     1     -11.597  -6.914  -1.596  0.00  0.00    +0.000 C 
ATOM     28  C   UNL     1     -11.825  -5.426  -1.887  0.00  0.00    +0.000 C 
ENDBRANCH  25  26
ENDBRANCH  23  24
ENDBRANCH  11  23
TORSDOF 6
ENDMDL
MODEL 4
REMARK VINA RESULT:      -5.5     11.597     12.819
REMARK  Name = 60953_Capecitabine.pdbqt.pdb
REMARK  6 active torsions:
REMARK  status: ('A' for Active; 'I' for Inactive)
REMARK    1  A    between atoms: N_4  and  C_16
REMARK    2  A    between atoms: C_11  and  O_23
REMARK    3  A    between atoms: C_14  and  O_19
REMARK    4  A    between atoms: C_15  and  O_21
REMARK    5  A    between atoms: O_23  and  C_24
REMARK    6  A    between atoms: C_25  and  C_26
REMARK                            x       y       z     vdW  Elec       q    Type
REMARK                         _______ _______ _______ _____ _____    ______ ____
ROOT
ATOM      1  F   UNL     1      -3.452 -15.474  23.274  0.00  0.00    +0.000 F 
ATOM      2  O   UNL     1      -2.575 -13.747  18.279  0.00  0.00    +0.000 OA
ATOM      3  O   UNL     1      -6.697 -15.591  19.486  0.00  0.00    +0.000 OA
ATOM      4  N   UNL     1      -1.708 -14.247  20.376  0.00  0.00    +0.000 N 
ATOM      5  N   UNL     1      -3.960 -14.807  19.762  0.00  0.00    +0.000 NA
ATOM      6  N   UNL     1      -5.340 -15.855  21.358  0.00  0.00    +0.000 N 
ATOM      7  C   UNL     1      -2.008 -14.821  21.558  0.00  0.00    +0.000 C 
ATOM      8  C   UNL     1      -2.733 -14.239  19.394  0.00  0.00    +0.000 C 
ATOM      9  C   UNL     1      -3.067 -15.413  21.988  0.00  0.00    +0.000 C 
ATOM     10  C   UNL     1      -4.136 -15.327  20.941  0.00  0.00    +0.000 C 
ATOM     11  C   UNL     1      -6.516 -15.935  20.645  0.00  0.00    +0.000 C 
ATOM     12  H   UNL     1      -5.409 -16.209  22.302  0.00  0.00    +0.000 HD
ENDROOT
BRANCH   4  16
ATOM     13  O   UNL     1      -0.037 -12.574  20.891  0.00  0.00    +0.000 OA
ATOM     14  C   UNL     1       0.655 -14.172  19.379  0.00  0.00    +0.000 A 
ATOM     15  C   UNL     1       1.711 -13.219  19.541  0.00  0.00    +0.000 A 
ATOM     16  C   UNL     1      -0.445 -13.742  20.210  0.00  0.00    +0.000 A 
ATOM     17  C   UNL     1       1.268 -12.240  20.495  0.00  0.00    +0.000 A 
ATOM     18  C   UNL     1       1.832 -10.910  20.861  0.00  0.00    +0.000 C 
BRANCH  14  19
ATOM     19  O   UNL     1       0.534 -14.846  18.197  0.00  0.00    +0.000 OA
ATOM     20  H   UNL     1       0.355 -15.803  18.332  0.00  0.00    +0.000 HD
ENDBRANCH  14  19
BRANCH  15  21
ATOM     21  O   UNL     1       2.578 -12.944  18.517  0.00  0.00    +0.000 OA
ATOM     22  H   UNL     1       2.654 -13.712  17.919  0.00  0.00    +0.000 HD
ENDBRANCH  15  21
ENDBRANCH   4  16
BRANCH  11  23
ATOM     23  O   UNL     1      -7.472 -16.487  21.450  0.00  0.00    +0.000 OA
BRANCH  23  24
ATOM     24  C   UNL     1      -8.430 -17.170  20.826  0.00  0.00    +0.000 C 
ATOM     25  C   UNL     1      -9.533 -17.957  20.110  0.00  0.00    +0.000 C 
BRANCH  25  26
ATOM     26  C   UNL     1     -10.637 -18.743  19.397  0.00  0.00    +0.000 C 
ATOM     27  C   UNL     1     -11.742 -19.524  18.681  0.00  0.00    +0.000 C 
ATOM     28  C   UNL     1     -12.851 -20.295  17.956  0.00  0.00    +0.000 C 
ENDBRANCH  25  26
ENDBRANCH  23  24
ENDBRANCH  11  23
TORSDOF 6
ENDMDL
MODEL 5
REMARK VINA RESULT:      -5.4     18.307     19.769
REMARK  Name = 60953_Capecitabine.pdbqt.pdb
REMARK  6 active torsions:
REMARK  status: ('A' for Active; 'I' for Inactive)
REMARK    1  A    between atoms: N_4  and  C_16
REMARK    2  A    between atoms: C_11  and  O_23
REMARK    3  A    between atoms: C_14  and  O_19
REMARK    4  A    between atoms: C_15  and  O_21
REMARK    5  A    between atoms: O_23  and  C_24
REMARK    6  A    between atoms: C_25  and  C_26
REMARK                            x       y       z     vdW  Elec       q    Type
REMARK                         _______ _______ _______ _____ _____    ______ ____
ROOT
ATOM      1  F   UNL     1       2.550 -11.416  11.220  0.00  0.00    +0.000 F 
ATOM      2  O   UNL     1       6.946 -11.718  14.267  0.00  0.00    +0.000 OA
ATOM      3  O   UNL     1       3.871 -15.237  14.143  0.00  0.00    +0.000 OA
ATOM      4  N   UNL     1       5.557 -10.424  12.927  0.00  0.00    +0.000 N 
ATOM      5  N   UNL     1       4.953 -12.641  13.619  0.00  0.00    +0.000 NA
ATOM      6  N   UNL     1       2.907 -13.541  12.874  0.00  0.00    +0.000 N 
ATOM      7  C   UNL     1       4.364 -10.418  12.299  0.00  0.00    +0.000 C 
ATOM      8  C   UNL     1       5.889 -11.598  13.652  0.00  0.00    +0.000 C 
ATOM      9  C   UNL     1       3.414 -11.283  12.241  0.00  0.00    +0.000 C 
ATOM     10  C   UNL     1       3.833 -12.523  12.968  0.00  0.00    +0.000 C 
ATOM     11  C   UNL     1       2.983 -14.801  13.426  0.00  0.00    +0.000 C 
ATOM     12  H   UNL     1       2.076 -13.385  12.321  0.00  0.00    +0.000 HD
ENDROOT
BRANCH   4  16
ATOM     13  O   UNL     1       5.815  -8.029  13.166  0.00  0.00    +0.000 OA
ATOM     14  C   UNL     1       7.701  -9.115  12.402  0.00  0.00    +0.000 A 
ATOM     15  C   UNL     1       7.973  -7.710  12.434  0.00  0.00    +0.000 A 
ATOM     16  C   UNL     1       6.336  -9.300  12.837  0.00  0.00    +0.000 A 
ATOM     17  C   UNL     1       6.793  -7.052  12.925  0.00  0.00    +0.000 A 
ATOM     18  C   UNL     1       6.414  -5.611  12.937  0.00  0.00    +0.000 C 
BRANCH  14  19
ATOM     19  O   UNL     1       8.354  -9.905  11.499  0.00  0.00    +0.000 OA
ATOM     20  H   UNL     1       9.164  -9.473  11.145  0.00  0.00    +0.000 HD
ENDBRANCH  14  19
BRANCH  15  21
ATOM     21  O   UNL     1       8.849  -7.139  11.549  0.00  0.00    +0.000 OA
ATOM     22  H   UNL     1       9.231  -6.324  11.926  0.00  0.00    +0.000 HD
ENDBRANCH  15  21
ENDBRANCH   4  16
BRANCH  11  23
ATOM     23  O   UNL     1       1.873 -15.504  13.049  0.00  0.00    +0.000 OA
BRANCH  23  24
ATOM     24  C   UNL     1       2.102 -16.629  12.374  0.00  0.00    +0.000 C 
ATOM     25  C   UNL     1       2.363 -17.924  11.598  0.00  0.00    +0.000 C 
BRANCH  25  26
ATOM     26  C   UNL     1       2.623 -19.219  10.823  0.00  0.00    +0.000 C 
ATOM     27  C   UNL     1       2.885 -20.510  10.042  0.00  0.00    +0.000 C 
ATOM     28  C   UNL     1       3.157 -21.796   9.254  0.00  0.00    +0.000 C 
ENDBRANCH  25  26
ENDBRANCH  23  24
ENDBRANCH  11  23
TORSDOF 6
ENDMDL
MODEL 6
REMARK VINA RESULT:      -5.4     11.473     14.138
REMARK  Name = 60953_Capecitabine.pdbqt.pdb
REMARK  6 active torsions:
REMARK  status: ('A' for Active; 'I' for Inactive)
REMARK    1  A    between atoms: N_4  and  C_16
REMARK    2  A    between atoms: C_11  and  O_23
REMARK    3  A    between atoms: C_14  and  O_19
REMARK    4  A    between atoms: C_15  and  O_21
REMARK    5  A    between atoms: O_23  and  C_24
REMARK    6  A    between atoms: C_25  and  C_26
REMARK                            x       y       z     vdW  Elec       q    Type
REMARK                         _______ _______ _______ _____ _____    ______ ____
ROOT
ATOM      1  F   UNL     1      -2.356 -17.729  21.011  0.00  0.00    +0.000 F 
ATOM      2  O   UNL     1      -5.728 -13.794  19.653  0.00  0.00    +0.000 OA
ATOM      3  O   UNL     1      -1.107 -13.254  19.191  0.00  0.00    +0.000 OA
ATOM      4  N   UNL     1      -5.411 -15.861  20.665  0.00  0.00    +0.000 N 
ATOM      5  N   UNL     1      -3.569 -14.500  19.946  0.00  0.00    +0.000 NA
ATOM      6  N   UNL     1      -1.378 -15.314  20.238  0.00  0.00    +0.000 N 
ATOM      7  C   UNL     1      -4.462 -16.724  21.081  0.00  0.00    +0.000 C 
ATOM      8  C   UNL     1      -4.957 -14.657  20.066  0.00  0.00    +0.000 C 
ATOM      9  C   UNL     1      -3.177 -16.667  21.070  0.00  0.00    +0.000 C 
ATOM     10  C   UNL     1      -2.747 -15.410  20.378  0.00  0.00    +0.000 C 
ATOM     11  C   UNL     1      -0.662 -14.293  19.655  0.00  0.00    +0.000 C 
ATOM     12  H   UNL     1      -0.807 -16.079  20.569  0.00  0.00    +0.000 HD
ENDROOT
BRANCH   4  16
ATOM     13  O   UNL     1      -7.281 -16.177  22.168  0.00  0.00    +0.000 OA
ATOM     14  C   UNL     1      -7.748 -16.652  19.960  0.00  0.00    +0.000 A 
ATOM     15  C   UNL     1      -8.914 -16.941  20.739  0.00  0.00    +0.000 A 
ATOM     16  C   UNL     1      -6.722 -16.199  20.871  0.00  0.00    +0.000 A 
ATOM     17  C   UNL     1      -8.609 -16.628  22.108  0.00  0.00    +0.000 A 
ATOM     18  C   UNL     1      -9.336 -16.951  23.368  0.00  0.00    +0.000 C 
BRANCH  14  19
ATOM     19  O   UNL     1      -7.526 -17.342  18.802  0.00  0.00    +0.000 OA
ATOM     20  H   UNL     1      -6.574 -17.357  18.556  0.00  0.00    +0.000 HD
ENDBRANCH  14  19
BRANCH  15  21
ATOM     21  O   UNL     1      -9.789 -17.925  20.362  0.00  0.00    +0.000 OA
ATOM     22  H   UNL     1      -9.713 -18.100  19.405  0.00  0.00    +0.000 HD
ENDBRANCH  15  21
ENDBRANCH   4  16
BRANCH  11  23
ATOM     23  O   UNL     1       0.665 -14.622  19.690  0.00  0.00    +0.000 OA
BRANCH  23  24
ATOM     24  C   UNL     1       1.400 -14.168  18.677  0.00  0.00    +0.000 C 
ATOM     25  C   UNL     1       2.245 -13.646  17.510  0.00  0.00    +0.000 C 
BRANCH  25  26
ATOM     26  C   UNL     1       3.088 -13.125  16.343  0.00  0.00    +0.000 C 
ATOM     27  C   UNL     1       3.932 -12.598  15.178  0.00  0.00    +0.000 C 
ATOM     28  C   UNL     1       4.781 -12.062  14.021  0.00  0.00    +0.000 C 
ENDBRANCH  25  26
ENDBRANCH  23  24
ENDBRANCH  11  23
TORSDOF 6
ENDMDL
MODEL 7
REMARK VINA RESULT:      -5.4     18.609     21.104
REMARK  Name = 60953_Capecitabine.pdbqt.pdb
REMARK  6 active torsions:
REMARK  status: ('A' for Active; 'I' for Inactive)
REMARK    1  A    between atoms: N_4  and  C_16
REMARK    2  A    between atoms: C_11  and  O_23
REMARK    3  A    between atoms: C_14  and  O_19
REMARK    4  A    between atoms: C_15  and  O_21
REMARK    5  A    between atoms: O_23  and  C_24
REMARK    6  A    between atoms: C_25  and  C_26
REMARK                            x       y       z     vdW  Elec       q    Type
REMARK                         _______ _______ _______ _____ _____    ______ ____
ROOT
ATOM      1  F   UNL     1     -21.887  -2.438   6.572  0.00  0.00    +0.000 F 
ATOM      2  O   UNL     1     -22.208  -0.586  11.589  0.00  0.00    +0.000 OA
ATOM      3  O   UNL     1     -21.005  -5.025  10.746  0.00  0.00    +0.000 OA
ATOM      4  N   UNL     1     -22.605  -0.238   9.326  0.00  0.00    +0.000 N 
ATOM      5  N   UNL     1     -21.897  -2.365  10.181  0.00  0.00    +0.000 NA
ATOM      6  N   UNL     1     -21.551  -4.136   8.666  0.00  0.00    +0.000 N 
ATOM      7  C   UNL     1     -22.606  -0.849   8.124  0.00  0.00    +0.000 C 
ATOM      8  C   UNL     1     -22.241  -1.032  10.444  0.00  0.00    +0.000 C 
ATOM      9  C   UNL     1     -22.361  -2.062   7.772  0.00  0.00    +0.000 C 
ATOM     10  C   UNL     1     -21.926  -2.844   8.973  0.00  0.00    +0.000 C 
ATOM     11  C   UNL     1     -21.107  -5.111   9.532  0.00  0.00    +0.000 C 
ATOM     12  H   UNL     1     -21.569  -4.425   7.698  0.00  0.00    +0.000 HD
ENDROOT
BRANCH   4  16
ATOM     13  O   UNL     1     -24.324   1.463   9.223  0.00  0.00    +0.000 OA
ATOM     14  C   UNL     1     -22.192   2.287   9.533  0.00  0.00    +0.000 A 
ATOM     15  C   UNL     1     -23.092   3.395   9.428  0.00  0.00    +0.000 A 
ATOM     16  C   UNL     1     -22.973   1.081   9.376  0.00  0.00    +0.000 A 
ATOM     17  C   UNL     1     -24.416   2.863   9.248  0.00  0.00    +0.000 A 
ATOM     18  C   UNL     1     -25.686   3.527   8.843  0.00  0.00    +0.000 C 
BRANCH  14  19
ATOM     19  O   UNL     1     -20.891   2.439   9.147  0.00  0.00    +0.000 OA
ATOM     20  H   UNL     1     -20.443   3.168   9.632  0.00  0.00    +0.000 HD
ENDBRANCH  14  19
BRANCH  15  21
ATOM     21  O   UNL     1     -22.679   4.594   8.910  0.00  0.00    +0.000 OA
ATOM     22  H   UNL     1     -22.964   4.680   7.981  0.00  0.00    +0.000 HD
ENDBRANCH  15  21
ENDBRANCH   4  16
BRANCH  11  23
ATOM     23  O   UNL     1     -20.802  -6.227   8.804  0.00  0.00    +0.000 OA
BRANCH  23  24
ATOM     24  C   UNL     1     -21.180  -6.208   7.528  0.00  0.00    +0.000 C 
ATOM     25  C   UNL     1     -21.616  -6.183   6.059  0.00  0.00    +0.000 C 
BRANCH  25  26
ATOM     26  C   UNL     1     -22.053  -6.157   4.592  0.00  0.00    +0.000 C 
ATOM     27  C   UNL     1     -22.483  -6.132   3.122  0.00  0.00    +0.000 C 
ATOM     28  C   UNL     1     -22.903  -6.113   1.648  0.00  0.00    +0.000 C 
ENDBRANCH  25  26
ENDBRANCH  23  24
ENDBRANCH  11  23
TORSDOF 6
ENDMDL
MODEL 8
REMARK VINA RESULT:      -5.3     16.755     20.323
REMARK  Name = 60953_Capecitabine.pdbqt.pdb
REMARK  6 active torsions:
REMARK  status: ('A' for Active; 'I' for Inactive)
REMARK    1  A    between atoms: N_4  and  C_16
REMARK    2  A    between atoms: C_11  and  O_23
REMARK    3  A    between atoms: C_14  and  O_19
REMARK    4  A    between atoms: C_15  and  O_21
REMARK    5  A    between atoms: O_23  and  C_24
REMARK    6  A    between atoms: C_25  and  C_26
REMARK                            x       y       z     vdW  Elec       q    Type
REMARK                         _______ _______ _______ _____ _____    ______ ____
ROOT
ATOM      1  F   UNL     1     -23.694  -1.884  10.876  0.00  0.00    +0.000 F 
ATOM      2  O   UNL     1     -21.570  -6.776  10.369  0.00  0.00    +0.000 OA
ATOM      3  O   UNL     1     -21.270  -3.664   6.894  0.00  0.00    +0.000 OA
ATOM      4  N   UNL     1     -22.904  -5.320  11.592  0.00  0.00    +0.000 N 
ATOM      5  N   UNL     1     -22.080  -4.762   9.409  0.00  0.00    +0.000 NA
ATOM      6  N   UNL     1     -22.608  -2.651   8.506  0.00  0.00    +0.000 N 
ATOM      7  C   UNL     1     -23.498  -4.110  11.553  0.00  0.00    +0.000 C 
ATOM      8  C   UNL     1     -22.151  -5.697  10.450  0.00  0.00    +0.000 C 
ATOM      9  C   UNL     1     -23.545  -3.200  10.645  0.00  0.00    +0.000 C 
ATOM     10  C   UNL     1     -22.690  -3.616   9.488  0.00  0.00    +0.000 C 
ATOM     11  C   UNL     1     -21.912  -2.715   7.319  0.00  0.00    +0.000 C 
ATOM     12  H   UNL     1     -23.083  -1.771   8.655  0.00  0.00    +0.000 HD
ENDROOT
BRANCH   4  16
ATOM     13  O   UNL     1     -24.101  -7.081  12.745  0.00  0.00    +0.000 OA
ATOM     14  C   UNL     1     -22.438  -6.087  13.997  0.00  0.00    +0.000 A 
ATOM     15  C   UNL     1     -23.099  -7.057  14.816  0.00  0.00    +0.000 A 
ATOM     16  C   UNL     1     -23.093  -6.092  12.709  0.00  0.00    +0.000 A 
ATOM     17  C   UNL     1     -24.122  -7.674  14.017  0.00  0.00    +0.000 A 
ATOM     18  C   UNL     1     -25.260  -8.556  14.401  0.00  0.00    +0.000 C 
BRANCH  14  19
ATOM     19  O   UNL     1     -21.857  -4.997  14.581  0.00  0.00    +0.000 OA
ATOM     20  H   UNL     1     -20.876  -5.055  14.582  0.00  0.00    +0.000 HD
ENDBRANCH  14  19
BRANCH  15  21
ATOM     21  O   UNL     1     -23.192  -6.890  16.172  0.00  0.00    +0.000 OA
ATOM     22  H   UNL     1     -24.033  -6.452  16.405  0.00  0.00    +0.000 HD
ENDBRANCH  15  21
ENDBRANCH   4  16
BRANCH  11  23
ATOM     23  O   UNL     1     -22.066  -1.526   6.664  0.00  0.00    +0.000 OA
BRANCH  23  24
ATOM     24  C   UNL     1     -22.323  -0.470   7.433  0.00  0.00    +0.000 C 
ATOM     25  C   UNL     1     -22.620   0.744   8.320  0.00  0.00    +0.000 C 
BRANCH  25  26
ATOM     26  C   UNL     1     -22.919   1.956   9.207  0.00  0.00    +0.000 C 
ATOM     27  C   UNL     1     -23.219   3.163  10.100  0.00  0.00    +0.000 C 
ATOM     28  C   UNL     1     -23.515   4.364  11.004  0.00  0.00    +0.000 C 
ENDBRANCH  25  26
ENDBRANCH  23  24
ENDBRANCH  11  23
TORSDOF 6
ENDMDL
MODEL 9
REMARK VINA RESULT:      -5.3      3.872      4.891
REMARK  Name = 60953_Capecitabine.pdbqt.pdb
REMARK  6 active torsions:
REMARK  status: ('A' for Active; 'I' for Inactive)
REMARK    1  A    between atoms: N_4  and  C_16
REMARK    2  A    between atoms: C_11  and  O_23
REMARK    3  A    between atoms: C_14  and  O_19
REMARK    4  A    between atoms: C_15  and  O_21
REMARK    5  A    between atoms: O_23  and  C_24
REMARK    6  A    between atoms: C_25  and  C_26
REMARK                            x       y       z     vdW  Elec       q    Type
REMARK                         _______ _______ _______ _____ _____    ______ ____
ROOT
ATOM      1  F   UNL     1     -14.013  -4.922  23.279  0.00  0.00    +0.000 F 
ATOM      2  O   UNL     1      -8.688  -4.617  22.778  0.00  0.00    +0.000 OA
ATOM      3  O   UNL     1     -10.635  -7.364  26.021  0.00  0.00    +0.000 OA
ATOM      4  N   UNL     1     -10.778  -3.789  22.188  0.00  0.00    +0.000 N 
ATOM      5  N   UNL     1     -10.497  -5.408  23.938  0.00  0.00    +0.000 NA
ATOM      6  N   UNL     1     -12.410  -6.211  25.054  0.00  0.00    +0.000 N 
ATOM      7  C   UNL     1     -12.090  -3.859  22.490  0.00  0.00    +0.000 C 
ATOM      8  C   UNL     1      -9.904  -4.600  22.959  0.00  0.00    +0.000 C 
ATOM      9  C   UNL     1     -12.737  -4.516  23.387  0.00  0.00    +0.000 C 
ATOM     10  C   UNL     1     -11.783  -5.398  24.133  0.00  0.00    +0.000 C 
ATOM     11  C   UNL     1     -11.828  -7.130  25.899  0.00  0.00    +0.000 C 
ATOM     12  H   UNL     1     -13.417  -6.171  25.124  0.00  0.00    +0.000 HD
ENDROOT
BRANCH   4  16
ATOM     13  O   UNL     1      -9.816  -1.681  21.490  0.00  0.00    +0.000 OA
ATOM     14  C   UNL     1     -10.493  -3.037  19.751  0.00  0.00    +0.000 A 
ATOM     15  C   UNL     1     -10.007  -1.808  19.201  0.00  0.00    +0.000 A 
ATOM     16  C   UNL     1     -10.393  -2.934  21.189  0.00  0.00    +0.000 A 
ATOM     17  C   UNL     1      -9.578  -0.982  20.297  0.00  0.00    +0.000 A 
ATOM     18  C   UNL     1      -9.224   0.465  20.347  0.00  0.00    +0.000 C 
BRANCH  14  19
ATOM     19  O   UNL     1     -11.445  -3.745  19.076  0.00  0.00    +0.000 OA
ATOM     20  H   UNL     1     -11.125  -4.055  18.199  0.00  0.00    +0.000 HD
ENDBRANCH  14  19
BRANCH  15  21
ATOM     21  O   UNL     1     -10.510  -1.312  18.027  0.00  0.00    +0.000 OA
ATOM     22  H   UNL     1     -10.883  -0.420  18.166  0.00  0.00    +0.000 HD
ENDBRANCH  15  21
ENDBRANCH   4  16
BRANCH  11  23
ATOM     23  O   UNL     1     -12.817  -7.748  26.611  0.00  0.00    +0.000 OA
BRANCH  23  24
ATOM     24  C   UNL     1     -13.764  -6.950  27.100  0.00  0.00    +0.000 C 
ATOM     25  C   UNL     1     -14.854  -6.030  27.659  0.00  0.00    +0.000 C 
BRANCH  25  26
ATOM     26  C   UNL     1     -15.943  -5.109  28.218  0.00  0.00    +0.000 C 
ATOM     27  C   UNL     1     -17.034  -4.193  28.780  0.00  0.00    +0.000 C 
ATOM     28  C   UNL     1     -18.127  -3.285  29.354  0.00  0.00    +0.000 C 
ENDBRANCH  25  26
ENDBRANCH  23  24
ENDBRANCH  11  23
TORSDOF 6
ENDMDL
