MODEL 1
REMARK VINA RESULT:      -6.1      0.000      0.000
REMARK  Name = 6223_Gliotoxin.pdbqt.pdb
REMARK  3 active torsions:
REMARK  status: ('A' for Active; 'I' for Inactive)
REMARK    1  A    between atoms: C_10  and  C_21
REMARK    2  A    between atoms: C_14  and  O_19
REMARK    3  A    between atoms: C_21  and  O_22
REMARK                            x       y       z     vdW  Elec       q    Type
REMARK                         _______ _______ _______ _____ _____    ______ ____
ROOT
ATOM      1  S   UNL     1     -11.535  -3.389  24.834  0.00  0.00    +0.000 S 
ATOM      2  S   UNL     1     -10.185  -3.711  26.362  0.00  0.00    +0.000 S 
ATOM      3  O   UNL     1      -7.609  -4.952  24.134  0.00  0.00    +0.000 OA
ATOM      4  O   UNL     1     -12.514  -6.795  24.568  0.00  0.00    +0.000 OA
ATOM      5  N   UNL     1      -9.790  -4.942  23.406  0.00  0.00    +0.000 N 
ATOM      6  N   UNL     1     -10.458  -6.361  25.625  0.00  0.00    +0.000 N 
ATOM      7  C   UNL     1     -11.226  -4.875  23.820  0.00  0.00    +0.000 C 
ATOM      8  C   UNL     1      -9.652  -4.817  22.023  0.00  0.00    +0.000 A 
ATOM      9  C   UNL     1     -11.895  -4.818  22.523  0.00  0.00    +0.000 C 
ATOM     10  C   UNL     1      -9.401  -5.312  25.806  0.00  0.00    +0.000 C 
ATOM     11  C   UNL     1     -11.031  -4.834  21.420  0.00  0.00    +0.000 A 
ATOM     12  C   UNL     1      -8.808  -5.065  24.382  0.00  0.00    +0.000 C 
ATOM     13  C   UNL     1     -11.486  -6.122  24.667  0.00  0.00    +0.000 C 
ATOM     14  C   UNL     1      -8.502  -4.315  21.235  0.00  0.00    +0.000 A 
ATOM     15  C   UNL     1     -11.118  -4.160  20.309  0.00  0.00    +0.000 A 
ATOM     16  C   UNL     1      -8.931  -3.715  20.001  0.00  0.00    +0.000 A 
ATOM     17  C   UNL     1     -10.465  -7.482  26.565  0.00  0.00    +0.000 C 
ATOM     18  C   UNL     1      -9.993  -3.544  19.463  0.00  0.00    +0.000 A 
ENDROOT
BRANCH  14  19
ATOM     19  O   UNL     1      -7.308  -3.971  21.800  0.00  0.00    +0.000 OA
ATOM     20  H   UNL     1      -6.827  -4.735  22.179  0.00  0.00    +0.000 HD
ENDBRANCH  14  19
BRANCH  10  21
ATOM     21  C   UNL     1      -8.324  -5.671  26.767  0.00  0.00    +0.000 C 
BRANCH  21  22
ATOM     22  O   UNL     1      -7.354  -6.009  27.621  0.00  0.00    +0.000 OA
ATOM     23  H   UNL     1      -6.535  -5.510  27.440  0.00  0.00    +0.000 HD
ENDBRANCH  21  22
ENDBRANCH  10  21
TORSDOF 3
ENDMDL
MODEL 2
REMARK VINA RESULT:      -5.2     18.683     19.927
REMARK  Name = 6223_Gliotoxin.pdbqt.pdb
REMARK  3 active torsions:
REMARK  status: ('A' for Active; 'I' for Inactive)
REMARK    1  A    between atoms: C_10  and  C_21
REMARK    2  A    between atoms: C_14  and  O_19
REMARK    3  A    between atoms: C_21  and  O_22
REMARK                            x       y       z     vdW  Elec       q    Type
REMARK                         _______ _______ _______ _____ _____    ______ ____
ROOT
ATOM      1  S   UNL     1       4.356 -12.321  15.485  0.00  0.00    +0.000 S 
ATOM      2  S   UNL     1       6.331 -12.316  16.084  0.00  0.00    +0.000 S 
ATOM      3  O   UNL     1       7.440 -10.431  13.192  0.00  0.00    +0.000 OA
ATOM      4  O   UNL     1       4.756 -14.951  13.130  0.00  0.00    +0.000 OA
ATOM      5  N   UNL     1       5.419 -11.521  13.093  0.00  0.00    +0.000 N 
ATOM      6  N   UNL     1       6.705 -13.811  13.790  0.00  0.00    +0.000 N 
ATOM      7  C   UNL     1       4.568 -12.595  13.694  0.00  0.00    +0.000 C 
ATOM      8  C   UNL     1       4.695 -10.746  12.186  0.00  0.00    +0.000 A 
ATOM      9  C   UNL     1       3.323 -12.424  12.948  0.00  0.00    +0.000 C 
ATOM     10  C   UNL     1       7.194 -12.554  14.445  0.00  0.00    +0.000 C 
ATOM     11  C   UNL     1       3.345 -11.387  12.006  0.00  0.00    +0.000 A 
ATOM     12  C   UNL     1       6.738 -11.389  13.510  0.00  0.00    +0.000 C 
ATOM     13  C   UNL     1       5.319 -13.910  13.474  0.00  0.00    +0.000 C 
ATOM     14  C   UNL     1       4.913  -9.341  11.767  0.00  0.00    +0.000 A 
ATOM     15  C   UNL     1       2.404 -10.538  11.709  0.00  0.00    +0.000 A 
ATOM     16  C   UNL     1       3.678  -8.705  11.398  0.00  0.00    +0.000 A 
ATOM     17  C   UNL     1       7.647 -14.924  13.676  0.00  0.00    +0.000 C 
ATOM     18  C   UNL     1       2.528  -9.052  11.335  0.00  0.00    +0.000 A 
ENDROOT
BRANCH  14  19
ATOM     19  O   UNL     1       5.982  -8.600  12.180  0.00  0.00    +0.000 OA
ATOM     20  H   UNL     1       6.821  -9.105  12.185  0.00  0.00    +0.000 HD
ENDBRANCH  14  19
BRANCH  10  21
ATOM     21  C   UNL     1       8.663 -12.499  14.672  0.00  0.00    +0.000 C 
BRANCH  21  22
ATOM     22  O   UNL     1       9.985 -12.450  14.857  0.00  0.00    +0.000 OA
ATOM     23  H   UNL     1      10.461 -12.876  14.120  0.00  0.00    +0.000 HD
ENDBRANCH  21  22
ENDBRANCH  10  21
TORSDOF 3
ENDMDL
MODEL 3
REMARK VINA RESULT:      -5.2     18.217     19.487
REMARK  Name = 6223_Gliotoxin.pdbqt.pdb
REMARK  3 active torsions:
REMARK  status: ('A' for Active; 'I' for Inactive)
REMARK    1  A    between atoms: C_10  and  C_21
REMARK    2  A    between atoms: C_14  and  O_19
REMARK    3  A    between atoms: C_21  and  O_22
REMARK                            x       y       z     vdW  Elec       q    Type
REMARK                         _______ _______ _______ _____ _____    ______ ____
ROOT
ATOM      1  S   UNL     1     -25.236  -6.340   8.640  0.00  0.00    +0.000 S 
ATOM      2  S   UNL     1     -25.768  -6.778  10.586  0.00  0.00    +0.000 S 
ATOM      3  O   UNL     1     -22.365  -6.535  11.812  0.00  0.00    +0.000 OA
ATOM      4  O   UNL     1     -24.061  -9.611   7.901  0.00  0.00    +0.000 OA
ATOM      5  N   UNL     1     -22.710  -6.851   9.562  0.00  0.00    +0.000 N 
ATOM      6  N   UNL     1     -24.217  -9.027  10.174  0.00  0.00    +0.000 N 
ATOM      7  C   UNL     1     -23.683  -7.291   8.515  0.00  0.00    +0.000 C 
ATOM      8  C   UNL     1     -21.582  -6.258   8.992  0.00  0.00    +0.000 A 
ATOM      9  C   UNL     1     -22.941  -6.994   7.292  0.00  0.00    +0.000 C 
ATOM     10  C   UNL     1     -24.337  -7.858  11.106  0.00  0.00    +0.000 C 
ATOM     11  C   UNL     1     -21.674  -6.433   7.500  0.00  0.00    +0.000 A 
ATOM     12  C   UNL     1     -23.032  -7.024  10.902  0.00  0.00    +0.000 C 
ATOM     13  C   UNL     1     -23.976  -8.766   8.794  0.00  0.00    +0.000 C 
ATOM     14  C   UNL     1     -20.657  -5.253   9.566  0.00  0.00    +0.000 A 
ATOM     15  C   UNL     1     -21.085  -5.485   6.830  0.00  0.00    +0.000 A 
ATOM     16  C   UNL     1     -20.084  -4.420   8.545  0.00  0.00    +0.000 A 
ATOM     17  C   UNL     1     -24.527 -10.352  10.710  0.00  0.00    +0.000 C 
ATOM     18  C   UNL     1     -20.170  -4.364   7.346  0.00  0.00    +0.000 A 
ENDROOT
BRANCH  14  19
ATOM     19  O   UNL     1     -20.745  -4.814  10.856  0.00  0.00    +0.000 OA
ATOM     20  H   UNL     1     -21.292  -4.008  10.951  0.00  0.00    +0.000 HD
ENDBRANCH  14  19
BRANCH  10  21
ATOM     21  C   UNL     1     -24.511  -8.217  12.539  0.00  0.00    +0.000 C 
BRANCH  21  22
ATOM     22  O   UNL     1     -24.655  -8.553  13.823  0.00  0.00    +0.000 OA
ATOM     23  H   UNL     1     -23.895  -9.078  14.139  0.00  0.00    +0.000 HD
ENDBRANCH  21  22
ENDBRANCH  10  21
TORSDOF 3
ENDMDL
MODEL 4
REMARK VINA RESULT:      -5.1     17.420     19.393
REMARK  Name = 6223_Gliotoxin.pdbqt.pdb
REMARK  3 active torsions:
REMARK  status: ('A' for Active; 'I' for Inactive)
REMARK    1  A    between atoms: C_10  and  C_21
REMARK    2  A    between atoms: C_14  and  O_19
REMARK    3  A    between atoms: C_21  and  O_22
REMARK                            x       y       z     vdW  Elec       q    Type
REMARK                         _______ _______ _______ _____ _____    ______ ____
ROOT
ATOM      1  S   UNL     1     -25.040  -4.701  10.068  0.00  0.00    +0.000 S 
ATOM      2  S   UNL     1     -24.203  -4.787  11.952  0.00  0.00    +0.000 S 
ATOM      3  O   UNL     1     -21.155  -6.359  10.776  0.00  0.00    +0.000 OA
ATOM      4  O   UNL     1     -26.057  -8.106  10.030  0.00  0.00    +0.000 OA
ATOM      5  N   UNL     1     -23.032  -6.457   9.453  0.00  0.00    +0.000 N 
ATOM      6  N   UNL     1     -24.374  -7.518  11.564  0.00  0.00    +0.000 N 
ATOM      7  C   UNL     1     -24.522  -6.325   9.416  0.00  0.00    +0.000 C 
ATOM      8  C   UNL     1     -22.497  -6.546   8.167  0.00  0.00    +0.000 A 
ATOM      9  C   UNL     1     -24.787  -6.467   7.987  0.00  0.00    +0.000 C 
ATOM     10  C   UNL     1     -23.367  -6.455  11.889  0.00  0.00    +0.000 C 
ATOM     11  C   UNL     1     -23.643  -6.653   7.197  0.00  0.00    +0.000 A 
ATOM     12  C   UNL     1     -22.379  -6.430  10.679  0.00  0.00    +0.000 C 
ATOM     13  C   UNL     1     -25.072  -7.428  10.324  0.00  0.00    +0.000 C 
ATOM     14  C   UNL     1     -21.147  -6.173   7.683  0.00  0.00    +0.000 A 
ATOM     15  C   UNL     1     -23.377  -6.158   6.023  0.00  0.00    +0.000 A 
ATOM     16  C   UNL     1     -21.176  -5.768   6.304  0.00  0.00    +0.000 A 
ATOM     17  C   UNL     1     -24.702  -8.481  12.614  0.00  0.00    +0.000 C 
ATOM     18  C   UNL     1     -22.029  -5.680   5.461  0.00  0.00    +0.000 A 
ENDROOT
BRANCH  14  19
ATOM     19  O   UNL     1     -20.152  -5.747   8.514  0.00  0.00    +0.000 OA
ATOM     20  H   UNL     1     -20.466  -5.131   9.206  0.00  0.00    +0.000 HD
ENDBRANCH  14  19
BRANCH  10  21
ATOM     21  C   UNL     1     -22.629  -6.663  13.164  0.00  0.00    +0.000 C 
BRANCH  21  22
ATOM     22  O   UNL     1     -21.960  -6.867  14.301  0.00  0.00    +0.000 OA
ATOM     23  H   UNL     1     -22.569  -6.960  15.058  0.00  0.00    +0.000 HD
ENDBRANCH  21  22
ENDBRANCH  10  21
TORSDOF 3
ENDMDL
MODEL 5
REMARK VINA RESULT:      -5.1     18.192     18.997
REMARK  Name = 6223_Gliotoxin.pdbqt.pdb
REMARK  3 active torsions:
REMARK  status: ('A' for Active; 'I' for Inactive)
REMARK    1  A    between atoms: C_10  and  C_21
REMARK    2  A    between atoms: C_14  and  O_19
REMARK    3  A    between atoms: C_21  and  O_22
REMARK                            x       y       z     vdW  Elec       q    Type
REMARK                         _______ _______ _______ _____ _____    ______ ____
ROOT
ATOM      1  S   UNL     1       6.827 -12.066  14.298  0.00  0.00    +0.000 S 
ATOM      2  S   UNL     1       6.077 -13.554  13.080  0.00  0.00    +0.000 S 
ATOM      3  O   UNL     1       3.565 -11.396  11.604  0.00  0.00    +0.000 OA
ATOM      4  O   UNL     1       4.250 -12.334  16.732  0.00  0.00    +0.000 OA
ATOM      5  N   UNL     1       4.507 -10.786  13.610  0.00  0.00    +0.000 N 
ATOM      6  N   UNL     1       3.793 -13.214  14.599  0.00  0.00    +0.000 N 
ATOM      7  C   UNL     1       5.271 -11.258  14.807  0.00  0.00    +0.000 C 
ATOM      8  C   UNL     1       4.411  -9.394  13.584  0.00  0.00    +0.000 A 
ATOM      9  C   UNL     1       5.497 -10.001  15.516  0.00  0.00    +0.000 C 
ATOM     10  C   UNL     1       4.247 -13.191  13.170  0.00  0.00    +0.000 C 
ATOM     11  C   UNL     1       4.971  -8.869  14.879  0.00  0.00    +0.000 A 
ATOM     12  C   UNL     1       4.045 -11.718  12.690  0.00  0.00    +0.000 C 
ATOM     13  C   UNL     1       4.379 -12.285  15.507  0.00  0.00    +0.000 C 
ATOM     14  C   UNL     1       4.241  -8.485  12.426  0.00  0.00    +0.000 A 
ATOM     15  C   UNL     1       5.491  -7.680  14.775  0.00  0.00    +0.000 A 
ATOM     16  C   UNL     1       4.842  -7.202  12.671  0.00  0.00    +0.000 A 
ATOM     17  C   UNL     1       2.905 -14.302  15.007  0.00  0.00    +0.000 C 
ATOM     18  C   UNL     1       5.427  -6.699  13.593  0.00  0.00    +0.000 A 
ENDROOT
BRANCH  14  19
ATOM     19  O   UNL     1       4.051  -8.935  11.151  0.00  0.00    +0.000 OA
ATOM     20  H   UNL     1       3.169  -9.335  11.012  0.00  0.00    +0.000 HD
ENDBRANCH  14  19
BRANCH  10  21
ATOM     21  C   UNL     1       3.532 -14.138  12.272  0.00  0.00    +0.000 C 
BRANCH  21  22
ATOM     22  O   UNL     1       2.889 -14.974  11.453  0.00  0.00    +0.000 OA
ATOM     23  H   UNL     1       1.948 -14.731  11.368  0.00  0.00    +0.000 HD
ENDBRANCH  21  22
ENDBRANCH  10  21
TORSDOF 3
ENDMDL
MODEL 6
REMARK VINA RESULT:      -5.1      1.684      2.264
REMARK  Name = 6223_Gliotoxin.pdbqt.pdb
REMARK  3 active torsions:
REMARK  status: ('A' for Active; 'I' for Inactive)
REMARK    1  A    between atoms: C_10  and  C_21
REMARK    2  A    between atoms: C_14  and  O_19
REMARK    3  A    between atoms: C_21  and  O_22
REMARK                            x       y       z     vdW  Elec       q    Type
REMARK                         _______ _______ _______ _____ _____    ______ ____
ROOT
ATOM      1  S   UNL     1     -11.503  -5.470  27.005  0.00  0.00    +0.000 S 
ATOM      2  S   UNL     1      -9.897  -6.023  28.177  0.00  0.00    +0.000 S 
ATOM      3  O   UNL     1      -7.592  -6.106  25.379  0.00  0.00    +0.000 OA
ATOM      4  O   UNL     1     -12.123  -8.744  25.769  0.00  0.00    +0.000 OA
ATOM      5  N   UNL     1      -9.849  -6.219  24.957  0.00  0.00    +0.000 N 
ATOM      6  N   UNL     1      -9.986  -8.332  26.660  0.00  0.00    +0.000 N 
ATOM      7  C   UNL     1     -11.197  -6.509  25.536  0.00  0.00    +0.000 C 
ATOM      8  C   UNL     1      -9.952  -5.660  23.682  0.00  0.00    +0.000 A 
ATOM      9  C   UNL     1     -12.070  -6.168  24.416  0.00  0.00    +0.000 C 
ATOM     10  C   UNL     1      -9.038  -7.235  27.045  0.00  0.00    +0.000 C 
ATOM     11  C   UNL     1     -11.399  -5.711  23.273  0.00  0.00    +0.000 A 
ATOM     12  C   UNL     1      -8.715  -6.476  25.717  0.00  0.00    +0.000 C 
ATOM     13  C   UNL     1     -11.175  -7.980  25.959  0.00  0.00    +0.000 C 
ATOM     14  C   UNL     1      -9.008  -4.768  22.969  0.00  0.00    +0.000 A 
ATOM     15  C   UNL     1     -11.740  -4.754  22.458  0.00  0.00    +0.000 A 
ATOM     16  C   UNL     1      -9.696  -3.897  22.055  0.00  0.00    +0.000 A 
ATOM     17  C   UNL     1      -9.714  -9.671  27.181  0.00  0.00    +0.000 C 
ATOM     18  C   UNL     1     -10.843  -3.741  21.730  0.00  0.00    +0.000 A 
ENDROOT
BRANCH  14  19
ATOM     19  O   UNL     1      -7.785  -4.427  23.470  0.00  0.00    +0.000 OA
ATOM     20  H   UNL     1      -7.453  -3.573  23.126  0.00  0.00    +0.000 HD
ENDBRANCH  14  19
BRANCH  10  21
ATOM     21  C   UNL     1      -7.786  -7.693  27.704  0.00  0.00    +0.000 C 
BRANCH  21  22
ATOM     22  O   UNL     1      -6.669  -8.099  28.314  0.00  0.00    +0.000 OA
ATOM     23  H   UNL     1      -6.689  -9.059  28.487  0.00  0.00    +0.000 HD
ENDBRANCH  21  22
ENDBRANCH  10  21
TORSDOF 3
ENDMDL
MODEL 7
REMARK VINA RESULT:      -4.9     18.680     20.475
REMARK  Name = 6223_Gliotoxin.pdbqt.pdb
REMARK  3 active torsions:
REMARK  status: ('A' for Active; 'I' for Inactive)
REMARK    1  A    between atoms: C_10  and  C_21
REMARK    2  A    between atoms: C_14  and  O_19
REMARK    3  A    between atoms: C_21  and  O_22
REMARK                            x       y       z     vdW  Elec       q    Type
REMARK                         _______ _______ _______ _____ _____    ______ ____
ROOT
ATOM      1  S   UNL     1       6.191 -11.342  14.998  0.00  0.00    +0.000 S 
ATOM      2  S   UNL     1       7.821 -10.170  15.479  0.00  0.00    +0.000 S 
ATOM      3  O   UNL     1       7.109  -7.722  12.901  0.00  0.00    +0.000 OA
ATOM      4  O   UNL     1       7.742 -12.895  12.204  0.00  0.00    +0.000 OA
ATOM      5  N   UNL     1       6.176  -9.816  12.726  0.00  0.00    +0.000 N 
ATOM      6  N   UNL     1       8.673 -10.865  12.943  0.00  0.00    +0.000 N 
ATOM      7  C   UNL     1       6.252 -11.240  13.177  0.00  0.00    +0.000 C 
ATOM      8  C   UNL     1       5.004  -9.572  12.008  0.00  0.00    +0.000 A 
ATOM      9  C   UNL     1       5.064 -11.805  12.543  0.00  0.00    +0.000 C 
ATOM     10  C   UNL     1       8.392  -9.651  13.778  0.00  0.00    +0.000 C 
ATOM     11  C   UNL     1       4.311 -10.890  11.795  0.00  0.00    +0.000 A 
ATOM     12  C   UNL     1       7.189  -8.935  13.086  0.00  0.00    +0.000 C 
ATOM     13  C   UNL     1       7.603 -11.772  12.692  0.00  0.00    +0.000 C 
ATOM     14  C   UNL     1       4.259  -8.303  11.829  0.00  0.00    +0.000 A 
ATOM     15  C   UNL     1       3.017 -10.786  11.703  0.00  0.00    +0.000 A 
ATOM     16  C   UNL     1       2.854  -8.540  11.644  0.00  0.00    +0.000 A 
ATOM     17  C   UNL     1      10.066 -11.131  12.586  0.00  0.00    +0.000 C 
ATOM     18  C   UNL     1       2.157  -9.518  11.585  0.00  0.00    +0.000 A 
ENDROOT
BRANCH  14  19
ATOM     19  O   UNL     1       4.708  -7.105  12.304  0.00  0.00    +0.000 OA
ATOM     20  H   UNL     1       4.122  -6.717  12.985  0.00  0.00    +0.000 HD
ENDBRANCH  14  19
BRANCH  10  21
ATOM     21  C   UNL     1       9.541  -8.718  13.929  0.00  0.00    +0.000 C 
BRANCH  21  22
ATOM     22  O   UNL     1      10.561  -7.867  14.059  0.00  0.00    +0.000 OA
ATOM     23  H   UNL     1      10.272  -7.027  14.463  0.00  0.00    +0.000 HD
ENDBRANCH  21  22
ENDBRANCH  10  21
TORSDOF 3
ENDMDL
MODEL 8
REMARK VINA RESULT:      -4.9     24.170     25.693
REMARK  Name = 6223_Gliotoxin.pdbqt.pdb
REMARK  3 active torsions:
REMARK  status: ('A' for Active; 'I' for Inactive)
REMARK    1  A    between atoms: C_10  and  C_21
REMARK    2  A    between atoms: C_14  and  O_19
REMARK    3  A    between atoms: C_21  and  O_22
REMARK                            x       y       z     vdW  Elec       q    Type
REMARK                         _______ _______ _______ _____ _____    ______ ____
ROOT
ATOM      1  S   UNL     1      -3.056  -6.872  -3.133  0.00  0.00    +0.000 S 
ATOM      2  S   UNL     1      -5.062  -6.391  -3.071  0.00  0.00    +0.000 S 
ATOM      3  O   UNL     1      -5.090  -5.988   0.531  0.00  0.00    +0.000 OA
ATOM      4  O   UNL     1      -3.518 -10.247  -2.120  0.00  0.00    +0.000 OA
ATOM      5  N   UNL     1      -3.385  -7.190  -0.434  0.00  0.00    +0.000 N 
ATOM      6  N   UNL     1      -5.261  -8.745  -1.636  0.00  0.00    +0.000 N 
ATOM      7  C   UNL     1      -2.939  -7.933  -1.653  0.00  0.00    +0.000 C 
ATOM      8  C   UNL     1      -2.332  -7.008   0.465  0.00  0.00    +0.000 A 
ATOM      9  C   UNL     1      -1.558  -8.256  -1.302  0.00  0.00    +0.000 C 
ATOM     10  C   UNL     1      -5.589  -7.285  -1.519  0.00  0.00    +0.000 C 
ATOM     11  C   UNL     1      -1.150  -7.787  -0.046  0.00  0.00    +0.000 A 
ATOM     12  C   UNL     1      -4.699  -6.748  -0.353  0.00  0.00    +0.000 C 
ATOM     13  C   UNL     1      -3.897  -9.116  -1.808  0.00  0.00    +0.000 C 
ATOM     14  C   UNL     1      -2.141  -5.950   1.485  0.00  0.00    +0.000 A 
ATOM     15  C   UNL     1      -0.004  -7.274   0.298  0.00  0.00    +0.000 A 
ATOM     16  C   UNL     1      -0.746  -5.687   1.715  0.00  0.00    +0.000 A 
ATOM     17  C   UNL     1      -6.380  -9.681  -1.739  0.00  0.00    +0.000 C 
ATOM     18  C   UNL     1       0.285  -6.135   1.289  0.00  0.00    +0.000 A 
ENDROOT
BRANCH  14  19
ATOM     19  O   UNL     1      -3.083  -5.001   1.757  0.00  0.00    +0.000 OA
ATOM     20  H   UNL     1      -3.840  -5.347   2.273  0.00  0.00    +0.000 HD
ENDBRANCH  14  19
BRANCH  10  21
ATOM     21  C   UNL     1      -7.024  -6.986  -1.265  0.00  0.00    +0.000 C 
BRANCH  21  22
ATOM     22  O   UNL     1      -8.312  -6.731  -1.023  0.00  0.00    +0.000 OA
ATOM     23  H   UNL     1      -8.838  -6.754  -1.845  0.00  0.00    +0.000 HD
ENDBRANCH  21  22
ENDBRANCH  10  21
TORSDOF 3
ENDMDL
MODEL 9
REMARK VINA RESULT:      -4.8     23.725     24.486
REMARK  Name = 6223_Gliotoxin.pdbqt.pdb
REMARK  3 active torsions:
REMARK  status: ('A' for Active; 'I' for Inactive)
REMARK    1  A    between atoms: C_10  and  C_21
REMARK    2  A    between atoms: C_14  and  O_19
REMARK    3  A    between atoms: C_21  and  O_22
REMARK                            x       y       z     vdW  Elec       q    Type
REMARK                         _______ _______ _______ _____ _____    ______ ____
ROOT
ATOM      1  S   UNL     1      -2.149  -2.652   3.083  0.00  0.00    +0.000 S 
ATOM      2  S   UNL     1      -4.084  -2.334   2.441  0.00  0.00    +0.000 S 
ATOM      3  O   UNL     1      -4.152  -5.342   0.418  0.00  0.00    +0.000 OA
ATOM      4  O   UNL     1      -0.635  -1.446   0.103  0.00  0.00    +0.000 OA
ATOM      5  N   UNL     1      -2.116  -4.469   1.036  0.00  0.00    +0.000 N 
ATOM      6  N   UNL     1      -2.890  -2.097  -0.040  0.00  0.00    +0.000 N 
ATOM      7  C   UNL     1      -1.396  -3.256   1.534  0.00  0.00    +0.000 C 
ATOM      8  C   UNL     1      -1.294  -5.596   1.062  0.00  0.00    +0.000 A 
ATOM      9  C   UNL     1      -0.049  -3.785   1.733  0.00  0.00    +0.000 C 
ATOM     10  C   UNL     1      -3.958  -2.884   0.661  0.00  0.00    +0.000 C 
ATOM     11  C   UNL     1       0.095  -5.145   1.424  0.00  0.00    +0.000 A 
ATOM     12  C   UNL     1      -3.452  -4.362   0.670  0.00  0.00    +0.000 C 
ATOM     13  C   UNL     1      -1.556  -2.188   0.450  0.00  0.00    +0.000 C 
ATOM     14  C   UNL     1      -1.663  -7.027   1.176  0.00  0.00    +0.000 A 
ATOM     15  C   UNL     1       0.788  -6.052   2.051  0.00  0.00    +0.000 A 
ATOM     16  C   UNL     1      -0.632  -7.787   1.828  0.00  0.00    +0.000 A 
ATOM     17  C   UNL     1      -3.316  -1.154  -1.073  0.00  0.00    +0.000 C 
ATOM     18  C   UNL     1       0.454  -7.534   2.279  0.00  0.00    +0.000 A 
ENDROOT
BRANCH  14  19
ATOM     19  O   UNL     1      -2.957  -7.462   1.179  0.00  0.00    +0.000 OA
ATOM     20  H   UNL     1      -3.145  -8.115   0.475  0.00  0.00    +0.000 HD
ENDBRANCH  14  19
BRANCH  10  21
ATOM     21  C   UNL     1      -5.308  -2.795   0.042  0.00  0.00    +0.000 C 
BRANCH  21  22
ATOM     22  O   UNL     1      -6.511  -2.714  -0.532  0.00  0.00    +0.000 OA
ATOM     23  H   UNL     1      -7.153  -2.271   0.054  0.00  0.00    +0.000 HD
ENDBRANCH  21  22
ENDBRANCH  10  21
TORSDOF 3
ENDMDL
