MODEL 1
REMARK VINA RESULT:      -5.0      0.000      0.000
REMARK  Name = 6323266_Tipiracil.pdbqt.pdb
REMARK  2 active torsions:
REMARK  status: ('A' for Active; 'I' for Inactive)
REMARK    1  A    between atoms: C_6  and  C_12
REMARK    2  A    between atoms: C_12  and  N_13
REMARK                            x       y       z     vdW  Elec       q    Type
REMARK                         _______ _______ _______ _____ _____    ______ ____
ROOT
ATOM      1 CL   UNL     1       6.474 -13.456  14.010  0.00  0.00    +0.000 Cl
ATOM      2  O   UNL     1       5.577 -16.199  14.846  0.00  0.00    +0.000 OA
ATOM      3  O   UNL     1       1.563 -16.215  12.748  0.00  0.00    +0.000 OA
ATOM      4  N   UNL     1       2.879 -14.376  12.562  0.00  0.00    +0.000 N 
ATOM      5  N   UNL     1       3.579 -16.202  13.787  0.00  0.00    +0.000 N 
ATOM      6  C   UNL     1       4.037 -13.696  12.842  0.00  0.00    +0.000 A 
ATOM      7  C   UNL     1       4.997 -14.240  13.603  0.00  0.00    +0.000 A 
ATOM      8  C   UNL     1       4.766 -15.613  14.135  0.00  0.00    +0.000 A 
ATOM      9  C   UNL     1       2.609 -15.634  13.015  0.00  0.00    +0.000 A 
ATOM     10  H   UNL     1       2.165 -13.939  11.985  0.00  0.00    +0.000 HD
ATOM     11  H   UNL     1       3.402 -17.132  14.137  0.00  0.00    +0.000 HD
ENDROOT
BRANCH   6  12
ATOM     12  C   UNL     1       4.136 -12.396  12.277  0.00  0.00    +0.000 C 
BRANCH  12  13
ATOM     13  N   UNL     1       4.243 -11.024  11.820  0.00  0.00    +0.000 N 
ATOM     14  N   UNL     1       1.963 -10.801  10.899  0.00  0.00    +0.000 NA
ATOM     15  C   UNL     1       4.803 -10.040  12.747  0.00  0.00    +0.000 C 
ATOM     16  C   UNL     1       4.165  -8.683  13.023  0.00  0.00    +0.000 C 
ATOM     17  C   UNL     1       3.035  -9.105  12.083  0.00  0.00    +0.000 C 
ATOM     18  C   UNL     1       3.034 -10.425  11.491  0.00  0.00    +0.000 C 
ATOM     19  H   UNL     1       1.267 -10.046  10.891  0.00  0.00    +0.000 HD
ENDBRANCH  12  13
ENDBRANCH   6  12
TORSDOF 2
ENDMDL
MODEL 2
REMARK VINA RESULT:      -5.0     25.705     27.364
REMARK  Name = 6323266_Tipiracil.pdbqt.pdb
REMARK  2 active torsions:
REMARK  status: ('A' for Active; 'I' for Inactive)
REMARK    1  A    between atoms: C_6  and  C_12
REMARK    2  A    between atoms: C_12  and  N_13
REMARK                            x       y       z     vdW  Elec       q    Type
REMARK                         _______ _______ _______ _____ _____    ______ ____
ROOT
ATOM      1 CL   UNL     1     -24.005  -2.819  10.697  0.00  0.00    +0.000 Cl
ATOM      2  O   UNL     1     -24.504  -3.887  13.460  0.00  0.00    +0.000 OA
ATOM      3  O   UNL     1     -21.065  -6.830  13.629  0.00  0.00    +0.000 OA
ATOM      4  N   UNL     1     -21.344  -5.590  11.748  0.00  0.00    +0.000 N 
ATOM      5  N   UNL     1     -22.778  -5.347  13.539  0.00  0.00    +0.000 N 
ATOM      6  C   UNL     1     -22.020  -4.639  11.028  0.00  0.00    +0.000 A 
ATOM      7  C   UNL     1     -23.094  -4.017  11.533  0.00  0.00    +0.000 A 
ATOM      8  C   UNL     1     -23.531  -4.391  12.908  0.00  0.00    +0.000 A 
ATOM      9  C   UNL     1     -21.689  -5.975  13.011  0.00  0.00    +0.000 A 
ATOM     10  H   UNL     1     -20.533  -6.050  11.341  0.00  0.00    +0.000 HD
ATOM     11  H   UNL     1     -23.057  -5.615  14.472  0.00  0.00    +0.000 HD
ENDROOT
BRANCH   6  12
ATOM     12  C   UNL     1     -21.505  -4.373   9.731  0.00  0.00    +0.000 C 
BRANCH  12  13
ATOM     13  N   UNL     1     -21.043  -4.206   8.367  0.00  0.00    +0.000 N 
ATOM     14  N   UNL     1     -18.755  -5.079   8.681  0.00  0.00    +0.000 NA
ATOM     15  C   UNL     1     -21.911  -4.682   7.290  0.00  0.00    +0.000 C 
ATOM     16  C   UNL     1     -21.422  -5.540   6.129  0.00  0.00    +0.000 C 
ATOM     17  C   UNL     1     -20.046  -5.528   6.795  0.00  0.00    +0.000 C 
ATOM     18  C   UNL     1     -19.859  -4.868   8.069  0.00  0.00    +0.000 C 
ATOM     19  H   UNL     1     -18.130  -5.664   8.114  0.00  0.00    +0.000 HD
ENDBRANCH  12  13
ENDBRANCH   6  12
TORSDOF 2
ENDMDL
MODEL 3
REMARK VINA RESULT:      -4.9     16.087     18.052
REMARK  Name = 6323266_Tipiracil.pdbqt.pdb
REMARK  2 active torsions:
REMARK  status: ('A' for Active; 'I' for Inactive)
REMARK    1  A    between atoms: C_6  and  C_12
REMARK    2  A    between atoms: C_12  and  N_13
REMARK                            x       y       z     vdW  Elec       q    Type
REMARK                         _______ _______ _______ _____ _____    ______ ____
ROOT
ATOM      1 CL   UNL     1      -4.800  -8.090  -2.300  0.00  0.00    +0.000 Cl
ATOM      2  O   UNL     1      -2.657  -7.496  -0.279  0.00  0.00    +0.000 OA
ATOM      3  O   UNL     1      -5.308  -7.217   3.384  0.00  0.00    +0.000 OA
ATOM      4  N   UNL     1      -6.269  -7.664   1.378  0.00  0.00    +0.000 N 
ATOM      5  N   UNL     1      -3.988  -7.368   1.546  0.00  0.00    +0.000 N 
ATOM      6  C   UNL     1      -6.180  -7.879   0.026  0.00  0.00    +0.000 A 
ATOM      7  C   UNL     1      -5.001  -7.841  -0.608  0.00  0.00    +0.000 A 
ATOM      8  C   UNL     1      -3.784  -7.559   0.205  0.00  0.00    +0.000 A 
ATOM      9  C   UNL     1      -5.195  -7.406   2.178  0.00  0.00    +0.000 A 
ATOM     10  H   UNL     1      -7.178  -7.695   1.835  0.00  0.00    +0.000 HD
ATOM     11  H   UNL     1      -3.176  -7.176   2.116  0.00  0.00    +0.000 HD
ENDROOT
BRANCH   6  12
ATOM     12  C   UNL     1      -7.412  -8.136  -0.635  0.00  0.00    +0.000 C 
BRANCH  12  13
ATOM     13  N   UNL     1      -8.667  -8.275  -1.348  0.00  0.00    +0.000 N 
ATOM     14  N   UNL     1      -9.501 -10.276  -0.166  0.00  0.00    +0.000 NA
ATOM     15  C   UNL     1      -9.491  -7.078  -1.517  0.00  0.00    +0.000 C 
ATOM     16  C   UNL     1     -10.987  -7.035  -1.229  0.00  0.00    +0.000 C 
ATOM     17  C   UNL     1     -10.867  -8.491  -0.776  0.00  0.00    +0.000 C 
ATOM     18  C   UNL     1      -9.576  -9.144  -0.759  0.00  0.00    +0.000 C 
ATOM     19  H   UNL     1     -10.424 -10.576   0.166  0.00  0.00    +0.000 HD
ENDBRANCH  12  13
ENDBRANCH   6  12
TORSDOF 2
ENDMDL
MODEL 4
REMARK VINA RESULT:      -4.9      2.581      5.417
REMARK  Name = 6323266_Tipiracil.pdbqt.pdb
REMARK  2 active torsions:
REMARK  status: ('A' for Active; 'I' for Inactive)
REMARK    1  A    between atoms: C_6  and  C_12
REMARK    2  A    between atoms: C_12  and  N_13
REMARK                            x       y       z     vdW  Elec       q    Type
REMARK                         _______ _______ _______ _____ _____    ______ ____
ROOT
ATOM      1 CL   UNL     1       6.103 -13.940  13.717  0.00  0.00    +0.000 Cl
ATOM      2  O   UNL     1       6.638 -11.089  12.936  0.00  0.00    +0.000 OA
ATOM      3  O   UNL     1       2.513 -10.084  11.358  0.00  0.00    +0.000 OA
ATOM      4  N   UNL     1       2.890 -12.172  12.162  0.00  0.00    +0.000 N 
ATOM      5  N   UNL     1       4.572 -10.593  12.159  0.00  0.00    +0.000 N 
ATOM      6  C   UNL     1       3.718 -13.109  12.725  0.00  0.00    +0.000 A 
ATOM      7  C   UNL     1       4.994 -12.824  13.018  0.00  0.00    +0.000 A 
ATOM      8  C   UNL     1       5.486 -11.451  12.714  0.00  0.00    +0.000 A 
ATOM      9  C   UNL     1       3.277 -10.899  11.863  0.00  0.00    +0.000 A 
ATOM     10  H   UNL     1       1.926 -12.415  11.946  0.00  0.00    +0.000 HD
ATOM     11  H   UNL     1       4.885  -9.657  11.945  0.00  0.00    +0.000 HD
ENDROOT
BRANCH   6  12
ATOM     12  C   UNL     1       3.130 -14.380  12.966  0.00  0.00    +0.000 C 
BRANCH  12  13
ATOM     13  N   UNL     1       2.614 -15.691  13.308  0.00  0.00    +0.000 N 
ATOM     14  N   UNL     1       1.696 -16.277  11.092  0.00  0.00    +0.000 NA
ATOM     15  C   UNL     1       3.493 -16.599  14.044  0.00  0.00    +0.000 C 
ATOM     16  C   UNL     1       3.714 -18.058  13.660  0.00  0.00    +0.000 C 
ATOM     17  C   UNL     1       2.799 -17.804  12.461  0.00  0.00    +0.000 C 
ATOM     18  C   UNL     1       2.265 -16.481  12.220  0.00  0.00    +0.000 C 
ATOM     19  H   UNL     1       1.659 -17.142  10.540  0.00  0.00    +0.000 HD
ENDBRANCH  12  13
ENDBRANCH   6  12
TORSDOF 2
ENDMDL
MODEL 5
REMARK VINA RESULT:      -4.8     25.601     27.414
REMARK  Name = 6323266_Tipiracil.pdbqt.pdb
REMARK  2 active torsions:
REMARK  status: ('A' for Active; 'I' for Inactive)
REMARK    1  A    between atoms: C_6  and  C_12
REMARK    2  A    between atoms: C_12  and  N_13
REMARK                            x       y       z     vdW  Elec       q    Type
REMARK                         _______ _______ _______ _____ _____    ______ ____
ROOT
ATOM      1 CL   UNL     1     -23.822  -3.747   8.700  0.00  0.00    +0.000 Cl
ATOM      2  O   UNL     1     -21.904  -3.542   6.398  0.00  0.00    +0.000 OA
ATOM      3  O   UNL     1     -18.238  -5.195   8.483  0.00  0.00    +0.000 OA
ATOM      4  N   UNL     1     -20.177  -5.038   9.653  0.00  0.00    +0.000 N 
ATOM      5  N   UNL     1     -20.081  -4.378   7.444  0.00  0.00    +0.000 N 
ATOM      6  C   UNL     1     -21.505  -4.706   9.735  0.00  0.00    +0.000 A 
ATOM      7  C   UNL     1     -22.161  -4.198   8.683  0.00  0.00    +0.000 A 
ATOM      8  C   UNL     1     -21.400  -4.006   7.416  0.00  0.00    +0.000 A 
ATOM      9  C   UNL     1     -19.425  -4.890   8.524  0.00  0.00    +0.000 A 
ATOM     10  H   UNL     1     -19.700  -5.419  10.467  0.00  0.00    +0.000 HD
ATOM     11  H   UNL     1     -19.547  -4.256   6.596  0.00  0.00    +0.000 HD
ENDROOT
BRANCH   6  12
ATOM     12  C   UNL     1     -22.116  -4.936  10.997  0.00  0.00    +0.000 C 
BRANCH  12  13
ATOM     13  N   UNL     1     -22.842  -5.218  12.220  0.00  0.00    +0.000 N 
ATOM     14  N   UNL     1     -21.155  -6.677  13.279  0.00  0.00    +0.000 NA
ATOM     15  C   UNL     1     -23.443  -4.089  12.931  0.00  0.00    +0.000 C 
ATOM     16  C   UNL     1     -23.299  -3.863  14.431  0.00  0.00    +0.000 C 
ATOM     17  C   UNL     1     -22.401  -5.101  14.457  0.00  0.00    +0.000 C 
ATOM     18  C   UNL     1     -22.080  -5.793  13.229  0.00  0.00    +0.000 C 
ATOM     19  H   UNL     1     -20.816  -6.795  14.241  0.00  0.00    +0.000 HD
ENDBRANCH  12  13
ENDBRANCH   6  12
TORSDOF 2
ENDMDL
MODEL 6
REMARK VINA RESULT:      -4.8     17.706     19.134
REMARK  Name = 6323266_Tipiracil.pdbqt.pdb
REMARK  2 active torsions:
REMARK  status: ('A' for Active; 'I' for Inactive)
REMARK    1  A    between atoms: C_6  and  C_12
REMARK    2  A    between atoms: C_12  and  N_13
REMARK                            x       y       z     vdW  Elec       q    Type
REMARK                         _______ _______ _______ _____ _____    ______ ____
ROOT
ATOM      1 CL   UNL     1     -12.877 -14.820   2.281  0.00  0.00    +0.000 Cl
ATOM      2  O   UNL     1      -9.934 -14.350   1.905  0.00  0.00    +0.000 OA
ATOM      3  O   UNL     1      -9.079 -12.459   5.931  0.00  0.00    +0.000 OA
ATOM      4  N   UNL     1     -11.202 -13.111   5.465  0.00  0.00    +0.000 N 
ATOM      5  N   UNL     1      -9.514 -13.416   3.922  0.00  0.00    +0.000 N 
ATOM      6  C   UNL     1     -12.127 -13.670   4.621  0.00  0.00    +0.000 A 
ATOM      7  C   UNL     1     -11.781 -14.113   3.405  0.00  0.00    +0.000 A 
ATOM      8  C   UNL     1     -10.353 -13.982   2.998  0.00  0.00    +0.000 A 
ATOM      9  C   UNL     1      -9.881 -12.965   5.155  0.00  0.00    +0.000 A 
ATOM     10  H   UNL     1     -11.491 -12.779   6.382  0.00  0.00    +0.000 HD
ATOM     11  H   UNL     1      -8.542 -13.317   3.666  0.00  0.00    +0.000 HD
ENDROOT
BRANCH   6  12
ATOM     12  C   UNL     1     -13.454 -13.738   5.126  0.00  0.00    +0.000 C 
BRANCH  12  13
ATOM     13  N   UNL     1     -14.842 -13.857   5.527  0.00  0.00    +0.000 N 
ATOM     14  N   UNL     1     -14.863 -12.037   7.196  0.00  0.00    +0.000 NA
ATOM     15  C   UNL     1     -15.851 -13.949   4.471  0.00  0.00    +0.000 C 
ATOM     16  C   UNL     1     -17.129 -13.119   4.450  0.00  0.00    +0.000 C 
ATOM     17  C   UNL     1     -16.624 -12.442   5.725  0.00  0.00    +0.000 C 
ATOM     18  C   UNL     1     -15.327 -12.786   6.267  0.00  0.00    +0.000 C 
ATOM     19  H   UNL     1     -15.545 -11.315   7.456  0.00  0.00    +0.000 HD
ENDBRANCH  12  13
ENDBRANCH   6  12
TORSDOF 2
ENDMDL
MODEL 7
REMARK VINA RESULT:      -4.6     19.596     20.715
REMARK  Name = 6323266_Tipiracil.pdbqt.pdb
REMARK  2 active torsions:
REMARK  status: ('A' for Active; 'I' for Inactive)
REMARK    1  A    between atoms: C_6  and  C_12
REMARK    2  A    between atoms: C_12  and  N_13
REMARK                            x       y       z     vdW  Elec       q    Type
REMARK                         _______ _______ _______ _____ _____    ______ ____
ROOT
ATOM      1 CL   UNL     1     -13.227  -5.395  23.761  0.00  0.00    +0.000 Cl
ATOM      2  O   UNL     1     -11.811  -3.434  21.978  0.00  0.00    +0.000 OA
ATOM      3  O   UNL     1      -7.579  -4.270  23.359  0.00  0.00    +0.000 OA
ATOM      4  N   UNL     1      -9.281  -5.434  24.306  0.00  0.00    +0.000 N 
ATOM      5  N   UNL     1      -9.700  -3.866  22.667  0.00  0.00    +0.000 N 
ATOM      6  C   UNL     1     -10.616  -5.725  24.422  0.00  0.00    +0.000 A 
ATOM      7  C   UNL     1     -11.533  -5.097  23.674  0.00  0.00    +0.000 A 
ATOM      8  C   UNL     1     -11.055  -4.070  22.705  0.00  0.00    +0.000 A 
ATOM      9  C   UNL     1      -8.778  -4.509  23.438  0.00  0.00    +0.000 A 
ATOM     10  H   UNL     1      -8.605  -5.923  24.889  0.00  0.00    +0.000 HD
ATOM     11  H   UNL     1      -9.354  -3.174  22.017  0.00  0.00    +0.000 HD
ENDROOT
BRANCH   6  12
ATOM     12  C   UNL     1     -10.944  -6.722  25.381  0.00  0.00    +0.000 C 
BRANCH  12  13
ATOM     13  N   UNL     1     -11.352  -7.793  26.268  0.00  0.00    +0.000 N 
ATOM     14  N   UNL     1     -13.100  -8.773  24.826  0.00  0.00    +0.000 NA
ATOM     15  C   UNL     1     -10.302  -8.612  26.875  0.00  0.00    +0.000 C 
ATOM     16  C   UNL     1     -10.329 -10.136  26.901  0.00  0.00    +0.000 C 
ATOM     17  C   UNL     1     -11.628 -10.054  26.098  0.00  0.00    +0.000 C 
ATOM     18  C   UNL     1     -12.143  -8.769  25.676  0.00  0.00    +0.000 C 
ATOM     19  H   UNL     1     -13.398  -9.733  24.617  0.00  0.00    +0.000 HD
ENDBRANCH  12  13
ENDBRANCH   6  12
TORSDOF 2
ENDMDL
MODEL 8
REMARK VINA RESULT:      -4.6     22.612     24.464
REMARK  Name = 6323266_Tipiracil.pdbqt.pdb
REMARK  2 active torsions:
REMARK  status: ('A' for Active; 'I' for Inactive)
REMARK    1  A    between atoms: C_6  and  C_12
REMARK    2  A    between atoms: C_12  and  N_13
REMARK                            x       y       z     vdW  Elec       q    Type
REMARK                         _______ _______ _______ _____ _____    ______ ____
ROOT
ATOM      1 CL   UNL     1      -8.454   5.645   4.362  0.00  0.00    +0.000 Cl
ATOM      2  O   UNL     1     -11.093   5.060   3.050  0.00  0.00    +0.000 OA
ATOM      3  O   UNL     1     -13.766   5.921   6.604  0.00  0.00    +0.000 OA
ATOM      4  N   UNL     1     -11.523   6.159   6.849  0.00  0.00    +0.000 N 
ATOM      5  N   UNL     1     -12.421   5.502   4.828  0.00  0.00    +0.000 N 
ATOM      6  C   UNL     1     -10.249   6.105   6.344  0.00  0.00    +0.000 A 
ATOM      7  C   UNL     1     -10.018   5.746   5.074  0.00  0.00    +0.000 A 
ATOM      8  C   UNL     1     -11.194   5.407   4.223  0.00  0.00    +0.000 A 
ATOM      9  C   UNL     1     -12.640   5.865   6.124  0.00  0.00    +0.000 A 
ATOM     10  H   UNL     1     -11.670   6.431   7.818  0.00  0.00    +0.000 HD
ATOM     11  H   UNL     1     -13.231   5.277   4.269  0.00  0.00    +0.000 HD
ENDROOT
BRANCH   6  12
ATOM     12  C   UNL     1      -9.214   6.450   7.255  0.00  0.00    +0.000 C 
BRANCH  12  13
ATOM     13  N   UNL     1      -8.088   6.836   8.082  0.00  0.00    +0.000 N 
ATOM     14  N   UNL     1      -8.059   4.851   9.552  0.00  0.00    +0.000 NA
ATOM     15  C   UNL     1      -6.881   7.316   7.409  0.00  0.00    +0.000 C 
ATOM     16  C   UNL     1      -5.477   6.824   7.741  0.00  0.00    +0.000 C 
ATOM     17  C   UNL     1      -6.127   5.870   8.744  0.00  0.00    +0.000 C 
ATOM     18  C   UNL     1      -7.567   5.815   8.868  0.00  0.00    +0.000 C 
ATOM     19  H   UNL     1      -7.313   4.281   9.967  0.00  0.00    +0.000 HD
ENDBRANCH  12  13
ENDBRANCH   6  12
TORSDOF 2
ENDMDL
MODEL 9
REMARK VINA RESULT:      -4.5     18.774     19.269
REMARK  Name = 6323266_Tipiracil.pdbqt.pdb
REMARK  2 active torsions:
REMARK  status: ('A' for Active; 'I' for Inactive)
REMARK    1  A    between atoms: C_6  and  C_12
REMARK    2  A    between atoms: C_12  and  N_13
REMARK                            x       y       z     vdW  Elec       q    Type
REMARK                         _______ _______ _______ _____ _____    ______ ____
ROOT
ATOM      1 CL   UNL     1      -9.615  -1.171  19.908  0.00  0.00    +0.000 Cl
ATOM      2  O   UNL     1     -11.474  -3.379  19.074  0.00  0.00    +0.000 OA
ATOM      3  O   UNL     1     -11.009  -6.010  22.732  0.00  0.00    +0.000 OA
ATOM      4  N   UNL     1      -9.847  -4.062  22.638  0.00  0.00    +0.000 N 
ATOM      5  N   UNL     1     -11.243  -4.681  20.909  0.00  0.00    +0.000 N 
ATOM      6  C   UNL     1      -9.498  -2.903  21.993  0.00  0.00    +0.000 A 
ATOM      7  C   UNL     1     -10.003  -2.598  20.790  0.00  0.00    +0.000 A 
ATOM      8  C   UNL     1     -10.960  -3.560  20.174  0.00  0.00    +0.000 A 
ATOM      9  C   UNL     1     -10.718  -4.981  22.131  0.00  0.00    +0.000 A 
ATOM     10  H   UNL     1      -9.446  -4.273  23.550  0.00  0.00    +0.000 HD
ATOM     11  H   UNL     1     -11.890  -5.346  20.510  0.00  0.00    +0.000 HD
ENDROOT
BRANCH   6  12
ATOM     12  C   UNL     1      -8.577  -2.071  22.685  0.00  0.00    +0.000 C 
BRANCH  12  13
ATOM     13  N   UNL     1      -7.654  -1.135  23.296  0.00  0.00    +0.000 N 
ATOM     14  N   UNL     1      -7.068  -2.491  25.275  0.00  0.00    +0.000 NA
ATOM     15  C   UNL     1      -6.631  -0.531  22.443  0.00  0.00    +0.000 C 
ATOM     16  C   UNL     1      -5.156  -0.452  22.820  0.00  0.00    +0.000 C 
ATOM     17  C   UNL     1      -5.516  -1.218  24.093  0.00  0.00    +0.000 C 
ATOM     18  C   UNL     1      -6.873  -1.669  24.313  0.00  0.00    +0.000 C 
ATOM     19  H   UNL     1      -6.198  -2.658  25.794  0.00  0.00    +0.000 HD
ENDBRANCH  12  13
ENDBRANCH   6  12
TORSDOF 2
ENDMDL
