MODEL 1
REMARK VINA RESULT:      -6.4      0.000      0.000
REMARK  Name = 6325056_Deoxyelephantopin.pdbqt.pdb
REMARK  3 active torsions:
REMARK  status: ('A' for Active; 'I' for Inactive)
REMARK    1  A    between atoms: C_6  and  O_20
REMARK    2  A    between atoms: O_20  and  C_22
REMARK    3  A    between atoms: C_22  and  C_23
REMARK                            x       y       z     vdW  Elec       q    Type
REMARK                         _______ _______ _______ _____ _____    ______ ____
ROOT
ATOM      1  O   UNL     1     -11.524   1.055  22.937  0.00  0.00    +0.000 OA
ATOM      2  O   UNL     1     -12.506  -5.198  24.505  0.00  0.00    +0.000 OA
ATOM      3  O   UNL     1     -10.309   2.656  21.825  0.00  0.00    +0.000 OA
ATOM      4  O   UNL     1     -11.638  -5.975  22.497  0.00  0.00    +0.000 OA
ATOM      5  C   UNL     1     -10.432  -0.885  22.151  0.00  0.00    +0.000 C 
ATOM      6  C   UNL     1     -10.104  -2.285  21.880  0.00  0.00    +0.000 C 
ATOM      7  C   UNL     1     -11.483  -0.344  22.995  0.00  0.00    +0.000 C 
ATOM      8  C   UNL     1     -10.184  -3.311  22.858  0.00  0.00    +0.000 C 
ATOM      9  C   UNL     1      -9.812   0.287  21.569  0.00  0.00    +0.000 C 
ATOM     10  C   UNL     1     -10.440  -4.336  23.823  0.00  0.00    +0.000 C 
ATOM     11  C   UNL     1     -12.362  -1.012  23.879  0.00  0.00    +0.000 C 
ATOM     12  C   UNL     1     -12.053  -4.166  25.354  0.00  0.00    +0.000 C 
ATOM     13  C   UNL     1     -12.824  -2.967  25.287  0.00  0.00    +0.000 C 
ATOM     14  C   UNL     1     -13.189  -1.681  24.829  0.00  0.00    +0.000 C 
ATOM     15  C   UNL     1     -10.668  -3.992  25.164  0.00  0.00    +0.000 C 
ATOM     16  C   UNL     1     -10.531   1.485  22.080  0.00  0.00    +0.000 C 
ATOM     17  C   UNL     1     -11.548  -5.299  23.506  0.00  0.00    +0.000 C 
ATOM     18  C   UNL     1      -8.735   0.313  20.776  0.00  0.00    +0.000 C 
ATOM     19  C   UNL     1     -14.273  -0.924  25.526  0.00  0.00    +0.000 C 
ENDROOT
BRANCH   6  20
ATOM     20  O   UNL     1      -9.443  -2.631  20.689  0.00  0.00    +0.000 OA
BRANCH  20  22
ATOM     21  O   UNL     1     -11.363  -3.211  19.560  0.00  0.00    +0.000 OA
ATOM     22  C   UNL     1     -10.175  -3.399  19.811  0.00  0.00    +0.000 C 
BRANCH  22  23
ATOM     23  C   UNL     1      -9.303  -4.475  19.216  0.00  0.00    +0.000 C 
ATOM     24  C   UNL     1      -9.254  -4.776  17.727  0.00  0.00    +0.000 C 
ATOM     25  C   UNL     1      -8.461  -5.198  19.966  0.00  0.00    +0.000 C 
ENDBRANCH  22  23
ENDBRANCH  20  22
ENDBRANCH   6  20
TORSDOF 3
ENDMDL
MODEL 2
REMARK VINA RESULT:      -6.3      2.764      4.973
REMARK  Name = 6325056_Deoxyelephantopin.pdbqt.pdb
REMARK  3 active torsions:
REMARK  status: ('A' for Active; 'I' for Inactive)
REMARK    1  A    between atoms: C_6  and  O_20
REMARK    2  A    between atoms: O_20  and  C_22
REMARK    3  A    between atoms: C_22  and  C_23
REMARK                            x       y       z     vdW  Elec       q    Type
REMARK                         _______ _______ _______ _____ _____    ______ ____
ROOT
ATOM      1  O   UNL     1      -6.912  -2.447  25.056  0.00  0.00    +0.000 OA
ATOM      2  O   UNL     1     -11.209  -4.781  20.741  0.00  0.00    +0.000 OA
ATOM      3  O   UNL     1      -5.212  -0.994  25.578  0.00  0.00    +0.000 OA
ATOM      4  O   UNL     1     -11.409  -2.745  19.642  0.00  0.00    +0.000 OA
ATOM      5  C   UNL     1      -7.422  -1.693  22.879  0.00  0.00    +0.000 C 
ATOM      6  C   UNL     1      -8.085  -1.514  21.586  0.00  0.00    +0.000 C 
ATOM      7  C   UNL     1      -7.730  -2.639  23.936  0.00  0.00    +0.000 C 
ATOM      8  C   UNL     1      -8.588  -2.590  20.810  0.00  0.00    +0.000 C 
ATOM      9  C   UNL     1      -6.338  -0.901  23.422  0.00  0.00    +0.000 C 
ATOM     10  C   UNL     1      -9.230  -3.683  20.145  0.00  0.00    +0.000 C 
ATOM     11  C   UNL     1      -8.643  -3.719  23.939  0.00  0.00    +0.000 C 
ATOM     12  C   UNL     1     -10.064  -5.434  21.246  0.00  0.00    +0.000 C 
ATOM     13  C   UNL     1      -9.929  -5.375  22.665  0.00  0.00    +0.000 C 
ATOM     14  C   UNL     1      -9.505  -4.855  23.909  0.00  0.00    +0.000 C 
ATOM     15  C   UNL     1      -8.934  -5.002  20.523  0.00  0.00    +0.000 C 
ATOM     16  C   UNL     1      -6.053  -1.399  24.795  0.00  0.00    +0.000 C 
ATOM     17  C   UNL     1     -10.730  -3.652  20.090  0.00  0.00    +0.000 C 
ATOM     18  C   UNL     1      -5.651   0.058  22.791  0.00  0.00    +0.000 C 
ATOM     19  C   UNL     1      -9.733  -5.641  25.159  0.00  0.00    +0.000 C 
ENDROOT
BRANCH   6  20
ATOM     20  O   UNL     1      -8.020  -0.271  20.933  0.00  0.00    +0.000 OA
BRANCH  20  22
ATOM     21  O   UNL     1      -9.822   0.402  19.668  0.00  0.00    +0.000 OA
ATOM     22  C   UNL     1      -9.231   0.358  20.744  0.00  0.00    +0.000 C 
BRANCH  22  23
ATOM     23  C   UNL     1      -9.707   0.960  22.042  0.00  0.00    +0.000 C 
ATOM     24  C   UNL     1      -8.981   2.096  22.745  0.00  0.00    +0.000 C 
ATOM     25  C   UNL     1     -10.844   0.568  22.629  0.00  0.00    +0.000 C 
ENDBRANCH  22  23
ENDBRANCH  20  22
ENDBRANCH   6  20
TORSDOF 3
ENDMDL
MODEL 3
REMARK VINA RESULT:      -6.1      1.669      4.936
REMARK  Name = 6325056_Deoxyelephantopin.pdbqt.pdb
REMARK  3 active torsions:
REMARK  status: ('A' for Active; 'I' for Inactive)
REMARK    1  A    between atoms: C_6  and  O_20
REMARK    2  A    between atoms: O_20  and  C_22
REMARK    3  A    between atoms: C_22  and  C_23
REMARK                            x       y       z     vdW  Elec       q    Type
REMARK                         _______ _______ _______ _____ _____    ______ ____
ROOT
ATOM      1  O   UNL     1     -11.534   0.931  23.333  0.00  0.00    +0.000 OA
ATOM      2  O   UNL     1      -8.794  -4.483  20.944  0.00  0.00    +0.000 OA
ATOM      3  O   UNL     1     -13.354   2.005  24.233  0.00  0.00    +0.000 OA
ATOM      4  O   UNL     1     -10.082  -5.881  22.276  0.00  0.00    +0.000 OA
ATOM      5  C   UNL     1     -12.384  -1.269  23.229  0.00  0.00    +0.000 C 
ATOM      6  C   UNL     1     -12.477  -2.719  23.056  0.00  0.00    +0.000 C 
ATOM      7  C   UNL     1     -11.256  -0.393  22.968  0.00  0.00    +0.000 C 
ATOM      8  C   UNL     1     -11.869  -3.419  21.981  0.00  0.00    +0.000 C 
ATOM      9  C   UNL     1     -13.393  -0.387  23.777  0.00  0.00    +0.000 C 
ATOM     10  C   UNL     1     -11.102  -4.101  20.984  0.00  0.00    +0.000 C 
ATOM     11  C   UNL     1     -10.017  -0.680  22.349  0.00  0.00    +0.000 C 
ATOM     12  C   UNL     1      -9.154  -3.321  20.229  0.00  0.00    +0.000 C 
ATOM     13  C   UNL     1      -8.719  -2.102  20.828  0.00  0.00    +0.000 C 
ATOM     14  C   UNL     1      -8.805  -0.956  21.651  0.00  0.00    +0.000 C 
ATOM     15  C   UNL     1     -10.529  -3.377  19.927  0.00  0.00    +0.000 C 
ATOM     16  C   UNL     1     -12.818   0.984  23.835  0.00  0.00    +0.000 C 
ATOM     17  C   UNL     1      -9.980  -4.970  21.474  0.00  0.00    +0.000 C 
ATOM     18  C   UNL     1     -14.649  -0.711  24.104  0.00  0.00    +0.000 C 
ATOM     19  C   UNL     1      -7.740   0.091  21.581  0.00  0.00    +0.000 C 
ENDROOT
BRANCH   6  20
ATOM     20  O   UNL     1     -13.401  -3.456  23.817  0.00  0.00    +0.000 OA
BRANCH  20  22
ATOM     21  O   UNL     1     -13.194  -5.740  24.010  0.00  0.00    +0.000 OA
ATOM     22  C   UNL     1     -12.906  -4.608  24.388  0.00  0.00    +0.000 C 
BRANCH  22  23
ATOM     23  C   UNL     1     -11.970  -4.261  25.519  0.00  0.00    +0.000 C 
ATOM     24  C   UNL     1     -12.354  -3.332  26.659  0.00  0.00    +0.000 C 
ATOM     25  C   UNL     1     -10.751  -4.806  25.620  0.00  0.00    +0.000 C 
ENDBRANCH  22  23
ENDBRANCH  20  22
ENDBRANCH   6  20
TORSDOF 3
ENDMDL
MODEL 4
REMARK VINA RESULT:      -6.1     18.842     21.527
REMARK  Name = 6325056_Deoxyelephantopin.pdbqt.pdb
REMARK  3 active torsions:
REMARK  status: ('A' for Active; 'I' for Inactive)
REMARK    1  A    between atoms: C_6  and  O_20
REMARK    2  A    between atoms: O_20  and  C_22
REMARK    3  A    between atoms: C_22  and  C_23
REMARK                            x       y       z     vdW  Elec       q    Type
REMARK                         _______ _______ _______ _____ _____    ______ ____
ROOT
ATOM      1  O   UNL     1       5.197  -6.417  12.620  0.00  0.00    +0.000 OA
ATOM      2  O   UNL     1       4.607 -12.850  11.727  0.00  0.00    +0.000 OA
ATOM      3  O   UNL     1       6.431  -4.616  13.333  0.00  0.00    +0.000 OA
ATOM      4  O   UNL     1       6.886 -13.145  11.393  0.00  0.00    +0.000 OA
ATOM      5  C   UNL     1       6.788  -8.133  12.926  0.00  0.00    +0.000 C 
ATOM      6  C   UNL     1       7.456  -9.435  12.894  0.00  0.00    +0.000 C 
ATOM      7  C   UNL     1       5.443  -7.791  12.502  0.00  0.00    +0.000 C 
ATOM      8  C   UNL     1       6.795 -10.660  13.170  0.00  0.00    +0.000 C 
ATOM      9  C   UNL     1       7.361  -6.866  13.329  0.00  0.00    +0.000 C 
ATOM     10  C   UNL     1       6.056 -11.879  13.287  0.00  0.00    +0.000 C 
ATOM     11  C   UNL     1       4.386  -8.636  12.089  0.00  0.00    +0.000 C 
ATOM     12  C   UNL     1       3.920 -12.052  12.666  0.00  0.00    +0.000 C 
ATOM     13  C   UNL     1       3.352 -10.861  12.124  0.00  0.00    +0.000 C 
ATOM     14  C   UNL     1       3.301  -9.498  11.753  0.00  0.00    +0.000 C 
ATOM     15  C   UNL     1       4.746 -11.857  13.791  0.00  0.00    +0.000 C 
ATOM     16  C   UNL     1       6.334  -5.811  13.114  0.00  0.00    +0.000 C 
ATOM     17  C   UNL     1       5.951 -12.726  12.051  0.00  0.00    +0.000 C 
ATOM     18  C   UNL     1       8.567  -6.668  13.874  0.00  0.00    +0.000 C 
ATOM     19  C   UNL     1       2.019  -8.911  11.257  0.00  0.00    +0.000 C 
ENDROOT
BRANCH   6  20
ATOM     20  O   UNL     1       8.859  -9.500  12.838  0.00  0.00    +0.000 OA
BRANCH  20  22
ATOM     21  O   UNL     1       9.026 -10.368  10.713  0.00  0.00    +0.000 OA
ATOM     22  C   UNL     1       9.394  -9.569  11.570  0.00  0.00    +0.000 C 
BRANCH  22  23
ATOM     23  C   UNL     1      10.471  -8.527  11.408  0.00  0.00    +0.000 C 
ATOM     24  C   UNL     1      10.253  -7.216  10.669  0.00  0.00    +0.000 C 
ATOM     25  C   UNL     1      11.681  -8.667  11.965  0.00  0.00    +0.000 C 
ENDBRANCH  22  23
ENDBRANCH  20  22
ENDBRANCH   6  20
TORSDOF 3
ENDMDL
MODEL 5
REMARK VINA RESULT:      -5.9      2.481      4.962
REMARK  Name = 6325056_Deoxyelephantopin.pdbqt.pdb
REMARK  3 active torsions:
REMARK  status: ('A' for Active; 'I' for Inactive)
REMARK    1  A    between atoms: C_6  and  O_20
REMARK    2  A    between atoms: O_20  and  C_22
REMARK    3  A    between atoms: C_22  and  C_23
REMARK                            x       y       z     vdW  Elec       q    Type
REMARK                         _______ _______ _______ _____ _____    ______ ____
ROOT
ATOM      1  O   UNL     1      -7.604  -4.289  23.486  0.00  0.00    +0.000 OA
ATOM      2  O   UNL     1     -12.997  -6.215  26.605  0.00  0.00    +0.000 OA
ATOM      3  O   UNL     1      -6.607  -3.302  21.668  0.00  0.00    +0.000 OA
ATOM      4  O   UNL     1     -14.288  -4.511  25.699  0.00  0.00    +0.000 OA
ATOM      5  C   UNL     1      -9.871  -3.934  22.935  0.00  0.00    +0.000 C 
ATOM      6  C   UNL     1     -11.331  -3.871  23.017  0.00  0.00    +0.000 C 
ATOM      7  C   UNL     1      -8.930  -4.488  23.891  0.00  0.00    +0.000 C 
ATOM      8  C   UNL     1     -12.128  -4.906  23.572  0.00  0.00    +0.000 C 
ATOM      9  C   UNL     1      -9.029  -3.382  21.894  0.00  0.00    +0.000 C 
ATOM     10  C   UNL     1     -12.877  -5.892  24.291  0.00  0.00    +0.000 C 
ATOM     11  C   UNL     1      -9.175  -5.233  25.069  0.00  0.00    +0.000 C 
ATOM     12  C   UNL     1     -12.020  -7.036  26.003  0.00  0.00    +0.000 C 
ATOM     13  C   UNL     1     -10.676  -6.697  26.342  0.00  0.00    +0.000 C 
ATOM     14  C   UNL     1      -9.425  -6.053  26.208  0.00  0.00    +0.000 C 
ATOM     15  C   UNL     1     -12.281  -7.118  24.620  0.00  0.00    +0.000 C 
ATOM     16  C   UNL     1      -7.612  -3.617  22.281  0.00  0.00    +0.000 C 
ATOM     17  C   UNL     1     -13.519  -5.448  25.573  0.00  0.00    +0.000 C 
ATOM     18  C   UNL     1      -9.434  -2.828  20.746  0.00  0.00    +0.000 C 
ATOM     19  C   UNL     1      -8.292  -6.437  27.104  0.00  0.00    +0.000 C 
ENDROOT
BRANCH   6  20
ATOM     20  O   UNL     1     -12.030  -2.880  22.307  0.00  0.00    +0.000 OA
BRANCH  20  22
ATOM     21  O   UNL     1     -14.009  -2.040  23.127  0.00  0.00    +0.000 OA
ATOM     22  C   UNL     1     -12.782  -2.023  23.079  0.00  0.00    +0.000 C 
BRANCH  22  23
ATOM     23  C   UNL     1     -11.877  -1.089  23.843  0.00  0.00    +0.000 C 
ATOM     24  C   UNL     1     -10.897  -0.145  23.167  0.00  0.00    +0.000 C 
ATOM     25  C   UNL     1     -11.929  -0.990  25.177  0.00  0.00    +0.000 C 
ENDBRANCH  22  23
ENDBRANCH  20  22
ENDBRANCH   6  20
TORSDOF 3
ENDMDL
MODEL 6
REMARK VINA RESULT:      -5.9     16.466     19.471
REMARK  Name = 6325056_Deoxyelephantopin.pdbqt.pdb
REMARK  3 active torsions:
REMARK  status: ('A' for Active; 'I' for Inactive)
REMARK    1  A    between atoms: C_6  and  O_20
REMARK    2  A    between atoms: O_20  and  C_22
REMARK    3  A    between atoms: C_22  and  C_23
REMARK                            x       y       z     vdW  Elec       q    Type
REMARK                         _______ _______ _______ _____ _____    ______ ____
ROOT
ATOM      1  O   UNL     1     -24.336  -8.551   6.408  0.00  0.00    +0.000 OA
ATOM      2  O   UNL     1     -21.071  -3.224   8.276  0.00  0.00    +0.000 OA
ATOM      3  O   UNL     1     -25.158 -10.643   6.879  0.00  0.00    +0.000 OA
ATOM      4  O   UNL     1     -21.714  -3.448  10.496  0.00  0.00    +0.000 OA
ATOM      5  C   UNL     1     -23.478  -7.976   8.530  0.00  0.00    +0.000 C 
ATOM      6  C   UNL     1     -22.897  -7.218   9.639  0.00  0.00    +0.000 C 
ATOM      7  C   UNL     1     -23.674  -7.566   7.152  0.00  0.00    +0.000 C 
ATOM      8  C   UNL     1     -21.797  -6.333   9.490  0.00  0.00    +0.000 C 
ATOM      9  C   UNL     1     -24.060  -9.301   8.587  0.00  0.00    +0.000 C 
ATOM     10  C   UNL     1     -20.804  -5.328   9.264  0.00  0.00    +0.000 C 
ATOM     11  C   UNL     1     -23.231  -6.398   6.488  0.00  0.00    +0.000 C 
ATOM     12  C   UNL     1     -20.652  -4.200   7.347  0.00  0.00    +0.000 C 
ATOM     13  C   UNL     1     -21.633  -4.540   6.368  0.00  0.00    +0.000 C 
ATOM     14  C   UNL     1     -22.712  -5.259   5.805  0.00  0.00    +0.000 C 
ATOM     15  C   UNL     1     -20.107  -5.295   8.047  0.00  0.00    +0.000 C 
ATOM     16  C   UNL     1     -24.595  -9.623   7.237  0.00  0.00    +0.000 C 
ATOM     17  C   UNL     1     -21.226  -3.903   9.477  0.00  0.00    +0.000 C 
ATOM     18  C   UNL     1     -24.055 -10.134   9.634  0.00  0.00    +0.000 C 
ATOM     19  C   UNL     1     -23.124  -4.995   4.393  0.00  0.00    +0.000 C 
ENDROOT
BRANCH   6  20
ATOM     20  O   UNL     1     -23.247  -7.534  10.963  0.00  0.00    +0.000 OA
BRANCH  20  22
ATOM     21  O   UNL     1     -24.353  -5.582  11.474  0.00  0.00    +0.000 OA
ATOM     22  C   UNL     1     -23.541  -6.456  11.768  0.00  0.00    +0.000 C 
BRANCH  22  23
ATOM     23  C   UNL     1     -22.733  -6.525  13.038  0.00  0.00    +0.000 C 
ATOM     24  C   UNL     1     -23.262  -7.134  14.326  0.00  0.00    +0.000 C 
ATOM     25  C   UNL     1     -21.462  -6.106  13.092  0.00  0.00    +0.000 C 
ENDBRANCH  22  23
ENDBRANCH  20  22
ENDBRANCH   6  20
TORSDOF 3
ENDMDL
MODEL 7
REMARK VINA RESULT:      -5.7      2.593      6.284
REMARK  Name = 6325056_Deoxyelephantopin.pdbqt.pdb
REMARK  3 active torsions:
REMARK  status: ('A' for Active; 'I' for Inactive)
REMARK    1  A    between atoms: C_6  and  O_20
REMARK    2  A    between atoms: O_20  and  C_22
REMARK    3  A    between atoms: C_22  and  C_23
REMARK                            x       y       z     vdW  Elec       q    Type
REMARK                         _______ _______ _______ _____ _____    ______ ____
ROOT
ATOM      1  O   UNL     1     -13.552  -4.256  25.779  0.00  0.00    +0.000 OA
ATOM      2  O   UNL     1      -9.063  -2.660  21.325  0.00  0.00    +0.000 OA
ATOM      3  O   UNL     1     -14.500  -5.816  27.171  0.00  0.00    +0.000 OA
ATOM      4  O   UNL     1      -7.508  -4.169  22.160  0.00  0.00    +0.000 OA
ATOM      5  C   UNL     1     -11.737  -5.517  24.949  0.00  0.00    +0.000 C 
ATOM      6  C   UNL     1     -10.501  -5.892  24.263  0.00  0.00    +0.000 C 
ATOM      7  C   UNL     1     -12.439  -4.246  24.928  0.00  0.00    +0.000 C 
ATOM      8  C   UNL     1     -10.166  -5.451  22.956  0.00  0.00    +0.000 C 
ATOM      9  C   UNL     1     -12.506  -6.326  25.872  0.00  0.00    +0.000 C 
ATOM     10  C   UNL     1      -9.792  -4.849  21.713  0.00  0.00    +0.000 C 
ATOM     11  C   UNL     1     -12.199  -3.098  24.137  0.00  0.00    +0.000 C 
ATOM     12  C   UNL     1     -10.452  -2.802  21.125  0.00  0.00    +0.000 C 
ATOM     13  C   UNL     1     -11.259  -2.128  22.089  0.00  0.00    +0.000 C 
ATOM     14  C   UNL     1     -12.004  -1.975  23.281  0.00  0.00    +0.000 C 
ATOM     15  C   UNL     1     -10.752  -4.167  20.949  0.00  0.00    +0.000 C 
ATOM     16  C   UNL     1     -13.632  -5.496  26.378  0.00  0.00    +0.000 C 
ATOM     17  C   UNL     1      -8.623  -3.908  21.744  0.00  0.00    +0.000 C 
ATOM     18  C   UNL     1     -12.303  -7.615  26.168  0.00  0.00    +0.000 C 
ATOM     19  C   UNL     1     -12.799  -0.729  23.505  0.00  0.00    +0.000 C 
ENDROOT
BRANCH   6  20
ATOM     20  O   UNL     1      -9.701  -6.927  24.778  0.00  0.00    +0.000 OA
BRANCH  20  22
ATOM     21  O   UNL     1      -7.645  -5.922  25.028  0.00  0.00    +0.000 OA
ATOM     22  C   UNL     1      -8.607  -6.516  25.509  0.00  0.00    +0.000 C 
BRANCH  22  23
ATOM     23  C   UNL     1      -8.782  -6.897  26.957  0.00  0.00    +0.000 C 
ATOM     24  C   UNL     1      -9.325  -5.941  28.007  0.00  0.00    +0.000 C 
ATOM     25  C   UNL     1      -8.526  -8.135  27.399  0.00  0.00    +0.000 C 
ENDBRANCH  22  23
ENDBRANCH  20  22
ENDBRANCH   6  20
TORSDOF 3
ENDMDL
MODEL 8
REMARK VINA RESULT:      -5.6      2.106      5.300
REMARK  Name = 6325056_Deoxyelephantopin.pdbqt.pdb
REMARK  3 active torsions:
REMARK  status: ('A' for Active; 'I' for Inactive)
REMARK    1  A    between atoms: C_6  and  O_20
REMARK    2  A    between atoms: O_20  and  C_22
REMARK    3  A    between atoms: C_22  and  C_23
REMARK                            x       y       z     vdW  Elec       q    Type
REMARK                         _______ _______ _______ _____ _____    ______ ____
ROOT
ATOM      1  O   UNL     1      -9.532  -4.815  25.359  0.00  0.00    +0.000 OA
ATOM      2  O   UNL     1      -8.436   0.997  22.612  0.00  0.00    +0.000 OA
ATOM      3  O   UNL     1     -10.584  -6.857  25.334  0.00  0.00    +0.000 OA
ATOM      4  O   UNL     1      -8.752   0.186  20.459  0.00  0.00    +0.000 OA
ATOM      5  C   UNL     1     -10.253  -3.973  23.275  0.00  0.00    +0.000 C 
ATOM      6  C   UNL     1     -10.396  -3.130  22.088  0.00  0.00    +0.000 C 
ATOM      7  C   UNL     1      -9.473  -3.730  24.475  0.00  0.00    +0.000 C 
ATOM      8  C   UNL     1     -10.461  -1.713  22.138  0.00  0.00    +0.000 C 
ATOM      9  C   UNL     1     -10.816  -5.291  23.484  0.00  0.00    +0.000 C 
ATOM     10  C   UNL     1     -10.352  -0.288  22.219  0.00  0.00    +0.000 C 
ATOM     11  C   UNL     1      -8.769  -2.569  24.872  0.00  0.00    +0.000 C 
ATOM     12  C   UNL     1      -9.154   0.735  23.798  0.00  0.00    +0.000 C 
ATOM     13  C   UNL     1      -8.487  -0.137  24.710  0.00  0.00    +0.000 C 
ATOM     14  C   UNL     1      -8.132  -1.369  25.305  0.00  0.00    +0.000 C 
ATOM     15  C   UNL     1     -10.468   0.352  23.463  0.00  0.00    +0.000 C 
ATOM     16  C   UNL     1     -10.333  -5.790  24.800  0.00  0.00    +0.000 C 
ATOM     17  C   UNL     1      -9.126   0.330  21.609  0.00  0.00    +0.000 C 
ATOM     18  C   UNL     1     -11.680  -5.930  22.687  0.00  0.00    +0.000 C 
ATOM     19  C   UNL     1      -7.303  -1.381  26.548  0.00  0.00    +0.000 C 
ENDROOT
BRANCH   6  20
ATOM     20  O   UNL     1     -10.735  -3.710  20.854  0.00  0.00    +0.000 OA
BRANCH  20  22
ATOM     21  O   UNL     1      -8.644  -4.572  20.425  0.00  0.00    +0.000 OA
ATOM     22  C   UNL     1      -9.670  -4.019  20.036  0.00  0.00    +0.000 C 
BRANCH  22  23
ATOM     23  C   UNL     1      -9.965  -3.588  18.622  0.00  0.00    +0.000 C 
ATOM     24  C   UNL     1      -9.685  -4.465  17.412  0.00  0.00    +0.000 C 
ATOM     25  C   UNL     1     -10.556  -2.418  18.347  0.00  0.00    +0.000 C 
ENDBRANCH  22  23
ENDBRANCH  20  22
ENDBRANCH   6  20
TORSDOF 3
ENDMDL
MODEL 9
REMARK VINA RESULT:      -5.5      3.385      6.253
REMARK  Name = 6325056_Deoxyelephantopin.pdbqt.pdb
REMARK  3 active torsions:
REMARK  status: ('A' for Active; 'I' for Inactive)
REMARK    1  A    between atoms: C_6  and  O_20
REMARK    2  A    between atoms: O_20  and  C_22
REMARK    3  A    between atoms: C_22  and  C_23
REMARK                            x       y       z     vdW  Elec       q    Type
REMARK                         _______ _______ _______ _____ _____    ______ ____
ROOT
ATOM      1  O   UNL     1      -7.718  -4.868  24.204  0.00  0.00    +0.000 OA
ATOM      2  O   UNL     1     -11.217  -8.404  28.420  0.00  0.00    +0.000 OA
ATOM      3  O   UNL     1      -7.551  -3.763  22.197  0.00  0.00    +0.000 OA
ATOM      4  O   UNL     1     -13.224  -7.437  27.768  0.00  0.00    +0.000 OA
ATOM      5  C   UNL     1      -9.996  -5.478  24.131  0.00  0.00    +0.000 C 
ATOM      6  C   UNL     1     -11.317  -5.978  24.515  0.00  0.00    +0.000 C 
ATOM      7  C   UNL     1      -8.754  -5.523  24.880  0.00  0.00    +0.000 C 
ATOM      8  C   UNL     1     -11.517  -7.179  25.246  0.00  0.00    +0.000 C 
ATOM      9  C   UNL     1      -9.652  -4.753  22.926  0.00  0.00    +0.000 C 
ATOM     10  C   UNL     1     -11.663  -8.298  26.125  0.00  0.00    +0.000 C 
ATOM     11  C   UNL     1      -8.460  -6.180  26.098  0.00  0.00    +0.000 C 
ATOM     12  C   UNL     1     -10.121  -8.839  27.644  0.00  0.00    +0.000 C 
ATOM     13  C   UNL     1      -8.988  -7.973  27.688  0.00  0.00    +0.000 C 
ATOM     14  C   UNL     1      -8.148  -6.911  27.282  0.00  0.00    +0.000 C 
ATOM     15  C   UNL     1     -10.576  -9.157  26.348  0.00  0.00    +0.000 C 
ATOM     16  C   UNL     1      -8.215  -4.379  23.013  0.00  0.00    +0.000 C 
ATOM     17  C   UNL     1     -12.182  -8.010  27.504  0.00  0.00    +0.000 C 
ATOM     18  C   UNL     1     -10.448  -4.519  21.876  0.00  0.00    +0.000 C 
ATOM     19  C   UNL     1      -6.813  -6.732  27.929  0.00  0.00    +0.000 C 
ENDROOT
BRANCH   6  20
ATOM     20  O   UNL     1     -12.472  -5.414  23.945  0.00  0.00    +0.000 OA
BRANCH  20  22
ATOM     21  O   UNL     1     -13.999  -4.938  25.600  0.00  0.00    +0.000 OA
ATOM     22  C   UNL     1     -13.177  -4.563  24.768  0.00  0.00    +0.000 C 
BRANCH  22  23
ATOM     23  C   UNL     1     -12.781  -3.134  24.492  0.00  0.00    +0.000 C 
ATOM     24  C   UNL     1     -11.785  -2.370  25.349  0.00  0.00    +0.000 C 
ATOM     25  C   UNL     1     -13.242  -2.466  23.428  0.00  0.00    +0.000 C 
ENDBRANCH  22  23
ENDBRANCH  20  22
ENDBRANCH   6  20
TORSDOF 3
ENDMDL
