MODEL 1
REMARK VINA RESULT:      -6.3      0.000      0.000
REMARK  Name = 641785_Cardamonin.pdbqt.pdb
REMARK  6 active torsions:
REMARK  status: ('A' for Active; 'I' for Inactive)
REMARK    1  A    between atoms: C_1  and  C_14
REMARK    2  A    between atoms: C_2  and  O_7
REMARK    3  A    between atoms: C_3  and  O_9
REMARK    4  A    between atoms: C_6  and  O_11
REMARK    5  A    between atoms: C_14  and  C_15
REMARK    6  A    between atoms: C_16  and  C_17
REMARK                            x       y       z     vdW  Elec       q    Type
REMARK                         _______ _______ _______ _____ _____    ______ ____
ROOT
ATOM      1  C   UNL     1      -9.746  -3.604  19.574  0.00  0.00    +0.000 A 
ATOM      2  C   UNL     1      -8.878  -4.622  20.011  0.00  0.00    +0.000 A 
ATOM      3  C   UNL     1     -10.106  -3.555  18.211  0.00  0.00    +0.000 A 
ATOM      4  C   UNL     1      -8.375  -5.541  19.078  0.00  0.00    +0.000 A 
ATOM      5  C   UNL     1      -9.588  -4.471  17.296  0.00  0.00    +0.000 A 
ATOM      6  C   UNL     1      -8.719  -5.456  17.736  0.00  0.00    +0.000 A 
ENDROOT
BRANCH   2   7
ATOM      7  O   UNL     1      -8.605  -4.736  21.354  0.00  0.00    +0.000 OA
ATOM      8  C   UNL     1      -7.586  -3.912  21.847  0.00  0.00    +0.000 C 
ENDBRANCH   2   7
BRANCH   3   9
ATOM      9  O   UNL     1     -10.968  -2.626  17.686  0.00  0.00    +0.000 OA
ATOM     10  H   UNL     1     -11.152  -2.840  16.745  0.00  0.00    +0.000 HD
ENDBRANCH   3   9
BRANCH   6  11
ATOM     11  O   UNL     1      -8.221  -6.343  16.830  0.00  0.00    +0.000 OA
ATOM     12  H   UNL     1      -7.313  -6.582  17.091  0.00  0.00    +0.000 HD
ENDBRANCH   6  11
BRANCH   1  14
ATOM     13  O   UNL     1     -11.321  -2.808  21.134  0.00  0.00    +0.000 OA
ATOM     14  C   UNL     1     -10.315  -2.569  20.475  0.00  0.00    +0.000 C 
BRANCH  14  15
ATOM     15  C   UNL     1      -9.738  -1.248  20.532  0.00  0.00    +0.000 C 
ATOM     16  C   UNL     1      -9.274  -0.140  20.580  0.00  0.00    +0.000 C 
BRANCH  16  17
ATOM     17  C   UNL     1      -8.719   1.172  20.635  0.00  0.00    +0.000 A 
ATOM     18  C   UNL     1      -9.228   2.177  19.815  0.00  0.00    +0.000 A 
ATOM     19  C   UNL     1      -7.666   1.446  21.505  0.00  0.00    +0.000 A 
ATOM     20  C   UNL     1      -8.685   3.458  19.867  0.00  0.00    +0.000 A 
ATOM     21  C   UNL     1      -7.123   2.728  21.557  0.00  0.00    +0.000 A 
ATOM     22  C   UNL     1      -7.633   3.732  20.737  0.00  0.00    +0.000 A 
ENDBRANCH  16  17
ENDBRANCH  14  15
ENDBRANCH   1  14
TORSDOF 6
ENDMDL
MODEL 2
REMARK VINA RESULT:      -5.7      4.039      6.918
REMARK  Name = 641785_Cardamonin.pdbqt.pdb
REMARK  6 active torsions:
REMARK  status: ('A' for Active; 'I' for Inactive)
REMARK    1  A    between atoms: C_1  and  C_14
REMARK    2  A    between atoms: C_2  and  O_7
REMARK    3  A    between atoms: C_3  and  O_9
REMARK    4  A    between atoms: C_6  and  O_11
REMARK    5  A    between atoms: C_14  and  C_15
REMARK    6  A    between atoms: C_16  and  C_17
REMARK                            x       y       z     vdW  Elec       q    Type
REMARK                         _______ _______ _______ _____ _____    ______ ____
ROOT
ATOM      1  C   UNL     1     -11.239  -2.184  23.718  0.00  0.00    +0.000 A 
ATOM      2  C   UNL     1     -11.448  -3.363  24.458  0.00  0.00    +0.000 A 
ATOM      3  C   UNL     1     -12.222  -1.174  23.757  0.00  0.00    +0.000 A 
ATOM      4  C   UNL     1     -12.635  -3.511  25.191  0.00  0.00    +0.000 A 
ATOM      5  C   UNL     1     -13.401  -1.342  24.482  0.00  0.00    +0.000 A 
ATOM      6  C   UNL     1     -13.603  -2.515  25.190  0.00  0.00    +0.000 A 
ENDROOT
BRANCH   2   7
ATOM      7  O   UNL     1     -10.449  -4.308  24.507  0.00  0.00    +0.000 OA
ATOM      8  C   UNL     1     -10.852  -5.613  24.817  0.00  0.00    +0.000 C 
ENDBRANCH   2   7
BRANCH   3   9
ATOM      9  O   UNL     1     -12.104   0.025  23.099  0.00  0.00    +0.000 OA
ATOM     10  H   UNL     1     -11.269   0.037  22.581  0.00  0.00    +0.000 HD
ENDBRANCH   3   9
BRANCH   6  11
ATOM     11  O   UNL     1     -14.759  -2.666  25.893  0.00  0.00    +0.000 OA
ATOM     12  H   UNL     1     -14.541  -2.926  26.806  0.00  0.00    +0.000 HD
ENDBRANCH   6  11
BRANCH   1  14
ATOM     13  O   UNL     1      -9.258  -1.030  23.179  0.00  0.00    +0.000 OA
ATOM     14  C   UNL     1     -10.029  -1.939  22.893  0.00  0.00    +0.000 C 
BRANCH  14  15
ATOM     15  C   UNL     1      -9.782  -2.716  21.703  0.00  0.00    +0.000 C 
ATOM     16  C   UNL     1      -9.561  -3.370  20.719  0.00  0.00    +0.000 C 
BRANCH  16  17
ATOM     17  C   UNL     1      -9.303  -4.142  19.548  0.00  0.00    +0.000 A 
ATOM     18  C   UNL     1      -8.481  -5.265  19.624  0.00  0.00    +0.000 A 
ATOM     19  C   UNL     1      -9.871  -3.773  18.331  0.00  0.00    +0.000 A 
ATOM     20  C   UNL     1      -8.227  -6.019  18.480  0.00  0.00    +0.000 A 
ATOM     21  C   UNL     1      -9.617  -4.527  17.188  0.00  0.00    +0.000 A 
ATOM     22  C   UNL     1      -8.795  -5.649  17.264  0.00  0.00    +0.000 A 
ENDBRANCH  16  17
ENDBRANCH  14  15
ENDBRANCH   1  14
TORSDOF 6
ENDMDL
MODEL 3
REMARK VINA RESULT:      -5.7      3.586      6.588
REMARK  Name = 641785_Cardamonin.pdbqt.pdb
REMARK  6 active torsions:
REMARK  status: ('A' for Active; 'I' for Inactive)
REMARK    1  A    between atoms: C_1  and  C_14
REMARK    2  A    between atoms: C_2  and  O_7
REMARK    3  A    between atoms: C_3  and  O_9
REMARK    4  A    between atoms: C_6  and  O_11
REMARK    5  A    between atoms: C_14  and  C_15
REMARK    6  A    between atoms: C_16  and  C_17
REMARK                            x       y       z     vdW  Elec       q    Type
REMARK                         _______ _______ _______ _____ _____    ______ ____
ROOT
ATOM      1  C   UNL     1      -9.698  -3.166  22.675  0.00  0.00    +0.000 A 
ATOM      2  C   UNL     1      -9.496  -4.233  23.572  0.00  0.00    +0.000 A 
ATOM      3  C   UNL     1      -9.055  -1.937  22.926  0.00  0.00    +0.000 A 
ATOM      4  C   UNL     1      -8.685  -4.036  24.699  0.00  0.00    +0.000 A 
ATOM      5  C   UNL     1      -8.261  -1.756  24.057  0.00  0.00    +0.000 A 
ATOM      6  C   UNL     1      -8.086  -2.807  24.941  0.00  0.00    +0.000 A 
ENDROOT
BRANCH   2   7
ATOM      7  O   UNL     1     -10.036  -5.464  23.278  0.00  0.00    +0.000 OA
ATOM      8  C   UNL     1     -11.234  -5.780  23.930  0.00  0.00    +0.000 C 
ENDBRANCH   2   7
BRANCH   3   9
ATOM      9  O   UNL     1      -9.158  -0.845  22.101  0.00  0.00    +0.000 OA
ATOM     10  H   UNL     1      -8.385  -0.253  22.237  0.00  0.00    +0.000 HD
ENDBRANCH   3   9
BRANCH   6  11
ATOM     11  O   UNL     1      -7.308  -2.616  26.043  0.00  0.00    +0.000 OA
ATOM     12  H   UNL     1      -7.864  -2.696  26.838  0.00  0.00    +0.000 HD
ENDBRANCH   6  11
BRANCH   1  14
ATOM     13  O   UNL     1     -11.722  -2.891  21.503  0.00  0.00    +0.000 OA
ATOM     14  C   UNL     1     -10.555  -3.264  21.465  0.00  0.00    +0.000 C 
BRANCH  14  15
ATOM     15  C   UNL     1     -10.050  -3.866  20.256  0.00  0.00    +0.000 C 
ATOM     16  C   UNL     1      -9.648  -4.371  19.242  0.00  0.00    +0.000 C 
BRANCH  16  17
ATOM     17  C   UNL     1      -9.163  -4.971  18.042  0.00  0.00    +0.000 A 
ATOM     18  C   UNL     1      -9.950  -4.954  16.892  0.00  0.00    +0.000 A 
ATOM     19  C   UNL     1      -7.908  -5.573  18.023  0.00  0.00    +0.000 A 
ATOM     20  C   UNL     1      -9.478  -5.541  15.720  0.00  0.00    +0.000 A 
ATOM     21  C   UNL     1      -7.437  -6.160  16.850  0.00  0.00    +0.000 A 
ATOM     22  C   UNL     1      -8.223  -6.144  15.700  0.00  0.00    +0.000 A 
ENDBRANCH  16  17
ENDBRANCH  14  15
ENDBRANCH   1  14
TORSDOF 6
ENDMDL
MODEL 4
REMARK VINA RESULT:      -5.5      4.245      7.475
REMARK  Name = 641785_Cardamonin.pdbqt.pdb
REMARK  6 active torsions:
REMARK  status: ('A' for Active; 'I' for Inactive)
REMARK    1  A    between atoms: C_1  and  C_14
REMARK    2  A    between atoms: C_2  and  O_7
REMARK    3  A    between atoms: C_3  and  O_9
REMARK    4  A    between atoms: C_6  and  O_11
REMARK    5  A    between atoms: C_14  and  C_15
REMARK    6  A    between atoms: C_16  and  C_17
REMARK                            x       y       z     vdW  Elec       q    Type
REMARK                         _______ _______ _______ _____ _____    ______ ____
ROOT
ATOM      1  C   UNL     1      -4.891   0.495  22.574  0.00  0.00    +0.000 A 
ATOM      2  C   UNL     1      -4.858   1.695  21.838  0.00  0.00    +0.000 A 
ATOM      3  C   UNL     1      -3.687  -0.210  22.778  0.00  0.00    +0.000 A 
ATOM      4  C   UNL     1      -3.638   2.140  21.307  0.00  0.00    +0.000 A 
ATOM      5  C   UNL     1      -2.485   0.242  22.235  0.00  0.00    +0.000 A 
ATOM      6  C   UNL     1      -2.470   1.413  21.496  0.00  0.00    +0.000 A 
ENDROOT
BRANCH   2   7
ATOM      7  O   UNL     1      -6.009   2.440  21.723  0.00  0.00    +0.000 OA
ATOM      8  C   UNL     1      -6.046   3.352  20.661  0.00  0.00    +0.000 C 
ENDBRANCH   2   7
BRANCH   3   9
ATOM      9  O   UNL     1      -3.601  -1.370  23.506  0.00  0.00    +0.000 OA
ATOM     10  H   UNL     1      -3.618  -1.160  24.466  0.00  0.00    +0.000 HD
ENDBRANCH   3   9
BRANCH   6  11
ATOM     11  O   UNL     1      -1.289   1.842  20.970  0.00  0.00    +0.000 OA
ATOM     12  H   UNL     1      -0.582   1.234  21.249  0.00  0.00    +0.000 HD
ENDBRANCH   6  11
BRANCH   1  14
ATOM     13  O   UNL     1      -6.393   0.097  24.344  0.00  0.00    +0.000 OA
ATOM     14  C   UNL     1      -6.132  -0.074  23.158  0.00  0.00    +0.000 C 
BRANCH  14  15
ATOM     15  C   UNL     1      -7.008  -0.896  22.360  0.00  0.00    +0.000 C 
ATOM     16  C   UNL     1      -7.729  -1.576  21.679  0.00  0.00    +0.000 C 
BRANCH  16  17
ATOM     17  C   UNL     1      -8.588  -2.383  20.876  0.00  0.00    +0.000 A 
ATOM     18  C   UNL     1      -9.544  -1.781  20.060  0.00  0.00    +0.000 A 
ATOM     19  C   UNL     1      -8.471  -3.771  20.911  0.00  0.00    +0.000 A 
ATOM     20  C   UNL     1     -10.384  -2.569  19.278  0.00  0.00    +0.000 A 
ATOM     21  C   UNL     1      -9.313  -4.558  20.128  0.00  0.00    +0.000 A 
ATOM     22  C   UNL     1     -10.268  -3.957  19.312  0.00  0.00    +0.000 A 
ENDBRANCH  16  17
ENDBRANCH  14  15
ENDBRANCH   1  14
TORSDOF 6
ENDMDL
MODEL 5
REMARK VINA RESULT:      -5.5      4.163      6.871
REMARK  Name = 641785_Cardamonin.pdbqt.pdb
REMARK  6 active torsions:
REMARK  status: ('A' for Active; 'I' for Inactive)
REMARK    1  A    between atoms: C_1  and  C_14
REMARK    2  A    between atoms: C_2  and  O_7
REMARK    3  A    between atoms: C_3  and  O_9
REMARK    4  A    between atoms: C_6  and  O_11
REMARK    5  A    between atoms: C_14  and  C_15
REMARK    6  A    between atoms: C_16  and  C_17
REMARK                            x       y       z     vdW  Elec       q    Type
REMARK                         _______ _______ _______ _____ _____    ______ ____
ROOT
ATOM      1  C   UNL     1     -11.146  -2.318  23.937  0.00  0.00    +0.000 A 
ATOM      2  C   UNL     1     -10.797  -3.201  24.977  0.00  0.00    +0.000 A 
ATOM      3  C   UNL     1     -10.795  -0.958  24.053  0.00  0.00    +0.000 A 
ATOM      4  C   UNL     1     -10.135  -2.700  26.108  0.00  0.00    +0.000 A 
ATOM      5  C   UNL     1     -10.147  -0.475  25.189  0.00  0.00    +0.000 A 
ATOM      6  C   UNL     1      -9.826  -1.350  26.213  0.00  0.00    +0.000 A 
ENDROOT
BRANCH   2   7
ATOM      7  O   UNL     1     -11.044  -4.545  24.824  0.00  0.00    +0.000 OA
ATOM      8  C   UNL     1      -9.934  -5.344  24.527  0.00  0.00    +0.000 C 
ENDBRANCH   2   7
BRANCH   3   9
ATOM      9  O   UNL     1     -11.058  -0.021  23.086  0.00  0.00    +0.000 OA
ATOM     10  H   UNL     1     -10.480   0.762  23.218  0.00  0.00    +0.000 HD
ENDBRANCH   3   9
BRANCH   6  11
ATOM     11  O   UNL     1      -9.194  -0.864  27.318  0.00  0.00    +0.000 OA
ATOM     12  H   UNL     1      -8.239  -1.035  27.235  0.00  0.00    +0.000 HD
ENDBRANCH   6  11
BRANCH   1  14
ATOM     13  O   UNL     1     -13.089  -2.675  22.654  0.00  0.00    +0.000 OA
ATOM     14  C   UNL     1     -11.866  -2.744  22.709  0.00  0.00    +0.000 C 
BRANCH  14  15
ATOM     15  C   UNL     1     -11.146  -3.312  21.596  0.00  0.00    +0.000 C 
ATOM     16  C   UNL     1     -10.563  -3.792  20.661  0.00  0.00    +0.000 C 
BRANCH  16  17
ATOM     17  C   UNL     1      -9.864  -4.361  19.555  0.00  0.00    +0.000 A 
ATOM     18  C   UNL     1     -10.178  -3.963  18.257  0.00  0.00    +0.000 A 
ATOM     19  C   UNL     1      -8.872  -5.314  19.774  0.00  0.00    +0.000 A 
ATOM     20  C   UNL     1      -9.498  -4.519  17.176  0.00  0.00    +0.000 A 
ATOM     21  C   UNL     1      -8.192  -5.869  18.693  0.00  0.00    +0.000 A 
ATOM     22  C   UNL     1      -8.506  -5.472  17.395  0.00  0.00    +0.000 A 
ENDBRANCH  16  17
ENDBRANCH  14  15
ENDBRANCH   1  14
TORSDOF 6
ENDMDL
MODEL 6
REMARK VINA RESULT:      -5.5     15.398     17.118
REMARK  Name = 641785_Cardamonin.pdbqt.pdb
REMARK  6 active torsions:
REMARK  status: ('A' for Active; 'I' for Inactive)
REMARK    1  A    between atoms: C_1  and  C_14
REMARK    2  A    between atoms: C_2  and  O_7
REMARK    3  A    between atoms: C_3  and  O_9
REMARK    4  A    between atoms: C_6  and  O_11
REMARK    5  A    between atoms: C_14  and  C_15
REMARK    6  A    between atoms: C_16  and  C_17
REMARK                            x       y       z     vdW  Elec       q    Type
REMARK                         _______ _______ _______ _____ _____    ______ ____
ROOT
ATOM      1  C   UNL     1     -23.267  -5.945  13.935  0.00  0.00    +0.000 A 
ATOM      2  C   UNL     1     -24.449  -6.692  13.766  0.00  0.00    +0.000 A 
ATOM      3  C   UNL     1     -23.287  -4.827  14.793  0.00  0.00    +0.000 A 
ATOM      4  C   UNL     1     -25.616  -6.289  14.433  0.00  0.00    +0.000 A 
ATOM      5  C   UNL     1     -24.458  -4.435  15.441  0.00  0.00    +0.000 A 
ATOM      6  C   UNL     1     -25.618  -5.167  15.251  0.00  0.00    +0.000 A 
ENDROOT
BRANCH   2   7
ATOM      7  O   UNL     1     -24.411  -7.842  13.011  0.00  0.00    +0.000 OA
ATOM      8  C   UNL     1     -25.084  -7.794  11.784  0.00  0.00    +0.000 C 
ENDBRANCH   2   7
BRANCH   3   9
ATOM      9  O   UNL     1     -22.185  -4.051  15.054  0.00  0.00    +0.000 OA
ATOM     10  H   UNL     1     -21.666  -4.449  15.787  0.00  0.00    +0.000 HD
ENDBRANCH   3   9
BRANCH   6  11
ATOM     11  O   UNL     1     -26.755  -4.772  15.889  0.00  0.00    +0.000 OA
ATOM     12  H   UNL     1     -27.145  -4.024  15.403  0.00  0.00    +0.000 HD
ENDBRANCH   6  11
BRANCH   1  14
ATOM     13  O   UNL     1     -21.127  -6.923  13.840  0.00  0.00    +0.000 OA
ATOM     14  C   UNL     1     -21.987  -6.273  13.256  0.00  0.00    +0.000 C 
BRANCH  14  15
ATOM     15  C   UNL     1     -21.708  -5.771  11.934  0.00  0.00    +0.000 C 
ATOM     16  C   UNL     1     -21.485  -5.367  10.824  0.00  0.00    +0.000 C 
BRANCH  16  17
ATOM     17  C   UNL     1     -21.216  -4.883   9.510  0.00  0.00    +0.000 A 
ATOM     18  C   UNL     1     -19.946  -5.042   8.958  0.00  0.00    +0.000 A 
ATOM     19  C   UNL     1     -22.221  -4.251   8.781  0.00  0.00    +0.000 A 
ATOM     20  C   UNL     1     -19.681  -4.568   7.675  0.00  0.00    +0.000 A 
ATOM     21  C   UNL     1     -21.955  -3.777   7.498  0.00  0.00    +0.000 A 
ATOM     22  C   UNL     1     -20.686  -3.936   6.947  0.00  0.00    +0.000 A 
ENDBRANCH  16  17
ENDBRANCH  14  15
ENDBRANCH   1  14
TORSDOF 6
ENDMDL
MODEL 7
REMARK VINA RESULT:      -5.3     17.184     19.801
REMARK  Name = 641785_Cardamonin.pdbqt.pdb
REMARK  6 active torsions:
REMARK  status: ('A' for Active; 'I' for Inactive)
REMARK    1  A    between atoms: C_1  and  C_14
REMARK    2  A    between atoms: C_2  and  O_7
REMARK    3  A    between atoms: C_3  and  O_9
REMARK    4  A    between atoms: C_6  and  O_11
REMARK    5  A    between atoms: C_14  and  C_15
REMARK    6  A    between atoms: C_16  and  C_17
REMARK                            x       y       z     vdW  Elec       q    Type
REMARK                         _______ _______ _______ _____ _____    ______ ____
ROOT
ATOM      1  C   UNL     1     -10.396 -17.066   9.113  0.00  0.00    +0.000 A 
ATOM      2  C   UNL     1     -11.474 -17.972   9.137  0.00  0.00    +0.000 A 
ATOM      3  C   UNL     1     -10.225 -16.184  10.199  0.00  0.00    +0.000 A 
ATOM      4  C   UNL     1     -12.360 -17.954  10.225  0.00  0.00    +0.000 A 
ATOM      5  C   UNL     1     -11.120 -16.173  11.267  0.00  0.00    +0.000 A 
ATOM      6  C   UNL     1     -12.188 -17.056  11.270  0.00  0.00    +0.000 A 
ENDROOT
BRANCH   2   7
ATOM      7  O   UNL     1     -11.587 -18.903   8.131  0.00  0.00    +0.000 OA
ATOM      8  C   UNL     1     -12.800 -18.908   7.432  0.00  0.00    +0.000 C 
ENDBRANCH   2   7
BRANCH   3   9
ATOM      9  O   UNL     1      -9.192 -15.285  10.291  0.00  0.00    +0.000 OA
ATOM     10  H   UNL     1      -9.376 -14.510   9.716  0.00  0.00    +0.000 HD
ENDBRANCH   3   9
BRANCH   6  11
ATOM     11  O   UNL     1     -13.055 -17.033  12.319  0.00  0.00    +0.000 OA
ATOM     12  H   UNL     1     -13.026 -16.151  12.733  0.00  0.00    +0.000 HD
ENDBRANCH   6  11
BRANCH   1  14
ATOM     13  O   UNL     1      -8.295 -17.468   8.126  0.00  0.00    +0.000 OA
ATOM     14  C   UNL     1      -9.417 -16.989   7.999  0.00  0.00    +0.000 C 
BRANCH  14  15
ATOM     15  C   UNL     1      -9.743 -16.286   6.783  0.00  0.00    +0.000 C 
ATOM     16  C   UNL     1     -10.008 -15.714   5.759  0.00  0.00    +0.000 C 
BRANCH  16  17
ATOM     17  C   UNL     1     -10.324 -15.030   4.548  0.00  0.00    +0.000 A 
ATOM     18  C   UNL     1      -9.559 -15.254   3.404  0.00  0.00    +0.000 A 
ATOM     19  C   UNL     1     -11.393 -14.138   4.511  0.00  0.00    +0.000 A 
ATOM     20  C   UNL     1      -9.866 -14.585   2.222  0.00  0.00    +0.000 A 
ATOM     21  C   UNL     1     -11.699 -13.469   3.327  0.00  0.00    +0.000 A 
ATOM     22  C   UNL     1     -10.935 -13.693   2.185  0.00  0.00    +0.000 A 
ENDBRANCH  16  17
ENDBRANCH  14  15
ENDBRANCH   1  14
TORSDOF 6
ENDMDL
MODEL 8
REMARK VINA RESULT:      -5.2     15.004     17.939
REMARK  Name = 641785_Cardamonin.pdbqt.pdb
REMARK  6 active torsions:
REMARK  status: ('A' for Active; 'I' for Inactive)
REMARK    1  A    between atoms: C_1  and  C_14
REMARK    2  A    between atoms: C_2  and  O_7
REMARK    3  A    between atoms: C_3  and  O_9
REMARK    4  A    between atoms: C_6  and  O_11
REMARK    5  A    between atoms: C_14  and  C_15
REMARK    6  A    between atoms: C_16  and  C_17
REMARK                            x       y       z     vdW  Elec       q    Type
REMARK                         _______ _______ _______ _____ _____    ______ ____
ROOT
ATOM      1  C   UNL     1     -21.941   0.474  10.251  0.00  0.00    +0.000 A 
ATOM      2  C   UNL     1     -21.669   1.559   9.395  0.00  0.00    +0.000 A 
ATOM      3  C   UNL     1     -21.296   0.418  11.503  0.00  0.00    +0.000 A 
ATOM      4  C   UNL     1     -20.748   2.537   9.800  0.00  0.00    +0.000 A 
ATOM      5  C   UNL     1     -20.376   1.393  11.885  0.00  0.00    +0.000 A 
ATOM      6  C   UNL     1     -20.103   2.445  11.026  0.00  0.00    +0.000 A 
ENDROOT
BRANCH   2   7
ATOM      7  O   UNL     1     -22.370   1.673   8.217  0.00  0.00    +0.000 OA
ATOM      8  C   UNL     1     -23.274   2.740   8.142  0.00  0.00    +0.000 C 
ENDBRANCH   2   7
BRANCH   3   9
ATOM      9  O   UNL     1     -21.512  -0.576  12.424  0.00  0.00    +0.000 OA
ATOM     10  H   UNL     1     -20.663  -1.022  12.635  0.00  0.00    +0.000 HD
ENDBRANCH   3   9
BRANCH   6  11
ATOM     11  O   UNL     1     -19.201   3.390  11.412  0.00  0.00    +0.000 OA
ATOM     12  H   UNL     1     -19.566   3.884  12.167  0.00  0.00    +0.000 HD
ENDBRANCH   6  11
BRANCH   1  14
ATOM     13  O   UNL     1     -24.016  -0.633  10.368  0.00  0.00    +0.000 OA
ATOM     14  C   UNL     1     -22.880  -0.624   9.907  0.00  0.00    +0.000 C 
BRANCH  14  15
ATOM     15  C   UNL     1     -22.448  -1.731   9.090  0.00  0.00    +0.000 C 
ATOM     16  C   UNL     1     -22.105  -2.657   8.404  0.00  0.00    +0.000 C 
BRANCH  16  17
ATOM     17  C   UNL     1     -21.692  -3.755   7.593  0.00  0.00    +0.000 A 
ATOM     18  C   UNL     1     -22.470  -4.145   6.505  0.00  0.00    +0.000 A 
ATOM     19  C   UNL     1     -20.514  -4.436   7.891  0.00  0.00    +0.000 A 
ATOM     20  C   UNL     1     -22.069  -5.218   5.713  0.00  0.00    +0.000 A 
ATOM     21  C   UNL     1     -20.113  -5.509   7.098  0.00  0.00    +0.000 A 
ATOM     22  C   UNL     1     -20.891  -5.900   6.011  0.00  0.00    +0.000 A 
ENDBRANCH  16  17
ENDBRANCH  14  15
ENDBRANCH   1  14
TORSDOF 6
ENDMDL
MODEL 9
REMARK VINA RESULT:      -5.1     16.950     19.360
REMARK  Name = 641785_Cardamonin.pdbqt.pdb
REMARK  6 active torsions:
REMARK  status: ('A' for Active; 'I' for Inactive)
REMARK    1  A    between atoms: C_1  and  C_14
REMARK    2  A    between atoms: C_2  and  O_7
REMARK    3  A    between atoms: C_3  and  O_9
REMARK    4  A    between atoms: C_6  and  O_11
REMARK    5  A    between atoms: C_14  and  C_15
REMARK    6  A    between atoms: C_16  and  C_17
REMARK                            x       y       z     vdW  Elec       q    Type
REMARK                         _______ _______ _______ _____ _____    ______ ____
ROOT
ATOM      1  C   UNL     1      -3.081  -5.662   0.768  0.00  0.00    +0.000 A 
ATOM      2  C   UNL     1      -4.056  -5.038  -0.034  0.00  0.00    +0.000 A 
ATOM      3  C   UNL     1      -3.381  -6.907   1.357  0.00  0.00    +0.000 A 
ATOM      4  C   UNL     1      -5.303  -5.657  -0.204  0.00  0.00    +0.000 A 
ATOM      5  C   UNL     1      -4.629  -7.503   1.187  0.00  0.00    +0.000 A 
ATOM      6  C   UNL     1      -5.586  -6.870   0.411  0.00  0.00    +0.000 A 
ENDROOT
BRANCH   2   7
ATOM      7  O   UNL     1      -3.733  -3.875  -0.694  0.00  0.00    +0.000 OA
ATOM      8  C   UNL     1      -4.380  -2.716  -0.248  0.00  0.00    +0.000 C 
ENDBRANCH   2   7
BRANCH   3   9
ATOM      9  O   UNL     1      -2.494  -7.614   2.129  0.00  0.00    +0.000 OA
ATOM     10  H   UNL     1      -2.521  -8.564   1.878  0.00  0.00    +0.000 HD
ENDBRANCH   3   9
BRANCH   6  11
ATOM     11  O   UNL     1      -6.802  -7.464   0.254  0.00  0.00    +0.000 OA
ATOM     12  H   UNL     1      -7.011  -7.505  -0.696  0.00  0.00    +0.000 HD
ENDBRANCH   6  11
BRANCH   1  14
ATOM     13  O   UNL     1      -0.753  -5.513   0.445  0.00  0.00    +0.000 OA
ATOM     14  C   UNL     1      -1.740  -5.079   1.029  0.00  0.00    +0.000 C 
BRANCH  14  15
ATOM     15  C   UNL     1      -1.568  -4.050   2.024  0.00  0.00    +0.000 C 
ATOM     16  C   UNL     1      -1.409  -3.200   2.860  0.00  0.00    +0.000 C 
BRANCH  16  17
ATOM     17  C   UNL     1      -1.228  -2.191   3.851  0.00  0.00    +0.000 A 
ATOM     18  C   UNL     1      -2.238  -1.938   4.777  0.00  0.00    +0.000 A 
ATOM     19  C   UNL     1      -0.044  -1.458   3.889  0.00  0.00    +0.000 A 
ATOM     20  C   UNL     1      -2.062  -0.950   5.744  0.00  0.00    +0.000 A 
ATOM     21  C   UNL     1       0.131  -0.471   4.857  0.00  0.00    +0.000 A 
ATOM     22  C   UNL     1      -0.878  -0.218   5.782  0.00  0.00    +0.000 A 
ENDBRANCH  16  17
ENDBRANCH  14  15
ENDBRANCH   1  14
TORSDOF 6
ENDMDL
