MODEL 1
REMARK VINA RESULT:      -5.8      0.000      0.000
REMARK  Name = 6440856_Goniothalamin.pdbqt.pdb
REMARK  2 active torsions:
REMARK  status: ('A' for Active; 'I' for Inactive)
REMARK    1  A    between atoms: C_1  and  C_5
REMARK    2  A    between atoms: C_2  and  C_10
REMARK                            x       y       z     vdW  Elec       q    Type
REMARK                         _______ _______ _______ _____ _____    ______ ____
ROOT
ATOM      1  C   UNL     1     -10.252  -3.394  20.242  0.00  0.00    +0.000 C 
ATOM      2  C   UNL     1      -9.802  -4.017  19.319  0.00  0.00    +0.000 C 
ENDROOT
BRANCH   1   5
ATOM      3  O   UNL     1     -12.022  -3.094  21.914  0.00  0.00    +0.000 OA
ATOM      4  O   UNL     1     -13.578  -2.623  23.568  0.00  0.00    +0.000 OA
ATOM      5  C   UNL     1     -10.783  -2.657  21.326  0.00  0.00    +0.000 A 
ATOM      6  C   UNL     1     -10.205  -1.498  21.912  0.00  0.00    +0.000 A 
ATOM      7  C   UNL     1     -10.704  -0.658  23.065  0.00  0.00    +0.000 A 
ATOM      8  C   UNL     1     -11.720  -1.219  23.362  0.00  0.00    +0.000 A 
ATOM      9  C   UNL     1     -12.538  -2.356  22.986  0.00  0.00    +0.000 A 
ENDBRANCH   1   5
BRANCH   2  10
ATOM     10  C   UNL     1      -9.269  -4.758  18.224  0.00  0.00    +0.000 A 
ATOM     11  C   UNL     1      -8.084  -5.474  18.379  0.00  0.00    +0.000 A 
ATOM     12  C   UNL     1      -9.935  -4.766  17.000  0.00  0.00    +0.000 A 
ATOM     13  C   UNL     1      -7.563  -6.197  17.308  0.00  0.00    +0.000 A 
ATOM     14  C   UNL     1      -9.414  -5.489  15.929  0.00  0.00    +0.000 A 
ATOM     15  C   UNL     1      -8.228  -6.205  16.084  0.00  0.00    +0.000 A 
ENDBRANCH   2  10
TORSDOF 2
ENDMDL
MODEL 2
REMARK VINA RESULT:      -5.6      1.450      2.021
REMARK  Name = 6440856_Goniothalamin.pdbqt.pdb
REMARK  2 active torsions:
REMARK  status: ('A' for Active; 'I' for Inactive)
REMARK    1  A    between atoms: C_1  and  C_5
REMARK    2  A    between atoms: C_2  and  C_10
REMARK                            x       y       z     vdW  Elec       q    Type
REMARK                         _______ _______ _______ _____ _____    ______ ____
ROOT
ATOM      1  C   UNL     1     -11.118  -3.608  21.728  0.00  0.00    +0.000 C 
ATOM      2  C   UNL     1     -10.531  -4.016  20.764  0.00  0.00    +0.000 C 
ENDROOT
BRANCH   1   5
ATOM      3  O   UNL     1     -12.935  -2.245  22.657  0.00  0.00    +0.000 OA
ATOM      4  O   UNL     1     -14.578  -1.023  23.746  0.00  0.00    +0.000 OA
ATOM      5  C   UNL     1     -11.812  -3.123  22.860  0.00  0.00    +0.000 A 
ATOM      6  C   UNL     1     -11.509  -3.420  24.217  0.00  0.00    +0.000 A 
ATOM      7  C   UNL     1     -12.196  -2.947  25.477  0.00  0.00    +0.000 A 
ATOM      8  C   UNL     1     -13.068  -2.251  25.042  0.00  0.00    +0.000 A 
ATOM      9  C   UNL     1     -13.613  -1.772  23.787  0.00  0.00    +0.000 A 
ENDBRANCH   1   5
BRANCH   2  10
ATOM     10  C   UNL     1      -9.833  -4.502  19.619  0.00  0.00    +0.000 A 
ATOM     11  C   UNL     1      -8.836  -5.464  19.768  0.00  0.00    +0.000 A 
ATOM     12  C   UNL     1     -10.150  -4.015  18.353  0.00  0.00    +0.000 A 
ATOM     13  C   UNL     1      -8.154  -5.937  18.649  0.00  0.00    +0.000 A 
ATOM     14  C   UNL     1      -9.468  -4.489  17.234  0.00  0.00    +0.000 A 
ATOM     15  C   UNL     1      -8.471  -5.450  17.383  0.00  0.00    +0.000 A 
ENDBRANCH   2  10
TORSDOF 2
ENDMDL
MODEL 3
REMARK VINA RESULT:      -5.6      3.250      3.482
REMARK  Name = 6440856_Goniothalamin.pdbqt.pdb
REMARK  2 active torsions:
REMARK  status: ('A' for Active; 'I' for Inactive)
REMARK    1  A    between atoms: C_1  and  C_5
REMARK    2  A    between atoms: C_2  and  C_10
REMARK                            x       y       z     vdW  Elec       q    Type
REMARK                         _______ _______ _______ _____ _____    ______ ____
ROOT
ATOM      1  C   UNL     1      -9.488  -4.727  22.202  0.00  0.00    +0.000 C 
ATOM      2  C   UNL     1      -9.344  -4.840  21.015  0.00  0.00    +0.000 C 
ENDROOT
BRANCH   1   5
ATOM      3  O   UNL     1      -8.582  -4.987  24.468  0.00  0.00    +0.000 OA
ATOM      4  O   UNL     1      -7.928  -5.148  26.687  0.00  0.00    +0.000 OA
ATOM      5  C   UNL     1      -9.661  -4.593  23.599  0.00  0.00    +0.000 A 
ATOM      6  C   UNL     1     -10.820  -4.096  24.254  0.00  0.00    +0.000 A 
ATOM      7  C   UNL     1     -11.084  -3.921  25.732  0.00  0.00    +0.000 A 
ATOM      8  C   UNL     1     -10.061  -4.311  26.217  0.00  0.00    +0.000 A 
ATOM      9  C   UNL     1      -8.765  -4.850  25.848  0.00  0.00    +0.000 A 
ENDBRANCH   1   5
BRANCH   2  10
ATOM     10  C   UNL     1      -9.174  -4.975  19.606  0.00  0.00    +0.000 A 
ATOM     11  C   UNL     1      -8.287  -5.923  19.100  0.00  0.00    +0.000 A 
ATOM     12  C   UNL     1      -9.895  -4.159  18.737  0.00  0.00    +0.000 A 
ATOM     13  C   UNL     1      -8.120  -6.053  17.723  0.00  0.00    +0.000 A 
ATOM     14  C   UNL     1      -9.729  -4.291  17.360  0.00  0.00    +0.000 A 
ATOM     15  C   UNL     1      -8.842  -5.238  16.854  0.00  0.00    +0.000 A 
ENDBRANCH   2  10
TORSDOF 2
ENDMDL
MODEL 4
REMARK VINA RESULT:      -5.5      2.445      2.869
REMARK  Name = 6440856_Goniothalamin.pdbqt.pdb
REMARK  2 active torsions:
REMARK  status: ('A' for Active; 'I' for Inactive)
REMARK    1  A    between atoms: C_1  and  C_5
REMARK    2  A    between atoms: C_2  and  C_10
REMARK                            x       y       z     vdW  Elec       q    Type
REMARK                         _______ _______ _______ _____ _____    ______ ____
ROOT
ATOM      1  C   UNL     1      -8.939  -4.182  20.881  0.00  0.00    +0.000 C 
ATOM      2  C   UNL     1      -8.890  -4.575  19.748  0.00  0.00    +0.000 C 
ENDROOT
BRANCH   1   5
ATOM      3  O   UNL     1      -8.526  -4.578  23.268  0.00  0.00    +0.000 OA
ATOM      4  O   UNL     1      -8.222  -4.739  25.561  0.00  0.00    +0.000 OA
ATOM      5  C   UNL     1      -9.000  -3.717  22.215  0.00  0.00    +0.000 A 
ATOM      6  C   UNL     1      -9.494  -2.453  22.639  0.00  0.00    +0.000 A 
ATOM      7  C   UNL     1      -9.594  -1.882  24.034  0.00  0.00    +0.000 A 
ATOM      8  C   UNL     1      -9.148  -2.772  24.701  0.00  0.00    +0.000 A 
ATOM      9  C   UNL     1      -8.592  -4.106  24.584  0.00  0.00    +0.000 A 
ENDBRANCH   1   5
BRANCH   2  10
ATOM     10  C   UNL     1      -8.832  -5.042  18.402  0.00  0.00    +0.000 A 
ATOM     11  C   UNL     1      -9.813  -4.660  17.490  0.00  0.00    +0.000 A 
ATOM     12  C   UNL     1      -7.793  -5.880  18.001  0.00  0.00    +0.000 A 
ATOM     13  C   UNL     1      -9.756  -5.118  16.175  0.00  0.00    +0.000 A 
ATOM     14  C   UNL     1      -7.737  -6.337  16.686  0.00  0.00    +0.000 A 
ATOM     15  C   UNL     1      -8.718  -5.955  15.774  0.00  0.00    +0.000 A 
ENDBRANCH   2  10
TORSDOF 2
ENDMDL
MODEL 5
REMARK VINA RESULT:      -5.4     17.133     18.907
REMARK  Name = 6440856_Goniothalamin.pdbqt.pdb
REMARK  2 active torsions:
REMARK  status: ('A' for Active; 'I' for Inactive)
REMARK    1  A    between atoms: C_1  and  C_5
REMARK    2  A    between atoms: C_2  and  C_10
REMARK                            x       y       z     vdW  Elec       q    Type
REMARK                         _______ _______ _______ _____ _____    ______ ____
ROOT
ATOM      1  C   UNL     1       3.550 -12.642  12.349  0.00  0.00    +0.000 C 
ATOM      2  C   UNL     1       3.492 -13.817  12.590  0.00  0.00    +0.000 C 
ENDROOT
BRANCH   1   5
ATOM      3  O   UNL     1       4.854 -10.564  12.297  0.00  0.00    +0.000 OA
ATOM      4  O   UNL     1       5.895  -8.496  12.166  0.00  0.00    +0.000 OA
ATOM      5  C   UNL     1       3.615 -11.259  12.062  0.00  0.00    +0.000 A 
ATOM      6  C   UNL     1       2.557 -10.460  11.550  0.00  0.00    +0.000 A 
ATOM      7  C   UNL     1       2.544  -8.986  11.218  0.00  0.00    +0.000 A 
ATOM      8  C   UNL     1       3.661  -8.656  11.498  0.00  0.00    +0.000 A 
ATOM      9  C   UNL     1       4.906  -9.195  12.010  0.00  0.00    +0.000 A 
ENDBRANCH   1   5
BRANCH   2  10
ATOM     10  C   UNL     1       3.423 -15.212  12.877  0.00  0.00    +0.000 A 
ATOM     11  C   UNL     1       4.299 -15.776  13.802  0.00  0.00    +0.000 A 
ATOM     12  C   UNL     1       2.478 -16.008  12.233  0.00  0.00    +0.000 A 
ATOM     13  C   UNL     1       4.231 -17.139  14.081  0.00  0.00    +0.000 A 
ATOM     14  C   UNL     1       2.411 -17.371  12.514  0.00  0.00    +0.000 A 
ATOM     15  C   UNL     1       3.287 -17.936  13.438  0.00  0.00    +0.000 A 
ENDBRANCH   2  10
TORSDOF 2
ENDMDL
MODEL 6
REMARK VINA RESULT:      -5.4     17.273     19.228
REMARK  Name = 6440856_Goniothalamin.pdbqt.pdb
REMARK  2 active torsions:
REMARK  status: ('A' for Active; 'I' for Inactive)
REMARK    1  A    between atoms: C_1  and  C_5
REMARK    2  A    between atoms: C_2  and  C_10
REMARK                            x       y       z     vdW  Elec       q    Type
REMARK                         _______ _______ _______ _____ _____    ______ ____
ROOT
ATOM      1  C   UNL     1       3.533 -13.522  12.730  0.00  0.00    +0.000 C 
ATOM      2  C   UNL     1       3.516 -12.341  12.517  0.00  0.00    +0.000 C 
ENDROOT
BRANCH   1   5
ATOM      3  O   UNL     1       2.589 -15.747  12.304  0.00  0.00    +0.000 OA
ATOM      4  O   UNL     1       1.855 -17.932  12.051  0.00  0.00    +0.000 OA
ATOM      5  C   UNL     1       3.550 -14.914  12.980  0.00  0.00    +0.000 A 
ATOM      6  C   UNL     1       4.441 -15.597  13.852  0.00  0.00    +0.000 A 
ATOM      7  C   UNL     1       4.525 -17.071  14.173  0.00  0.00    +0.000 A 
ATOM      8  C   UNL     1       3.643 -17.524  13.501  0.00  0.00    +0.000 A 
ATOM      9  C   UNL     1       2.616 -17.123  12.560  0.00  0.00    +0.000 A 
ENDBRANCH   1   5
BRANCH   2  10
ATOM     10  C   UNL     1       3.495 -10.937  12.265  0.00  0.00    +0.000 A 
ATOM     11  C   UNL     1       2.538 -10.399  11.406  0.00  0.00    +0.000 A 
ATOM     12  C   UNL     1       4.430 -10.106  12.877  0.00  0.00    +0.000 A 
ATOM     13  C   UNL     1       2.519  -9.028  11.159  0.00  0.00    +0.000 A 
ATOM     14  C   UNL     1       4.410  -8.736  12.630  0.00  0.00    +0.000 A 
ATOM     15  C   UNL     1       3.454  -8.197  11.772  0.00  0.00    +0.000 A 
ENDBRANCH   2  10
TORSDOF 2
ENDMDL
MODEL 7
REMARK VINA RESULT:      -5.3      1.591      2.707
REMARK  Name = 6440856_Goniothalamin.pdbqt.pdb
REMARK  2 active torsions:
REMARK  status: ('A' for Active; 'I' for Inactive)
REMARK    1  A    between atoms: C_1  and  C_5
REMARK    2  A    between atoms: C_2  and  C_10
REMARK                            x       y       z     vdW  Elec       q    Type
REMARK                         _______ _______ _______ _____ _____    ______ ____
ROOT
ATOM      1  C   UNL     1     -11.590  -3.247  22.026  0.00  0.00    +0.000 C 
ATOM      2  C   UNL     1     -10.956  -3.686  21.105  0.00  0.00    +0.000 C 
ENDROOT
BRANCH   1   5
ATOM      3  O   UNL     1     -12.737  -3.633  24.160  0.00  0.00    +0.000 OA
ATOM      4  O   UNL     1     -13.875  -3.772  26.175  0.00  0.00    +0.000 OA
ATOM      5  C   UNL     1     -12.339  -2.733  23.109  0.00  0.00    +0.000 A 
ATOM      6  C   UNL     1     -12.752  -1.383  23.275  0.00  0.00    +0.000 A 
ATOM      7  C   UNL     1     -13.549  -0.756  24.395  0.00  0.00    +0.000 A 
ATOM      8  C   UNL     1     -13.749  -1.692  25.115  0.00  0.00    +0.000 A 
ATOM      9  C   UNL     1     -13.479  -3.113  25.226  0.00  0.00    +0.000 A 
ENDBRANCH   1   5
BRANCH   2  10
ATOM     10  C   UNL     1     -10.202  -4.207  20.012  0.00  0.00    +0.000 A 
ATOM     11  C   UNL     1     -10.439  -3.743  18.720  0.00  0.00    +0.000 A 
ATOM     12  C   UNL     1      -9.230  -5.179  20.239  0.00  0.00    +0.000 A 
ATOM     13  C   UNL     1      -9.703  -4.254  17.653  0.00  0.00    +0.000 A 
ATOM     14  C   UNL     1      -8.494  -5.688  19.171  0.00  0.00    +0.000 A 
ATOM     15  C   UNL     1      -8.731  -5.225  17.879  0.00  0.00    +0.000 A 
ENDBRANCH   2  10
TORSDOF 2
ENDMDL
MODEL 8
REMARK VINA RESULT:      -5.3      3.908      6.893
REMARK  Name = 6440856_Goniothalamin.pdbqt.pdb
REMARK  2 active torsions:
REMARK  status: ('A' for Active; 'I' for Inactive)
REMARK    1  A    between atoms: C_1  and  C_5
REMARK    2  A    between atoms: C_2  and  C_10
REMARK                            x       y       z     vdW  Elec       q    Type
REMARK                         _______ _______ _______ _____ _____    ______ ____
ROOT
ATOM      1  C   UNL     1      -9.098  -0.662  20.629  0.00  0.00    +0.000 C 
ATOM      2  C   UNL     1      -9.302   0.507  20.445  0.00  0.00    +0.000 C 
ENDROOT
BRANCH   1   5
ATOM      3  O   UNL     1      -8.237  -2.447  22.075  0.00  0.00    +0.000 OA
ATOM      4  O   UNL     1      -7.486  -4.284  23.275  0.00  0.00    +0.000 OA
ATOM      5  C   UNL     1      -8.861  -2.039  20.844  0.00  0.00    +0.000 A 
ATOM      6  C   UNL     1      -9.184  -3.093  19.946  0.00  0.00    +0.000 A 
ATOM      7  C   UNL     1      -8.966  -4.581  20.098  0.00  0.00    +0.000 A 
ATOM      8  C   UNL     1      -8.447  -4.649  21.175  0.00  0.00    +0.000 A 
ATOM      9  C   UNL     1      -8.007  -3.814  22.275  0.00  0.00    +0.000 A 
ENDBRANCH   1   5
BRANCH   2  10
ATOM     10  C   UNL     1      -9.543   1.895  20.225  0.00  0.00    +0.000 A 
ATOM     11  C   UNL     1      -9.975   2.701  21.276  0.00  0.00    +0.000 A 
ATOM     12  C   UNL     1      -9.346   2.444  18.960  0.00  0.00    +0.000 A 
ATOM     13  C   UNL     1     -10.212   4.057  21.061  0.00  0.00    +0.000 A 
ATOM     14  C   UNL     1      -9.582   3.800  18.745  0.00  0.00    +0.000 A 
ATOM     15  C   UNL     1     -10.014   4.606  19.796  0.00  0.00    +0.000 A 
ENDBRANCH   2  10
TORSDOF 2
ENDMDL
MODEL 9
REMARK VINA RESULT:      -5.0     17.075     17.922
REMARK  Name = 6440856_Goniothalamin.pdbqt.pdb
REMARK  2 active torsions:
REMARK  status: ('A' for Active; 'I' for Inactive)
REMARK    1  A    between atoms: C_1  and  C_5
REMARK    2  A    between atoms: C_2  and  C_10
REMARK                            x       y       z     vdW  Elec       q    Type
REMARK                         _______ _______ _______ _____ _____    ______ ____
ROOT
ATOM      1  C   UNL     1       5.288  -6.410  12.857  0.00  0.00    +0.000 C 
ATOM      2  C   UNL     1       4.767  -7.459  12.595  0.00  0.00    +0.000 C 
ENDROOT
BRANCH   1   5
ATOM      3  O   UNL     1       6.785  -4.581  12.197  0.00  0.00    +0.000 OA
ATOM      4  O   UNL     1       8.153  -2.756  11.780  0.00  0.00    +0.000 OA
ATOM      5  C   UNL     1       5.905  -5.176  13.169  0.00  0.00    +0.000 A 
ATOM      6  C   UNL     1       5.742  -4.440  14.374  0.00  0.00    +0.000 A 
ATOM      7  C   UNL     1       6.359  -3.123  14.783  0.00  0.00    +0.000 A 
ATOM      8  C   UNL     1       7.028  -2.852  13.827  0.00  0.00    +0.000 A 
ATOM      9  C   UNL     1       7.389  -3.359  12.517  0.00  0.00    +0.000 A 
ENDBRANCH   1   5
BRANCH   2  10
ATOM     10  C   UNL     1       4.148  -8.706  12.284  0.00  0.00    +0.000 A 
ATOM     11  C   UNL     1       4.802  -9.900  12.579  0.00  0.00    +0.000 A 
ATOM     12  C   UNL     1       2.890  -8.727  11.684  0.00  0.00    +0.000 A 
ATOM     13  C   UNL     1       4.197 -11.117  12.274  0.00  0.00    +0.000 A 
ATOM     14  C   UNL     1       2.286  -9.945  11.380  0.00  0.00    +0.000 A 
ATOM     15  C   UNL     1       2.940 -11.139  11.675  0.00  0.00    +0.000 A 
ENDBRANCH   2  10
TORSDOF 2
ENDMDL
