MODEL 1
REMARK VINA RESULT:      -3.5      0.000      0.000
REMARK  Name = 649_Dihydrouracil.pdb
REMARK  0 active torsions:
REMARK  status: ('A' for Active; 'I' for Inactive)
REMARK                            x       y       z     vdW  Elec       q    Type
REMARK                         _______ _______ _______ _____ _____    ______ ____
ROOT
ATOM      1  O   UNL     1     -11.618  -3.409  18.881  0.00  0.00    +0.000 OA
ATOM      2  O   UNL     1     -10.698  -5.817  22.708  0.00  0.00    +0.000 OA
ATOM      3  N   UNL     1      -9.014  -4.530  21.831  0.00  0.00    +0.000 N 
ATOM      4  N   UNL     1     -11.135  -4.609  20.802  0.00  0.00    +0.000 N 
ATOM      5  C   UNL     1      -8.578  -3.682  20.891  0.00  0.00    +0.000 A 
ATOM      6  C   UNL     1      -9.486  -3.238  19.790  0.00  0.00    +0.000 A 
ATOM      7  C   UNL     1     -10.833  -3.736  19.757  0.00  0.00    +0.000 A 
ATOM      8  C   UNL     1     -10.307  -5.041  21.844  0.00  0.00    +0.000 A 
ATOM      9  H   UNL     1      -8.391  -4.823  22.573  0.00  0.00    +0.000 HD
ATOM     10  H   UNL     1     -12.073  -4.978  20.808  0.00  0.00    +0.000 HD
ENDROOT
TORSDOF 0
ENDMDL
MODEL 2
REMARK VINA RESULT:      -3.4     17.256     17.664
REMARK  Name = 649_Dihydrouracil.pdb
REMARK  0 active torsions:
REMARK  status: ('A' for Active; 'I' for Inactive)
REMARK                            x       y       z     vdW  Elec       q    Type
REMARK                         _______ _______ _______ _____ _____    ______ ____
ROOT
ATOM      1  O   UNL     1       4.782  -7.900  12.315  0.00  0.00    +0.000 OA
ATOM      2  O   UNL     1       4.400 -12.486  12.657  0.00  0.00    +0.000 OA
ATOM      3  N   UNL     1       2.712 -11.355  11.593  0.00  0.00    +0.000 N 
ATOM      4  N   UNL     1       4.571 -10.202  12.476  0.00  0.00    +0.000 N 
ATOM      5  C   UNL     1       2.185 -10.201  11.165  0.00  0.00    +0.000 A 
ATOM      6  C   UNL     1       2.898  -8.909  11.400  0.00  0.00    +0.000 A 
ATOM      7  C   UNL     1       4.156  -8.926  12.094  0.00  0.00    +0.000 A 
ATOM      8  C   UNL     1       3.925 -11.426  12.268  0.00  0.00    +0.000 A 
ATOM      9  H   UNL     1       2.221 -12.225  11.428  0.00  0.00    +0.000 HD
ATOM     10  H   UNL     1       5.451 -10.248  12.965  0.00  0.00    +0.000 HD
ENDROOT
TORSDOF 0
ENDMDL
MODEL 3
REMARK VINA RESULT:      -3.4      1.901      2.186
REMARK  Name = 649_Dihydrouracil.pdb
REMARK  0 active torsions:
REMARK  status: ('A' for Active; 'I' for Inactive)
REMARK                            x       y       z     vdW  Elec       q    Type
REMARK                         _______ _______ _______ _____ _____    ______ ____
ROOT
ATOM      1  O   UNL     1     -11.855  -3.524  21.804  0.00  0.00    +0.000 OA
ATOM      2  O   UNL     1      -7.637  -4.393  23.460  0.00  0.00    +0.000 OA
ATOM      3  N   UNL     1      -7.902  -4.378  21.183  0.00  0.00    +0.000 N 
ATOM      4  N   UNL     1      -9.730  -3.962  22.615  0.00  0.00    +0.000 N 
ATOM      5  C   UNL     1      -8.694  -4.229  20.112  0.00  0.00    +0.000 A 
ATOM      6  C   UNL     1     -10.145  -3.915  20.280  0.00  0.00    +0.000 A 
ATOM      7  C   UNL     1     -10.677  -3.778  21.607  0.00  0.00    +0.000 A 
ATOM      8  C   UNL     1      -8.367  -4.255  22.486  0.00  0.00    +0.000 A 
ATOM      9  H   UNL     1      -6.921  -4.589  21.057  0.00  0.00    +0.000 HD
ATOM     10  H   UNL     1     -10.071  -3.872  23.559  0.00  0.00    +0.000 HD
ENDROOT
TORSDOF 0
ENDMDL
MODEL 4
REMARK VINA RESULT:      -3.4     13.991     14.932
REMARK  Name = 649_Dihydrouracil.pdb
REMARK  0 active torsions:
REMARK  status: ('A' for Active; 'I' for Inactive)
REMARK                            x       y       z     vdW  Elec       q    Type
REMARK                         _______ _______ _______ _____ _____    ______ ____
ROOT
ATOM      1  O   UNL     1     -21.389  -6.930  13.884  0.00  0.00    +0.000 OA
ATOM      2  O   UNL     1     -20.760  -4.557   9.977  0.00  0.00    +0.000 OA
ATOM      3  N   UNL     1     -22.482  -3.912  11.346  0.00  0.00    +0.000 N 
ATOM      4  N   UNL     1     -21.091  -5.725  11.928  0.00  0.00    +0.000 N 
ATOM      5  C   UNL     1     -23.189  -4.080  12.472  0.00  0.00    +0.000 A 
ATOM      6  C   UNL     1     -22.834  -5.165  13.435  0.00  0.00    +0.000 A 
ATOM      7  C   UNL     1     -21.724  -6.026  13.134  0.00  0.00    +0.000 A 
ATOM      8  C   UNL     1     -21.401  -4.717  11.009  0.00  0.00    +0.000 A 
ATOM      9  H   UNL     1     -22.731  -3.174  10.701  0.00  0.00    +0.000 HD
ATOM     10  H   UNL     1     -20.307  -6.312  11.687  0.00  0.00    +0.000 HD
ENDROOT
TORSDOF 0
ENDMDL
MODEL 5
REMARK VINA RESULT:      -3.4     17.478     18.043
REMARK  Name = 649_Dihydrouracil.pdb
REMARK  0 active torsions:
REMARK  status: ('A' for Active; 'I' for Inactive)
REMARK                            x       y       z     vdW  Elec       q    Type
REMARK                         _______ _______ _______ _____ _____    ______ ____
ROOT
ATOM      1  O   UNL     1       3.619 -12.565  11.943  0.00  0.00    +0.000 OA
ATOM      2  O   UNL     1       6.075  -8.666  12.184  0.00  0.00    +0.000 OA
ATOM      3  N   UNL     1       3.844  -8.488  11.683  0.00  0.00    +0.000 N 
ATOM      4  N   UNL     1       4.833 -10.596  12.059  0.00  0.00    +0.000 N 
ATOM      5  C   UNL     1       2.658  -9.071  11.468  0.00  0.00    +0.000 A 
ATOM      6  C   UNL     1       2.517 -10.557  11.551  0.00  0.00    +0.000 A 
ATOM      7  C   UNL     1       3.675 -11.348  11.863  0.00  0.00    +0.000 A 
ATOM      8  C   UNL     1       4.993  -9.208  11.989  0.00  0.00    +0.000 A 
ATOM      9  H   UNL     1       3.928  -7.481  11.626  0.00  0.00    +0.000 HD
ATOM     10  H   UNL     1       5.664 -11.122  12.280  0.00  0.00    +0.000 HD
ENDROOT
TORSDOF 0
ENDMDL
MODEL 6
REMARK VINA RESULT:      -3.2      2.006      2.841
REMARK  Name = 649_Dihydrouracil.pdb
REMARK  0 active torsions:
REMARK  status: ('A' for Active; 'I' for Inactive)
REMARK                            x       y       z     vdW  Elec       q    Type
REMARK                         _______ _______ _______ _____ _____    ______ ____
ROOT
ATOM      1  O   UNL     1     -11.518  -5.559  22.556  0.00  0.00    +0.000 OA
ATOM      2  O   UNL     1      -8.164  -5.655  19.388  0.00  0.00    +0.000 OA
ATOM      3  N   UNL     1      -9.446  -3.759  19.523  0.00  0.00    +0.000 N 
ATOM      4  N   UNL     1      -9.840  -5.587  20.960  0.00  0.00    +0.000 N 
ATOM      5  C   UNL     1     -10.449  -3.079  20.094  0.00  0.00    +0.000 A 
ATOM      6  C   UNL     1     -11.239  -3.688  21.207  0.00  0.00    +0.000 A 
ATOM      7  C   UNL     1     -10.906  -5.012  21.652  0.00  0.00    +0.000 A 
ATOM      8  C   UNL     1      -9.083  -5.041  19.917  0.00  0.00    +0.000 A 
ATOM      9  H   UNL     1      -8.916  -3.336  18.771  0.00  0.00    +0.000 HD
ATOM     10  H   UNL     1      -9.581  -6.517  21.248  0.00  0.00    +0.000 HD
ENDROOT
TORSDOF 0
ENDMDL
MODEL 7
REMARK VINA RESULT:      -3.1     19.417     20.192
REMARK  Name = 649_Dihydrouracil.pdb
REMARK  0 active torsions:
REMARK  status: ('A' for Active; 'I' for Inactive)
REMARK                            x       y       z     vdW  Elec       q    Type
REMARK                         _______ _______ _______ _____ _____    ______ ____
ROOT
ATOM      1  O   UNL     1      -1.455  -7.356   0.931  0.00  0.00    +0.000 OA
ATOM      2  O   UNL     1      -5.431  -7.564   3.264  0.00  0.00    +0.000 OA
ATOM      3  N   UNL     1      -4.754  -5.511   2.498  0.00  0.00    +0.000 N 
ATOM      4  N   UNL     1      -3.454  -7.438   2.100  0.00  0.00    +0.000 N 
ATOM      5  C   UNL     1      -3.859  -4.759   1.844  0.00  0.00    +0.000 A 
ATOM      6  C   UNL     1      -2.637  -5.380   1.251  0.00  0.00    +0.000 A 
ATOM      7  C   UNL     1      -2.437  -6.795   1.394  0.00  0.00    +0.000 A 
ATOM      8  C   UNL     1      -4.608  -6.883   2.664  0.00  0.00    +0.000 A 
ATOM      9  H   UNL     1      -5.580  -5.080   2.895  0.00  0.00    +0.000 HD
ATOM     10  H   UNL     1      -3.344  -8.433   2.218  0.00  0.00    +0.000 HD
ENDROOT
TORSDOF 0
ENDMDL
MODEL 8
REMARK VINA RESULT:      -3.1      2.315      3.477
REMARK  Name = 649_Dihydrouracil.pdb
REMARK  0 active torsions:
REMARK  status: ('A' for Active; 'I' for Inactive)
REMARK                            x       y       z     vdW  Elec       q    Type
REMARK                         _______ _______ _______ _____ _____    ______ ____
ROOT
ATOM      1  O   UNL     1      -8.162  -2.252  22.048  0.00  0.00    +0.000 OA
ATOM      2  O   UNL     1     -10.823  -2.517  18.287  0.00  0.00    +0.000 OA
ATOM      3  N   UNL     1      -9.699  -4.410  18.930  0.00  0.00    +0.000 N 
ATOM      4  N   UNL     1      -9.492  -2.407  20.157  0.00  0.00    +0.000 N 
ATOM      5  C   UNL     1      -8.866  -5.028  19.777  0.00  0.00    +0.000 A 
ATOM      6  C   UNL     1      -8.276  -4.289  20.934  0.00  0.00    +0.000 A 
ATOM      7  C   UNL     1      -8.615  -2.906  21.121  0.00  0.00    +0.000 A 
ATOM      8  C   UNL     1     -10.060  -3.075  19.067  0.00  0.00    +0.000 A 
ATOM      9  H   UNL     1     -10.094  -4.921  18.150  0.00  0.00    +0.000 HD
ATOM     10  H   UNL     1      -9.751  -1.438  20.260  0.00  0.00    +0.000 HD
ENDROOT
TORSDOF 0
ENDMDL
MODEL 9
REMARK VINA RESULT:      -3.0     15.402     16.545
REMARK  Name = 649_Dihydrouracil.pdb
REMARK  0 active torsions:
REMARK  status: ('A' for Active; 'I' for Inactive)
REMARK                            x       y       z     vdW  Elec       q    Type
REMARK                         _______ _______ _______ _____ _____    ______ ____
ROOT
ATOM      1  O   UNL     1     -22.023  -3.257   6.287  0.00  0.00    +0.000 OA
ATOM      2  O   UNL     1     -18.402  -5.308   8.280  0.00  0.00    +0.000 OA
ATOM      3  N   UNL     1     -20.232  -4.873   9.592  0.00  0.00    +0.000 N 
ATOM      4  N   UNL     1     -20.216  -4.287   7.307  0.00  0.00    +0.000 N 
ATOM      5  C   UNL     1     -21.471  -4.381   9.720  0.00  0.00    +0.000 A 
ATOM      6  C   UNL     1     -22.173  -3.780   8.546  0.00  0.00    +0.000 A 
ATOM      7  C   UNL     1     -21.498  -3.737   7.280  0.00  0.00    +0.000 A 
ATOM      8  C   UNL     1     -19.536  -4.856   8.389  0.00  0.00    +0.000 A 
ATOM      9  H   UNL     1     -19.766  -5.278  10.393  0.00  0.00    +0.000 HD
ATOM     10  H   UNL     1     -19.715  -4.273   6.433  0.00  0.00    +0.000 HD
ENDROOT
TORSDOF 0
ENDMDL
