REMARK  Name = 649_Dihydrouracil.pdb
REMARK  0 active torsions:
REMARK  status: ('A' for Active; 'I' for Inactive)
REMARK                            x       y       z     vdW  Elec       q    Type
REMARK                         _______ _______ _______ _____ _____    ______ ____
ROOT
ATOM      1  O   UNL     1       2.316  -1.044   0.056  0.00  0.00    +0.000 OA
ATOM      2  O   UNL     1      -2.298  -0.983   0.046  0.00  0.00    +0.000 OA
ATOM      3  N   UNL     1      -1.208   1.033  -0.028  0.00  0.00    +0.000 N 
ATOM      4  N   UNL     1       0.000  -0.991   0.050  0.00  0.00    +0.000 N 
ATOM      5  C   UNL     1      -0.063   1.728  -0.052  0.00  0.00    +0.000 A 
ATOM      6  C   UNL     1       1.253   1.021  -0.024  0.00  0.00    +0.000 A 
ATOM      7  C   UNL     1       1.270  -0.414   0.030  0.00  0.00    +0.000 A 
ATOM      8  C   UNL     1      -1.246  -0.355   0.024  0.00  0.00    +0.000 A 
ATOM      9  H   UNL     1      -2.094   1.522  -0.048  0.00  0.00    +0.000 HD
ATOM     10  H   UNL     1      -0.023  -1.998   0.088  0.00  0.00    +0.000 HD
ENDROOT
TORSDOF 0
