MODEL 1
REMARK VINA RESULT:      -8.3      0.000      0.000
REMARK  Name = 6509753_ManzamineA.pdbqt.pdb
REMARK  2 active torsions:
REMARK  status: ('A' for Active; 'I' for Inactive)
REMARK    1  A    between atoms: C_7  and  O_42
REMARK    2  A    between atoms: C_11  and  C_30
REMARK                            x       y       z     vdW  Elec       q    Type
REMARK                         _______ _______ _______ _____ _____    ______ ____
ROOT
ATOM      1  N   UNL     1     -10.008  -7.670  26.732  0.00  0.00    +0.000 N 
ATOM      2  N   UNL     1     -13.952  -4.778  25.769  0.00  0.00    +0.000 N 
ATOM      3  C   UNL     1     -11.538  -6.265  25.284  0.00  0.00    +0.000 C 
ATOM      4  C   UNL     1     -10.224  -6.330  26.127  0.00  0.00    +0.000 C 
ATOM      5  C   UNL     1     -11.472  -5.731  23.794  0.00  0.00    +0.000 C 
ATOM      6  C   UNL     1     -11.822  -7.697  25.311  0.00  0.00    +0.000 C 
ATOM      7  C   UNL     1      -8.992  -5.562  25.641  0.00  0.00    +0.000 C 
ATOM      8  C   UNL     1     -12.661  -5.519  25.953  0.00  0.00    +0.000 C 
ATOM      9  C   UNL     1     -11.143  -8.491  26.253  0.00  0.00    +0.000 C 
ATOM     10  C   UNL     1     -12.680  -5.065  23.376  0.00  0.00    +0.000 C 
ATOM     11  C   UNL     1     -10.186  -5.242  23.316  0.00  0.00    +0.000 C 
ATOM     12  C   UNL     1      -9.302  -5.236  24.264  0.00  0.00    +0.000 C 
ATOM     13  C   UNL     1     -13.793  -4.598  24.318  0.00  0.00    +0.000 C 
ATOM     14  C   UNL     1      -9.921  -7.607  28.193  0.00  0.00    +0.000 C 
ATOM     15  C   UNL     1      -8.740  -4.406  26.495  0.00  0.00    +0.000 C 
ATOM     16  C   UNL     1     -11.737  -9.495  27.076  0.00  0.00    +0.000 C 
ATOM     17  C   UNL     1     -13.814  -3.480  26.408  0.00  0.00    +0.000 C 
ATOM     18  C   UNL     1     -10.152  -8.018  29.659  0.00  0.00    +0.000 C 
ATOM     19  C   UNL     1      -8.644  -3.134  27.341  0.00  0.00    +0.000 C 
ATOM     20  C   UNL     1     -12.030 -10.066  28.091  0.00  0.00    +0.000 C 
ATOM     21  C   UNL     1     -10.965  -9.103  30.362  0.00  0.00    +0.000 C 
ATOM     22  C   UNL     1     -13.500  -2.171  27.139  0.00  0.00    +0.000 C 
ATOM     23  C   UNL     1     -11.850 -10.091  29.610  0.00  0.00    +0.000 C 
ATOM     24  C   UNL     1      -9.044  -1.849  28.061  0.00  0.00    +0.000 C 
ATOM     25  C   UNL     1     -12.699  -1.097  27.868  0.00  0.00    +0.000 C 
ATOM     26  C   UNL     1     -11.345  -0.628  28.374  0.00  0.00    +0.000 C 
ATOM     27  C   UNL     1      -9.890  -1.064  28.380  0.00  0.00    +0.000 C 
ENDROOT
BRANCH  11  30
ATOM     28  N   UNL     1      -9.670  -5.443  20.954  0.00  0.00    +0.000 NA
ATOM     29  N   UNL     1     -10.130  -2.237  22.744  0.00  0.00    +0.000 N 
ATOM     30  C   UNL     1      -9.919  -4.643  22.015  0.00  0.00    +0.000 A 
ATOM     31  C   UNL     1      -9.902  -3.260  21.852  0.00  0.00    +0.000 A 
ATOM     32  C   UNL     1      -9.632  -2.671  20.615  0.00  0.00    +0.000 A 
ATOM     33  C   UNL     1      -9.410  -4.866  19.761  0.00  0.00    +0.000 A 
ATOM     34  C   UNL     1      -9.370  -3.501  19.513  0.00  0.00    +0.000 A 
ATOM     35  C   UNL     1      -9.695  -1.255  20.791  0.00  0.00    +0.000 A 
ATOM     36  C   UNL     1     -10.008  -1.015  22.128  0.00  0.00    +0.000 A 
ATOM     37  C   UNL     1      -9.517  -0.156  19.930  0.00  0.00    +0.000 A 
ATOM     38  C   UNL     1     -10.154   0.272  22.656  0.00  0.00    +0.000 A 
ATOM     39  C   UNL     1      -9.659   1.137  20.439  0.00  0.00    +0.000 A 
ATOM     40  C   UNL     1      -9.972   1.342  21.778  0.00  0.00    +0.000 A 
ATOM     41  H   UNL     1     -10.366  -2.363  23.719  0.00  0.00    +0.000 HD
ENDBRANCH  11  30
BRANCH   7  42
ATOM     42  O   UNL     1      -7.843  -6.397  25.640  0.00  0.00    +0.000 OA
ATOM     43  H   UNL     1      -7.783  -6.770  24.744  0.00  0.00    +0.000 HD
ENDBRANCH   7  42
TORSDOF 2
ENDMDL
MODEL 2
REMARK VINA RESULT:      -7.9      2.710      6.920
REMARK  Name = 6509753_ManzamineA.pdbqt.pdb
REMARK  2 active torsions:
REMARK  status: ('A' for Active; 'I' for Inactive)
REMARK    1  A    between atoms: C_7  and  O_42
REMARK    2  A    between atoms: C_11  and  C_30
REMARK                            x       y       z     vdW  Elec       q    Type
REMARK                         _______ _______ _______ _____ _____    ______ ____
ROOT
ATOM      1  N   UNL     1      -8.710  -3.378  20.859  0.00  0.00    +0.000 N 
ATOM      2  N   UNL     1     -13.200  -4.110  22.895  0.00  0.00    +0.000 N 
ATOM      3  C   UNL     1     -10.688  -2.824  22.338  0.00  0.00    +0.000 C 
ATOM      4  C   UNL     1      -9.255  -3.441  22.239  0.00  0.00    +0.000 C 
ATOM      5  C   UNL     1     -10.976  -1.718  23.436  0.00  0.00    +0.000 C 
ATOM      6  C   UNL     1     -10.711  -2.245  20.998  0.00  0.00    +0.000 C 
ATOM      7  C   UNL     1      -8.278  -3.239  23.400  0.00  0.00    +0.000 C 
ATOM      8  C   UNL     1     -11.789  -3.843  22.464  0.00  0.00    +0.000 C 
ATOM      9  C   UNL     1      -9.751  -2.685  20.068  0.00  0.00    +0.000 C 
ATOM     10  C   UNL     1     -12.334  -1.735  23.916  0.00  0.00    +0.000 C 
ATOM     11  C   UNL     1      -9.897  -1.397  24.360  0.00  0.00    +0.000 C 
ATOM     12  C   UNL     1      -8.876  -2.175  24.181  0.00  0.00    +0.000 C 
ATOM     13  C   UNL     1     -13.330  -2.876  23.685  0.00  0.00    +0.000 C 
ATOM     14  C   UNL     1      -8.381  -4.707  20.336  0.00  0.00    +0.000 C 
ATOM     15  C   UNL     1      -8.085  -4.489  24.129  0.00  0.00    +0.000 C 
ATOM     16  C   UNL     1     -10.011  -3.031  18.708  0.00  0.00    +0.000 C 
ATOM     17  C   UNL     1     -13.179  -5.239  23.810  0.00  0.00    +0.000 C 
ATOM     18  C   UNL     1      -8.278  -5.859  19.319  0.00  0.00    +0.000 C 
ATOM     19  C   UNL     1      -8.064  -5.794  24.927  0.00  0.00    +0.000 C 
ATOM     20  C   UNL     1     -10.019  -3.715  17.720  0.00  0.00    +0.000 C 
ATOM     21  C   UNL     1      -8.757  -6.081  17.885  0.00  0.00    +0.000 C 
ATOM     22  C   UNL     1     -12.973  -6.439  24.738  0.00  0.00    +0.000 C 
ATOM     23  C   UNL     1      -9.576  -5.049  17.117  0.00  0.00    +0.000 C 
ATOM     24  C   UNL     1      -8.547  -7.035  25.673  0.00  0.00    +0.000 C 
ATOM     25  C   UNL     1     -12.254  -7.496  25.572  0.00  0.00    +0.000 C 
ATOM     26  C   UNL     1     -10.934  -8.041  26.091  0.00  0.00    +0.000 C 
ATOM     27  C   UNL     1      -9.447  -7.734  26.040  0.00  0.00    +0.000 C 
ENDROOT
BRANCH  11  30
ATOM     28  N   UNL     1     -10.132  -0.957  26.734  0.00  0.00    +0.000 NA
ATOM     29  N   UNL     1      -9.707   1.648  24.141  0.00  0.00    +0.000 N 
ATOM     30  C   UNL     1      -9.968  -0.472  25.483  0.00  0.00    +0.000 A 
ATOM     31  C   UNL     1      -9.883   0.904  25.285  0.00  0.00    +0.000 A 
ATOM     32  C   UNL     1      -9.965   1.804  26.349  0.00  0.00    +0.000 A 
ATOM     33  C   UNL     1     -10.210  -0.080  27.759  0.00  0.00    +0.000 A 
ATOM     34  C   UNL     1     -10.138   1.302  27.648  0.00  0.00    +0.000 A 
ATOM     35  C   UNL     1      -9.841   3.121  25.809  0.00  0.00    +0.000 A 
ATOM     36  C   UNL     1      -9.681   2.992  24.431  0.00  0.00    +0.000 A 
ATOM     37  C   UNL     1      -9.848   4.411  26.371  0.00  0.00    +0.000 A 
ATOM     38  C   UNL     1      -9.525   4.088  23.577  0.00  0.00    +0.000 A 
ATOM     39  C   UNL     1      -9.694   5.519  25.534  0.00  0.00    +0.000 A 
ATOM     40  C   UNL     1      -9.535   5.355  24.162  0.00  0.00    +0.000 A 
ATOM     41  H   UNL     1      -9.599   1.263  23.213  0.00  0.00    +0.000 HD
ENDBRANCH  11  30
BRANCH   7  42
ATOM     42  O   UNL     1      -7.021  -2.777  22.929  0.00  0.00    +0.000 OA
ATOM     43  H   UNL     1      -6.353  -3.353  23.338  0.00  0.00    +0.000 HD
ENDBRANCH   7  42
TORSDOF 2
ENDMDL
MODEL 3
REMARK VINA RESULT:      -7.8      2.451      7.503
REMARK  Name = 6509753_ManzamineA.pdbqt.pdb
REMARK  2 active torsions:
REMARK  status: ('A' for Active; 'I' for Inactive)
REMARK    1  A    between atoms: C_7  and  O_42
REMARK    2  A    between atoms: C_11  and  C_30
REMARK                            x       y       z     vdW  Elec       q    Type
REMARK                         _______ _______ _______ _____ _____    ______ ____
ROOT
ATOM      1  N   UNL     1      -8.777  -3.239  21.015  0.00  0.00    +0.000 N 
ATOM      2  N   UNL     1     -13.267  -4.081  23.007  0.00  0.00    +0.000 N 
ATOM      3  C   UNL     1     -10.768  -2.751  22.500  0.00  0.00    +0.000 C 
ATOM      4  C   UNL     1      -9.328  -3.348  22.390  0.00  0.00    +0.000 C 
ATOM      5  C   UNL     1     -11.073  -1.680  23.627  0.00  0.00    +0.000 C 
ATOM      6  C   UNL     1     -10.792  -2.133  21.177  0.00  0.00    +0.000 C 
ATOM      7  C   UNL     1      -8.358  -3.168  23.561  0.00  0.00    +0.000 C 
ATOM      8  C   UNL     1     -11.857  -3.785  22.591  0.00  0.00    +0.000 C 
ATOM      9  C   UNL     1      -9.822  -2.535  20.239  0.00  0.00    +0.000 C 
ATOM     10  C   UNL     1     -12.434  -1.727  24.100  0.00  0.00    +0.000 C 
ATOM     11  C   UNL     1     -10.003  -1.373  24.566  0.00  0.00    +0.000 C 
ATOM     12  C   UNL     1      -8.972  -2.134  24.369  0.00  0.00    +0.000 C 
ATOM     13  C   UNL     1     -13.415  -2.872  23.832  0.00  0.00    +0.000 C 
ATOM     14  C   UNL     1      -8.430  -4.548  20.455  0.00  0.00    +0.000 C 
ATOM     15  C   UNL     1      -8.154  -4.436  24.254  0.00  0.00    +0.000 C 
ATOM     16  C   UNL     1     -10.072  -2.845  18.869  0.00  0.00    +0.000 C 
ATOM     17  C   UNL     1     -13.237  -5.235  23.890  0.00  0.00    +0.000 C 
ATOM     18  C   UNL     1      -8.309  -5.669  19.406  0.00  0.00    +0.000 C 
ATOM     19  C   UNL     1      -8.121  -5.764  25.015  0.00  0.00    +0.000 C 
ATOM     20  C   UNL     1     -10.068  -3.500  17.861  0.00  0.00    +0.000 C 
ATOM     21  C   UNL     1      -8.779  -5.855  17.964  0.00  0.00    +0.000 C 
ATOM     22  C   UNL     1     -13.021  -6.460  24.783  0.00  0.00    +0.000 C 
ATOM     23  C   UNL     1      -9.606  -4.811  17.223  0.00  0.00    +0.000 C 
ATOM     24  C   UNL     1      -8.593  -7.031  25.722  0.00  0.00    +0.000 C 
ATOM     25  C   UNL     1     -12.294  -7.531  25.590  0.00  0.00    +0.000 C 
ATOM     26  C   UNL     1     -10.970  -8.076  26.100  0.00  0.00    +0.000 C 
ATOM     27  C   UNL     1      -9.487  -7.750  26.065  0.00  0.00    +0.000 C 
ENDROOT
BRANCH  11  30
ATOM     28  N   UNL     1      -9.797   0.829  25.562  0.00  0.00    +0.000 NA
ATOM     29  N   UNL     1     -10.811  -2.224  27.391  0.00  0.00    +0.000 N 
ATOM     30  C   UNL     1     -10.090  -0.482  25.714  0.00  0.00    +0.000 A 
ATOM     31  C   UNL     1     -10.456  -0.963  26.969  0.00  0.00    +0.000 A 
ATOM     32  C   UNL     1     -10.529  -0.124  28.083  0.00  0.00    +0.000 A 
ATOM     33  C   UNL     1      -9.870   1.634  26.644  0.00  0.00    +0.000 A 
ATOM     34  C   UNL     1     -10.222   1.236  27.927  0.00  0.00    +0.000 A 
ATOM     35  C   UNL     1     -10.931  -0.924  29.197  0.00  0.00    +0.000 A 
ATOM     36  C   UNL     1     -11.100  -2.227  28.735  0.00  0.00    +0.000 A 
ATOM     37  C   UNL     1     -11.170  -0.652  30.557  0.00  0.00    +0.000 A 
ATOM     38  C   UNL     1     -11.497  -3.282  29.561  0.00  0.00    +0.000 A 
ATOM     39  C   UNL     1     -11.567  -1.693  31.399  0.00  0.00    +0.000 A 
ATOM     40  C   UNL     1     -11.727  -2.983  30.906  0.00  0.00    +0.000 A 
ATOM     41  H   UNL     1     -10.863  -3.038  26.794  0.00  0.00    +0.000 HD
ENDBRANCH  11  30
BRANCH   7  42
ATOM     42  O   UNL     1      -7.104  -2.678  23.110  0.00  0.00    +0.000 OA
ATOM     43  H   UNL     1      -6.996  -1.802  23.516  0.00  0.00    +0.000 HD
ENDBRANCH   7  42
TORSDOF 2
ENDMDL
MODEL 4
REMARK VINA RESULT:      -7.6     18.288     21.761
REMARK  Name = 6509753_ManzamineA.pdbqt.pdb
REMARK  2 active torsions:
REMARK  status: ('A' for Active; 'I' for Inactive)
REMARK    1  A    between atoms: C_7  and  O_42
REMARK    2  A    between atoms: C_11  and  C_30
REMARK                            x       y       z     vdW  Elec       q    Type
REMARK                         _______ _______ _______ _____ _____    ______ ____
ROOT
ATOM      1  N   UNL     1      -9.055 -19.473   8.517  0.00  0.00    +0.000 N 
ATOM      2  N   UNL     1     -13.944 -20.283   7.988  0.00  0.00    +0.000 N 
ATOM      3  C   UNL     1     -11.335 -19.197   7.453  0.00  0.00    +0.000 C 
ATOM      4  C   UNL     1     -10.272 -18.626   8.446  0.00  0.00    +0.000 C 
ATOM      5  C   UNL     1     -11.926 -18.250   6.328  0.00  0.00    +0.000 C 
ATOM      6  C   UNL     1     -10.478 -20.225   6.869  0.00  0.00    +0.000 C 
ATOM      7  C   UNL     1     -10.091 -17.109   8.546  0.00  0.00    +0.000 C 
ATOM      8  C   UNL     1     -12.515 -19.849   8.122  0.00  0.00    +0.000 C 
ATOM      9  C   UNL     1      -9.292 -20.565   7.546  0.00  0.00    +0.000 C 
ATOM     10  C   UNL     1     -13.284 -18.574   5.970  0.00  0.00    +0.000 C 
ATOM     11  C   UNL     1     -11.504 -16.856   6.339  0.00  0.00    +0.000 C 
ATOM     12  C   UNL     1     -10.763 -16.596   7.370  0.00  0.00    +0.000 C 
ATOM     13  C   UNL     1     -14.209 -19.486   6.781  0.00  0.00    +0.000 C 
ATOM     14  C   UNL     1      -8.800 -19.959   9.876  0.00  0.00    +0.000 C 
ATOM     15  C   UNL     1     -10.623 -16.613   9.812  0.00  0.00    +0.000 C 
ATOM     16  C   UNL     1      -8.822 -21.891   7.783  0.00  0.00    +0.000 C 
ATOM     17  C   UNL     1     -14.690 -19.702   9.092  0.00  0.00    +0.000 C 
ATOM     18  C   UNL     1      -8.412 -20.945  10.994  0.00  0.00    +0.000 C 
ATOM     19  C   UNL     1     -11.344 -16.160  11.083  0.00  0.00    +0.000 C 
ATOM     20  C   UNL     1      -8.434 -22.832   8.420  0.00  0.00    +0.000 C 
ATOM     21  C   UNL     1      -8.049 -22.428  11.048  0.00  0.00    +0.000 C 
ATOM     22  C   UNL     1     -15.312 -19.026  10.317  0.00  0.00    +0.000 C 
ATOM     23  C   UNL     1      -8.045 -23.325   9.816  0.00  0.00    +0.000 C 
ATOM     24  C   UNL     1     -12.425 -16.006  12.150  0.00  0.00    +0.000 C 
ATOM     25  C   UNL     1     -15.439 -18.131  11.546  0.00  0.00    +0.000 C 
ATOM     26  C   UNL     1     -14.794 -17.093  12.450  0.00  0.00    +0.000 C 
ATOM     27  C   UNL     1     -13.506 -16.296  12.573  0.00  0.00    +0.000 C 
ENDROOT
BRANCH  11  30
ATOM     28  N   UNL     1     -11.240 -15.467   4.368  0.00  0.00    +0.000 NA
ATOM     29  N   UNL     1     -14.099 -15.279   6.709  0.00  0.00    +0.000 N 
ATOM     30  C   UNL     1     -11.977 -15.804   5.450  0.00  0.00    +0.000 A 
ATOM     31  C   UNL     1     -13.169 -15.130   5.706  0.00  0.00    +0.000 A 
ATOM     32  C   UNL     1     -13.627 -14.109   4.872  0.00  0.00    +0.000 A 
ATOM     33  C   UNL     1     -11.690 -14.478   3.566  0.00  0.00    +0.000 A 
ATOM     34  C   UNL     1     -12.861 -13.756   3.750  0.00  0.00    +0.000 A 
ATOM     35  C   UNL     1     -14.864 -13.637   5.410  0.00  0.00    +0.000 A 
ATOM     36  C   UNL     1     -15.132 -14.386   6.554  0.00  0.00    +0.000 A 
ATOM     37  C   UNL     1     -15.780 -12.642   5.022  0.00  0.00    +0.000 A 
ATOM     38  C   UNL     1     -16.274 -14.195   7.338  0.00  0.00    +0.000 A 
ATOM     39  C   UNL     1     -16.927 -12.435   5.793  0.00  0.00    +0.000 A 
ATOM     40  C   UNL     1     -17.166 -13.201   6.929  0.00  0.00    +0.000 A 
ATOM     41  H   UNL     1     -14.041 -15.959   7.454  0.00  0.00    +0.000 HD
ENDBRANCH  11  30
BRANCH   7  42
ATOM     42  O   UNL     1      -8.719 -16.756   8.450  0.00  0.00    +0.000 OA
ATOM     43  H   UNL     1      -8.414 -16.609   9.362  0.00  0.00    +0.000 HD
ENDBRANCH   7  42
TORSDOF 2
ENDMDL
MODEL 5
REMARK VINA RESULT:      -7.4     18.858     21.628
REMARK  Name = 6509753_ManzamineA.pdbqt.pdb
REMARK  2 active torsions:
REMARK  status: ('A' for Active; 'I' for Inactive)
REMARK    1  A    between atoms: C_7  and  O_42
REMARK    2  A    between atoms: C_11  and  C_30
REMARK                            x       y       z     vdW  Elec       q    Type
REMARK                         _______ _______ _______ _____ _____    ______ ____
ROOT
ATOM      1  N   UNL     1       6.307  -9.572  12.127  0.00  0.00    +0.000 N 
ATOM      2  N   UNL     1       5.117  -7.424  16.464  0.00  0.00    +0.000 N 
ATOM      3  C   UNL     1       5.927  -7.635  13.712  0.00  0.00    +0.000 C 
ATOM      4  C   UNL     1       6.957  -8.607  13.050  0.00  0.00    +0.000 C 
ATOM      5  C   UNL     1       6.182  -6.074  13.635  0.00  0.00    +0.000 C 
ATOM      6  C   UNL     1       4.786  -8.017  12.885  0.00  0.00    +0.000 C 
ATOM      7  C   UNL     1       8.339  -8.073  12.664  0.00  0.00    +0.000 C 
ATOM      8  C   UNL     1       5.628  -7.946  15.154  0.00  0.00    +0.000 C 
ATOM      9  C   UNL     1       4.872  -9.210  12.143  0.00  0.00    +0.000 C 
ATOM     10  C   UNL     1       5.663  -5.357  14.773  0.00  0.00    +0.000 C 
ATOM     11  C   UNL     1       7.424  -5.629  13.019  0.00  0.00    +0.000 C 
ATOM     12  C   UNL     1       8.185  -6.633  12.715  0.00  0.00    +0.000 C 
ATOM     13  C   UNL     1       5.216  -6.006  16.086  0.00  0.00    +0.000 C 
ATOM     14  C   UNL     1       6.552 -10.962  12.521  0.00  0.00    +0.000 C 
ATOM     15  C   UNL     1       9.360  -8.605  13.561  0.00  0.00    +0.000 C 
ATOM     16  C   UNL     1       3.850 -10.200  12.042  0.00  0.00    +0.000 C 
ATOM     17  C   UNL     1       6.124  -7.699  17.475  0.00  0.00    +0.000 C 
ATOM     18  C   UNL     1       6.251 -12.449  12.785  0.00  0.00    +0.000 C 
ATOM     19  C   UNL     1      10.339  -9.079  14.637  0.00  0.00    +0.000 C 
ATOM     20  C   UNL     1       3.355 -11.293  12.108  0.00  0.00    +0.000 C 
ATOM     21  C   UNL     1       4.999 -13.323  12.735  0.00  0.00    +0.000 C 
ATOM     22  C   UNL     1       7.280  -8.079  18.405  0.00  0.00    +0.000 C 
ATOM     23  C   UNL     1       3.619 -12.772  12.396  0.00  0.00    +0.000 C 
ATOM     24  C   UNL     1      10.940  -9.375  16.009  0.00  0.00    +0.000 C 
ATOM     25  C   UNL     1       8.652  -8.575  18.853  0.00  0.00    +0.000 C 
ATOM     26  C   UNL     1      10.026  -9.084  18.451  0.00  0.00    +0.000 C 
ATOM     27  C   UNL     1      10.841  -9.371  17.202  0.00  0.00    +0.000 C 
ENDROOT
BRANCH  11  30
ATOM     28  N   UNL     1       8.814  -3.794  13.784  0.00  0.00    +0.000 NA
ATOM     29  N   UNL     1       6.473  -3.612  10.925  0.00  0.00    +0.000 N 
ATOM     30  C   UNL     1       7.891  -4.254  12.910  0.00  0.00    +0.000 A 
ATOM     31  C   UNL     1       7.391  -3.402  11.928  0.00  0.00    +0.000 A 
ATOM     32  C   UNL     1       7.817  -2.077  11.821  0.00  0.00    +0.000 A 
ATOM     33  C   UNL     1       9.222  -2.511  13.674  0.00  0.00    +0.000 A 
ATOM     34  C   UNL     1       8.773  -1.597  12.730  0.00  0.00    +0.000 A 
ATOM     35  C   UNL     1       7.118  -1.488  10.723  0.00  0.00    +0.000 A 
ATOM     36  C   UNL     1       6.288  -2.469  10.184  0.00  0.00    +0.000 A 
ATOM     37  C   UNL     1       7.121  -0.208  10.138  0.00  0.00    +0.000 A 
ATOM     38  C   UNL     1       5.455  -2.242   9.084  0.00  0.00    +0.000 A 
ATOM     39  C   UNL     1       6.295   0.039   9.038  0.00  0.00    +0.000 A 
ATOM     40  C   UNL     1       5.479  -0.963   8.524  0.00  0.00    +0.000 A 
ATOM     41  H   UNL     1       6.004  -4.489  10.746  0.00  0.00    +0.000 HD
ENDBRANCH  11  30
BRANCH   7  42
ATOM     42  O   UNL     1       8.664  -8.428  11.328  0.00  0.00    +0.000 OA
ATOM     43  H   UNL     1       7.906  -8.936  10.993  0.00  0.00    +0.000 HD
ENDBRANCH   7  42
TORSDOF 2
ENDMDL
MODEL 6
REMARK VINA RESULT:      -7.4      2.759      8.205
REMARK  Name = 6509753_ManzamineA.pdbqt.pdb
REMARK  2 active torsions:
REMARK  status: ('A' for Active; 'I' for Inactive)
REMARK    1  A    between atoms: C_7  and  O_42
REMARK    2  A    between atoms: C_11  and  C_30
REMARK                            x       y       z     vdW  Elec       q    Type
REMARK                         _______ _______ _______ _____ _____    ______ ____
ROOT
ATOM      1  N   UNL     1     -11.211  -4.488  22.978  0.00  0.00    +0.000 N 
ATOM      2  N   UNL     1      -8.343  -5.058  27.015  0.00  0.00    +0.000 N 
ATOM      3  C   UNL     1     -10.190  -5.750  24.921  0.00  0.00    +0.000 C 
ATOM      4  C   UNL     1     -11.418  -4.952  24.374  0.00  0.00    +0.000 C 
ATOM      5  C   UNL     1     -10.424  -7.181  25.558  0.00  0.00    +0.000 C 
ATOM      6  C   UNL     1      -9.483  -5.856  23.649  0.00  0.00    +0.000 C 
ATOM      7  C   UNL     1     -12.828  -5.393  24.776  0.00  0.00    +0.000 C 
ATOM      8  C   UNL     1      -9.346  -4.981  25.902  0.00  0.00    +0.000 C 
ATOM      9  C   UNL     1      -9.882  -5.015  22.594  0.00  0.00    +0.000 C 
ATOM     10  C   UNL     1      -9.479  -7.500  26.599  0.00  0.00    +0.000 C 
ATOM     11  C   UNL     1     -11.800  -7.643  25.679  0.00  0.00    +0.000 C 
ATOM     12  C   UNL     1     -12.639  -6.722  25.320  0.00  0.00    +0.000 C 
ATOM     13  C   UNL     1      -8.557  -6.487  27.285  0.00  0.00    +0.000 C 
ATOM     14  C   UNL     1     -11.306  -3.031  22.863  0.00  0.00    +0.000 C 
ATOM     15  C   UNL     1     -13.416  -4.436  25.708  0.00  0.00    +0.000 C 
ATOM     16  C   UNL     1      -9.006  -4.280  21.741  0.00  0.00    +0.000 C 
ATOM     17  C   UNL     1      -8.868  -4.298  28.138  0.00  0.00    +0.000 C 
ATOM     18  C   UNL     1     -10.954  -1.606  22.394  0.00  0.00    +0.000 C 
ATOM     19  C   UNL     1     -13.892  -3.472  26.797  0.00  0.00    +0.000 C 
ATOM     20  C   UNL     1      -8.547  -3.318  21.185  0.00  0.00    +0.000 C 
ATOM     21  C   UNL     1      -9.844  -0.992  21.543  0.00  0.00    +0.000 C 
ATOM     22  C   UNL     1      -9.563  -3.450  29.207  0.00  0.00    +0.000 C 
ATOM     23  C   UNL     1      -8.703  -1.814  20.953  0.00  0.00    +0.000 C 
ATOM     24  C   UNL     1     -13.900  -2.618  28.062  0.00  0.00    +0.000 C 
ATOM     25  C   UNL     1     -10.650  -2.640  29.907  0.00  0.00    +0.000 C 
ATOM     26  C   UNL     1     -12.080  -2.127  29.887  0.00  0.00    +0.000 C 
ATOM     27  C   UNL     1     -13.333  -2.203  29.031  0.00  0.00    +0.000 C 
ENDROOT
BRANCH  11  30
ATOM     28  N   UNL     1     -11.747  -9.243  27.502  0.00  0.00    +0.000 NA
ATOM     29  N   UNL     1     -13.822  -9.587  24.458  0.00  0.00    +0.000 N 
ATOM     30  C   UNL     1     -12.244  -8.885  26.297  0.00  0.00    +0.000 A 
ATOM     31  C   UNL     1     -13.162  -9.715  25.659  0.00  0.00    +0.000 A 
ATOM     32  C   UNL     1     -13.586 -10.916  26.230  0.00  0.00    +0.000 A 
ATOM     33  C   UNL     1     -12.161 -10.406  28.049  0.00  0.00    +0.000 A 
ATOM     34  C   UNL     1     -13.067 -11.290  27.480  0.00  0.00    +0.000 A 
ATOM     35  C   UNL     1     -14.518 -11.516  25.329  0.00  0.00    +0.000 A 
ATOM     36  C   UNL     1     -14.645 -10.664  24.234  0.00  0.00    +0.000 A 
ATOM     37  C   UNL     1     -15.268 -12.706  25.351  0.00  0.00    +0.000 A 
ATOM     38  C   UNL     1     -15.487 -10.937  23.151  0.00  0.00    +0.000 A 
ATOM     39  C   UNL     1     -16.114 -12.997  24.278  0.00  0.00    +0.000 A 
ATOM     40  C   UNL     1     -16.218 -12.125  23.200  0.00  0.00    +0.000 A 
ATOM     41  H   UNL     1     -13.725  -8.803  23.827  0.00  0.00    +0.000 HD
ENDBRANCH  11  30
BRANCH   7  42
ATOM     42  O   UNL     1     -13.667  -5.506  23.636  0.00  0.00    +0.000 OA
ATOM     43  H   UNL     1     -13.744  -6.458  23.452  0.00  0.00    +0.000 HD
ENDBRANCH   7  42
TORSDOF 2
ENDMDL
MODEL 7
REMARK VINA RESULT:      -7.3     18.009     20.477
REMARK  Name = 6509753_ManzamineA.pdbqt.pdb
REMARK  2 active torsions:
REMARK  status: ('A' for Active; 'I' for Inactive)
REMARK    1  A    between atoms: C_7  and  O_42
REMARK    2  A    between atoms: C_11  and  C_30
REMARK                            x       y       z     vdW  Elec       q    Type
REMARK                         _______ _______ _______ _____ _____    ______ ____
ROOT
ATOM      1  N   UNL     1     -23.910  -8.227   8.184  0.00  0.00    +0.000 N 
ATOM      2  N   UNL     1     -27.084  -5.092  10.407  0.00  0.00    +0.000 N 
ATOM      3  C   UNL     1     -25.058  -6.006   8.581  0.00  0.00    +0.000 C 
ATOM      4  C   UNL     1     -23.807  -6.904   8.851  0.00  0.00    +0.000 C 
ATOM      5  C   UNL     1     -24.846  -4.535   8.031  0.00  0.00    +0.000 C 
ATOM      6  C   UNL     1     -25.657  -6.861   7.560  0.00  0.00    +0.000 C 
ATOM      7  C   UNL     1     -22.425  -6.248   8.923  0.00  0.00    +0.000 C 
ATOM      8  C   UNL     1     -25.996  -5.891   9.752  0.00  0.00    +0.000 C 
ATOM      9  C   UNL     1     -25.191  -8.184   7.444  0.00  0.00    +0.000 C 
ATOM     10  C   UNL     1     -25.865  -3.614   8.468  0.00  0.00    +0.000 C 
ATOM     11  C   UNL     1     -23.475  -4.065   7.889  0.00  0.00    +0.000 C 
ATOM     12  C   UNL     1     -22.630  -4.933   8.350  0.00  0.00    +0.000 C 
ATOM     13  C   UNL     1     -26.862  -3.883   9.599  0.00  0.00    +0.000 C 
ATOM     14  C   UNL     1     -23.837  -9.333   9.142  0.00  0.00    +0.000 C 
ATOM     15  C   UNL     1     -21.936  -6.240  10.298  0.00  0.00    +0.000 C 
ATOM     16  C   UNL     1     -26.011  -9.343   7.301  0.00  0.00    +0.000 C 
ATOM     17  C   UNL     1     -26.669  -4.812  11.771  0.00  0.00    +0.000 C 
ATOM     18  C   UNL     1     -24.181 -10.685   9.796  0.00  0.00    +0.000 C 
ATOM     19  C   UNL     1     -21.571  -6.129  11.780  0.00  0.00    +0.000 C 
ATOM     20  C   UNL     1     -26.443 -10.434   7.559  0.00  0.00    +0.000 C 
ATOM     21  C   UNL     1     -25.231 -11.767   9.552  0.00  0.00    +0.000 C 
ATOM     22  C   UNL     1     -26.082  -4.625  13.173  0.00  0.00    +0.000 C 
ATOM     23  C   UNL     1     -26.301 -11.653   8.472  0.00  0.00    +0.000 C 
ATOM     24  C   UNL     1     -21.685  -5.837  13.274  0.00  0.00    +0.000 C 
ATOM     25  C   UNL     1     -25.073  -4.655  14.317  0.00  0.00    +0.000 C 
ATOM     26  C   UNL     1     -23.658  -4.970  14.772  0.00  0.00    +0.000 C 
ATOM     27  C   UNL     1     -22.338  -5.469  14.208  0.00  0.00    +0.000 C 
ENDROOT
BRANCH  11  30
ATOM     28  N   UNL     1     -23.096  -2.400   6.167  0.00  0.00    +0.000 NA
ATOM     29  N   UNL     1     -22.474  -1.875   9.776  0.00  0.00    +0.000 N 
ATOM     30  C   UNL     1     -23.056  -2.733   7.476  0.00  0.00    +0.000 A 
ATOM     31  C   UNL     1     -22.602  -1.802   8.408  0.00  0.00    +0.000 A 
ATOM     32  C   UNL     1     -22.183  -0.527   8.025  0.00  0.00    +0.000 A 
ATOM     33  C   UNL     1     -22.689  -1.164   5.804  0.00  0.00    +0.000 A 
ATOM     34  C   UNL     1     -22.221  -0.182   6.665  0.00  0.00    +0.000 A 
ATOM     35  C   UNL     1     -21.787   0.168   9.209  0.00  0.00    +0.000 A 
ATOM     36  C   UNL     1     -21.980  -0.697  10.284  0.00  0.00    +0.000 A 
ATOM     37  C   UNL     1     -21.285   1.458   9.461  0.00  0.00    +0.000 A 
ATOM     38  C   UNL     1     -21.699  -0.343  11.607  0.00  0.00    +0.000 A 
ATOM     39  C   UNL     1     -20.997   1.831  10.777  0.00  0.00    +0.000 A 
ATOM     40  C   UNL     1     -21.202   0.944  11.827  0.00  0.00    +0.000 A 
ATOM     41  H   UNL     1     -22.719  -2.680  10.337  0.00  0.00    +0.000 HD
ENDBRANCH  11  30
BRANCH   7  42
ATOM     42  O   UNL     1     -21.494  -6.939   8.104  0.00  0.00    +0.000 OA
ATOM     43  H   UNL     1     -21.060  -7.591   8.680  0.00  0.00    +0.000 HD
ENDBRANCH   7  42
TORSDOF 2
ENDMDL
MODEL 8
REMARK VINA RESULT:      -7.3      3.389      8.120
REMARK  Name = 6509753_ManzamineA.pdbqt.pdb
REMARK  2 active torsions:
REMARK  status: ('A' for Active; 'I' for Inactive)
REMARK    1  A    between atoms: C_7  and  O_42
REMARK    2  A    between atoms: C_11  and  C_30
REMARK                            x       y       z     vdW  Elec       q    Type
REMARK                         _______ _______ _______ _____ _____    ______ ____
ROOT
ATOM      1  N   UNL     1      -9.272  -5.357  23.402  0.00  0.00    +0.000 N 
ATOM      2  N   UNL     1     -10.112  -1.594  26.561  0.00  0.00    +0.000 N 
ATOM      3  C   UNL     1      -8.965  -4.022  25.532  0.00  0.00    +0.000 C 
ATOM      4  C   UNL     1      -9.662  -5.233  24.830  0.00  0.00    +0.000 C 
ATOM      5  C   UNL     1      -8.183  -4.264  26.888  0.00  0.00    +0.000 C 
ATOM      6  C   UNL     1      -8.039  -3.714  24.446  0.00  0.00    +0.000 C 
ATOM      7  C   UNL     1      -9.881  -6.524  25.624  0.00  0.00    +0.000 C 
ATOM      8  C   UNL     1      -9.871  -2.844  25.768  0.00  0.00    +0.000 C 
ATOM      9  C   UNL     1      -8.292  -4.270  23.178  0.00  0.00    +0.000 C 
ATOM     10  C   UNL     1      -8.204  -3.122  27.767  0.00  0.00    +0.000 C 
ATOM     11  C   UNL     1      -8.232  -5.603  27.459  0.00  0.00    +0.000 C 
ATOM     12  C   UNL     1      -9.023  -6.375  26.781  0.00  0.00    +0.000 C 
ATOM     13  C   UNL     1      -9.138  -1.918  27.614  0.00  0.00    +0.000 C 
ATOM     14  C   UNL     1     -10.429  -5.281  22.507  0.00  0.00    +0.000 C 
ATOM     15  C   UNL     1     -11.296  -6.696  25.937  0.00  0.00    +0.000 C 
ATOM     16  C   UNL     1      -8.224  -3.571  21.936  0.00  0.00    +0.000 C 
ATOM     17  C   UNL     1     -11.447  -1.680  27.130  0.00  0.00    +0.000 C 
ATOM     18  C   UNL     1     -11.260  -4.880  21.274  0.00  0.00    +0.000 C 
ATOM     19  C   UNL     1     -12.767  -6.718  26.358  0.00  0.00    +0.000 C 
ATOM     20  C   UNL     1      -8.604  -3.157  20.875  0.00  0.00    +0.000 C 
ATOM     21  C   UNL     1     -11.031  -3.975  20.064  0.00  0.00    +0.000 C 
ATOM     22  C   UNL     1     -12.871  -1.931  27.634  0.00  0.00    +0.000 C 
ATOM     23  C   UNL     1      -9.756  -3.164  19.867  0.00  0.00    +0.000 C 
ATOM     24  C   UNL     1     -14.115  -6.261  26.911  0.00  0.00    +0.000 C 
ATOM     25  C   UNL     1     -14.179  -2.663  27.919  0.00  0.00    +0.000 C 
ATOM     26  C   UNL     1     -14.968  -3.959  27.837  0.00  0.00    +0.000 C 
ATOM     27  C   UNL     1     -14.800  -5.397  27.378  0.00  0.00    +0.000 C 
ENDROOT
BRANCH  11  30
ATOM     28  N   UNL     1      -8.449  -6.168  29.808  0.00  0.00    +0.000 NA
ATOM     29  N   UNL     1      -5.270  -6.214  27.915  0.00  0.00    +0.000 N 
ATOM     30  C   UNL     1      -7.651  -6.025  28.726  0.00  0.00    +0.000 A 
ATOM     31  C   UNL     1      -6.285  -6.270  28.843  0.00  0.00    +0.000 A 
ATOM     32  C   UNL     1      -5.711  -6.659  30.054  0.00  0.00    +0.000 A 
ATOM     33  C   UNL     1      -7.886  -6.545  30.977  0.00  0.00    +0.000 A 
ATOM     34  C   UNL     1      -6.537  -6.804  31.179  0.00  0.00    +0.000 A 
ATOM     35  C   UNL     1      -4.310  -6.828  29.830  0.00  0.00    +0.000 A 
ATOM     36  C   UNL     1      -4.065  -6.544  28.488  0.00  0.00    +0.000 A 
ATOM     37  C   UNL     1      -3.229  -7.202  30.651  0.00  0.00    +0.000 A 
ATOM     38  C   UNL     1      -2.791  -6.613  27.916  0.00  0.00    +0.000 A 
ATOM     39  C   UNL     1      -1.948  -7.276  30.097  0.00  0.00    +0.000 A 
ATOM     40  C   UNL     1      -1.738  -6.987  28.753  0.00  0.00    +0.000 A 
ATOM     41  H   UNL     1      -5.391  -5.973  26.941  0.00  0.00    +0.000 HD
ENDBRANCH  11  30
BRANCH   7  42
ATOM     42  O   UNL     1      -9.428  -7.652  24.890  0.00  0.00    +0.000 OA
ATOM     43  H   UNL     1      -9.099  -8.286  25.548  0.00  0.00    +0.000 HD
ENDBRANCH   7  42
TORSDOF 2
ENDMDL
MODEL 9
REMARK VINA RESULT:      -7.2     18.246     22.117
REMARK  Name = 6509753_ManzamineA.pdbqt.pdb
REMARK  2 active torsions:
REMARK  status: ('A' for Active; 'I' for Inactive)
REMARK    1  A    between atoms: C_7  and  O_42
REMARK    2  A    between atoms: C_11  and  C_30
REMARK                            x       y       z     vdW  Elec       q    Type
REMARK                         _______ _______ _______ _____ _____    ______ ____
ROOT
ATOM      1  N   UNL     1     -13.271 -16.923  10.505  0.00  0.00    +0.000 N 
ATOM      2  N   UNL     1      -9.081 -19.360   9.343  0.00  0.00    +0.000 N 
ATOM      3  C   UNL     1     -11.084 -17.297   9.285  0.00  0.00    +0.000 C 
ATOM      4  C   UNL     1     -12.642 -17.423   9.256  0.00  0.00    +0.000 C 
ATOM      5  C   UNL     1     -10.347 -16.572   8.084  0.00  0.00    +0.000 C 
ATOM      6  C   UNL     1     -11.007 -16.494  10.502  0.00  0.00    +0.000 C 
ATOM      7  C   UNL     1     -13.381 -17.175   7.938  0.00  0.00    +0.000 C 
ATOM      8  C   UNL     1     -10.365 -18.602   9.499  0.00  0.00    +0.000 C 
ATOM      9  C   UNL     1     -12.145 -16.429  11.329  0.00  0.00    +0.000 C 
ATOM     10  C   UNL     1      -9.027 -17.091   7.833  0.00  0.00    +0.000 C 
ATOM     11  C   UNL     1     -11.167 -16.135   6.962  0.00  0.00    +0.000 C 
ATOM     12  C   UNL     1     -12.397 -16.519   7.101  0.00  0.00    +0.000 C 
ATOM     13  C   UNL     1      -8.481 -18.407   8.396  0.00  0.00    +0.000 C 
ATOM     14  C   UNL     1     -14.061 -17.959  11.175  0.00  0.00    +0.000 C 
ATOM     15  C   UNL     1     -13.895 -18.430   7.398  0.00  0.00    +0.000 C 
ATOM     16  C   UNL     1     -12.147 -16.557  12.750  0.00  0.00    +0.000 C 
ATOM     17  C   UNL     1      -9.375 -20.590   8.628  0.00  0.00    +0.000 C 
ATOM     18  C   UNL     1     -14.632 -18.798  12.334  0.00  0.00    +0.000 C 
ATOM     19  C   UNL     1     -14.258 -19.802   6.825  0.00  0.00    +0.000 C 
ATOM     20  C   UNL     1     -12.457 -16.998  13.823  0.00  0.00    +0.000 C 
ATOM     21  C   UNL     1     -14.394 -18.860  13.842  0.00  0.00    +0.000 C 
ATOM     22  C   UNL     1      -9.866 -21.835   7.884  0.00  0.00    +0.000 C 
ATOM     23  C   UNL     1     -13.366 -17.988  14.554  0.00  0.00    +0.000 C 
ATOM     24  C   UNL     1     -14.131 -21.254   6.372  0.00  0.00    +0.000 C 
ATOM     25  C   UNL     1     -10.801 -22.773   7.126  0.00  0.00    +0.000 C 
ATOM     26  C   UNL     1     -12.169 -22.991   6.500  0.00  0.00    +0.000 C 
ATOM     27  C   UNL     1     -13.474 -22.249   6.267  0.00  0.00    +0.000 C 
ENDROOT
BRANCH  11  30
ATOM     28  N   UNL     1      -9.386 -15.631   5.395  0.00  0.00    +0.000 NA
ATOM     29  N   UNL     1     -12.905 -14.557   5.002  0.00  0.00    +0.000 N 
ATOM     30  C   UNL     1     -10.691 -15.520   5.732  0.00  0.00    +0.000 A 
ATOM     31  C   UNL     1     -11.555 -14.808   4.904  0.00  0.00    +0.000 A 
ATOM     32  C   UNL     1     -11.111 -14.199   3.729  0.00  0.00    +0.000 A 
ATOM     33  C   UNL     1      -8.963 -15.039   4.256  0.00  0.00    +0.000 A 
ATOM     34  C   UNL     1      -9.756 -14.311   3.380  0.00  0.00    +0.000 A 
ATOM     35  C   UNL     1     -12.236 -13.562   3.123  0.00  0.00    +0.000 A 
ATOM     36  C   UNL     1     -13.340 -13.802   3.938  0.00  0.00    +0.000 A 
ATOM     37  C   UNL     1     -12.414 -12.805   1.950  0.00  0.00    +0.000 A 
ATOM     38  C   UNL     1     -14.621 -13.326   3.645  0.00  0.00    +0.000 A 
ATOM     39  C   UNL     1     -13.687 -12.319   1.640  0.00  0.00    +0.000 A 
ATOM     40  C   UNL     1     -14.768 -12.578   2.475  0.00  0.00    +0.000 A 
ATOM     41  H   UNL     1     -13.501 -14.888   5.747  0.00  0.00    +0.000 HD
ENDBRANCH  11  30
BRANCH   7  42
ATOM     42  O   UNL     1     -14.462 -16.274   8.126  0.00  0.00    +0.000 OA
ATOM     43  H   UNL     1     -15.258 -16.824   8.219  0.00  0.00    +0.000 HD
ENDBRANCH   7  42
TORSDOF 2
ENDMDL
