MODEL 1
REMARK VINA RESULT:      -4.2      0.000      0.000
REMARK  Name = 67499_Pyrazolo.pdbqt.pdb
REMARK  0 active torsions:
REMARK  status: ('A' for Active; 'I' for Inactive)
REMARK                            x       y       z     vdW  Elec       q    Type
REMARK                         _______ _______ _______ _____ _____    ______ ____
ROOT
ATOM      1  N   UNL     1     -10.221  -3.885  20.580  0.00  0.00    +0.000 N 
ATOM      2  N   UNL     1     -11.088  -3.015  20.018  0.00  0.00    +0.000 NA
ATOM      3  N   UNL     1      -8.560  -5.523  19.927  0.00  0.00    +0.000 NA
ATOM      4  N   UNL     1      -8.355  -5.685  17.519  0.00  0.00    +0.000 NA
ATOM      5  C   UNL     1      -9.909  -4.158  18.429  0.00  0.00    +0.000 A 
ATOM      6  C   UNL     1      -9.492  -4.594  19.669  0.00  0.00    +0.000 A 
ATOM      7  C   UNL     1     -10.890  -3.189  18.704  0.00  0.00    +0.000 A 
ATOM      8  C   UNL     1      -9.306  -4.738  17.322  0.00  0.00    +0.000 A 
ATOM      9  C   UNL     1      -8.040  -6.020  18.788  0.00  0.00    +0.000 A 
ATOM     10  H   UNL     1     -10.171  -3.952  21.590  0.00  0.00    +0.000 HD
ENDROOT
TORSDOF 0
ENDMDL
MODEL 2
REMARK VINA RESULT:      -3.9      1.843      2.968
REMARK  Name = 67499_Pyrazolo.pdbqt.pdb
REMARK  0 active torsions:
REMARK  status: ('A' for Active; 'I' for Inactive)
REMARK                            x       y       z     vdW  Elec       q    Type
REMARK                         _______ _______ _______ _____ _____    ______ ____
ROOT
ATOM      1  N   UNL     1     -11.847  -4.305  21.839  0.00  0.00    +0.000 N 
ATOM      2  N   UNL     1     -11.352  -5.112  22.802  0.00  0.00    +0.000 NA
ATOM      3  N   UNL     1     -11.314  -3.558  19.597  0.00  0.00    +0.000 NA
ATOM      4  N   UNL     1      -9.254  -4.541  18.788  0.00  0.00    +0.000 NA
ATOM      5  C   UNL     1     -10.009  -5.102  20.953  0.00  0.00    +0.000 A 
ATOM      6  C   UNL     1     -11.079  -4.265  20.711  0.00  0.00    +0.000 A 
ATOM      7  C   UNL     1     -10.229  -5.594  22.252  0.00  0.00    +0.000 A 
ATOM      8  C   UNL     1      -9.071  -5.232  19.940  0.00  0.00    +0.000 A 
ATOM      9  C   UNL     1     -10.347  -3.756  18.681  0.00  0.00    +0.000 A 
ATOM     10  H   UNL     1     -12.714  -3.807  22.007  0.00  0.00    +0.000 HD
ENDROOT
TORSDOF 0
ENDMDL
MODEL 3
REMARK VINA RESULT:      -3.7     15.081     16.656
REMARK  Name = 67499_Pyrazolo.pdbqt.pdb
REMARK  0 active torsions:
REMARK  status: ('A' for Active; 'I' for Inactive)
REMARK                            x       y       z     vdW  Elec       q    Type
REMARK                         _______ _______ _______ _____ _____    ______ ____
ROOT
ATOM      1  N   UNL     1       3.226 -12.373  11.867  0.00  0.00    +0.000 N 
ATOM      2  N   UNL     1       4.426 -12.950  12.097  0.00  0.00    +0.000 NA
ATOM      3  N   UNL     1       2.257 -10.171  11.588  0.00  0.00    +0.000 NA
ATOM      4  N   UNL     1       3.924  -8.424  11.770  0.00  0.00    +0.000 NA
ATOM      5  C   UNL     1       4.602 -10.674  12.004  0.00  0.00    +0.000 A 
ATOM      6  C   UNL     1       3.279 -11.011  11.803  0.00  0.00    +0.000 A 
ATOM      7  C   UNL     1       5.259 -11.904  12.179  0.00  0.00    +0.000 A 
ATOM      8  C   UNL     1       4.917  -9.323  11.983  0.00  0.00    +0.000 A 
ATOM      9  C   UNL     1       2.671  -8.889  11.587  0.00  0.00    +0.000 A 
ATOM     10  H   UNL     1       2.407 -12.960  11.763  0.00  0.00    +0.000 HD
ENDROOT
TORSDOF 0
ENDMDL
MODEL 4
REMARK VINA RESULT:      -3.6      2.609      4.034
REMARK  Name = 67499_Pyrazolo.pdbqt.pdb
REMARK  0 active torsions:
REMARK  status: ('A' for Active; 'I' for Inactive)
REMARK                            x       y       z     vdW  Elec       q    Type
REMARK                         _______ _______ _______ _____ _____    ______ ____
ROOT
ATOM      1  N   UNL     1      -7.601  -3.935  22.030  0.00  0.00    +0.000 N 
ATOM      2  N   UNL     1      -7.692  -4.280  23.332  0.00  0.00    +0.000 NA
ATOM      3  N   UNL     1      -9.037  -3.502  20.128  0.00  0.00    +0.000 NA
ATOM      4  N   UNL     1     -11.378  -3.754  20.692  0.00  0.00    +0.000 NA
ATOM      5  C   UNL     1      -9.757  -4.121  22.369  0.00  0.00    +0.000 A 
ATOM      6  C   UNL     1      -8.812  -3.827  21.409  0.00  0.00    +0.000 A 
ATOM      7  C   UNL     1      -9.012  -4.391  23.531  0.00  0.00    +0.000 A 
ATOM      8  C   UNL     1     -11.087  -4.077  21.977  0.00  0.00    +0.000 A 
ATOM      9  C   UNL     1     -10.356  -3.489  19.853  0.00  0.00    +0.000 A 
ATOM     10  H   UNL     1      -6.687  -3.787  21.620  0.00  0.00    +0.000 HD
ENDROOT
TORSDOF 0
ENDMDL
MODEL 5
REMARK VINA RESULT:      -3.5      2.859      3.905
REMARK  Name = 67499_Pyrazolo.pdbqt.pdb
REMARK  0 active torsions:
REMARK  status: ('A' for Active; 'I' for Inactive)
REMARK                            x       y       z     vdW  Elec       q    Type
REMARK                         _______ _______ _______ _____ _____    ______ ____
ROOT
ATOM      1  N   UNL     1     -11.377  -4.309  21.864  0.00  0.00    +0.000 N 
ATOM      2  N   UNL     1     -11.271  -3.821  20.609  0.00  0.00    +0.000 NA
ATOM      3  N   UNL     1      -9.979  -4.818  23.775  0.00  0.00    +0.000 NA
ATOM      4  N   UNL     1      -7.651  -4.309  23.346  0.00  0.00    +0.000 NA
ATOM      5  C   UNL     1      -9.236  -3.906  21.644  0.00  0.00    +0.000 A 
ATOM      6  C   UNL     1     -10.186  -4.379  22.525  0.00  0.00    +0.000 A 
ATOM      7  C   UNL     1      -9.959  -3.578  20.483  0.00  0.00    +0.000 A 
ATOM      8  C   UNL     1      -7.922  -3.877  22.090  0.00  0.00    +0.000 A 
ATOM      9  C   UNL     1      -8.675  -4.748  24.106  0.00  0.00    +0.000 A 
ATOM     10  H   UNL     1     -12.289  -4.577  22.214  0.00  0.00    +0.000 HD
ENDROOT
TORSDOF 0
ENDMDL
MODEL 6
REMARK VINA RESULT:      -3.5      3.563      4.693
REMARK  Name = 67499_Pyrazolo.pdbqt.pdb
REMARK  0 active torsions:
REMARK  status: ('A' for Active; 'I' for Inactive)
REMARK                            x       y       z     vdW  Elec       q    Type
REMARK                         _______ _______ _______ _____ _____    ______ ____
ROOT
ATOM      1  N   UNL     1      -8.355  -4.705  24.243  0.00  0.00    +0.000 N 
ATOM      2  N   UNL     1      -7.443  -4.106  23.447  0.00  0.00    +0.000 NA
ATOM      3  N   UNL     1     -10.603  -5.600  24.132  0.00  0.00    +0.000 NA
ATOM      4  N   UNL     1     -11.554  -5.371  21.917  0.00  0.00    +0.000 NA
ATOM      5  C   UNL     1      -9.364  -4.577  22.304  0.00  0.00    +0.000 A 
ATOM      6  C   UNL     1      -9.523  -5.007  23.604  0.00  0.00    +0.000 A 
ATOM      7  C   UNL     1      -8.068  -4.032  22.264  0.00  0.00    +0.000 A 
ATOM      8  C   UNL     1     -10.432  -4.775  21.440  0.00  0.00    +0.000 A 
ATOM      9  C   UNL     1     -11.577  -5.744  23.213  0.00  0.00    +0.000 A 
ATOM     10  H   UNL     1      -8.124  -4.882  25.214  0.00  0.00    +0.000 HD
ENDROOT
TORSDOF 0
ENDMDL
MODEL 7
REMARK VINA RESULT:      -3.4      2.547      4.253
REMARK  Name = 67499_Pyrazolo.pdbqt.pdb
REMARK  0 active torsions:
REMARK  status: ('A' for Active; 'I' for Inactive)
REMARK                            x       y       z     vdW  Elec       q    Type
REMARK                         _______ _______ _______ _____ _____    ______ ____
ROOT
ATOM      1  N   UNL     1     -10.468  -2.987  20.162  0.00  0.00    +0.000 N 
ATOM      2  N   UNL     1      -9.523  -3.751  19.572  0.00  0.00    +0.000 NA
ATOM      3  N   UNL     1     -12.071  -3.100  21.974  0.00  0.00    +0.000 NA
ATOM      4  N   UNL     1     -11.988  -5.234  23.116  0.00  0.00    +0.000 NA
ATOM      5  C   UNL     1     -10.525  -4.856  21.302  0.00  0.00    +0.000 A 
ATOM      6  C   UNL     1     -11.097  -3.605  21.204  0.00  0.00    +0.000 A 
ATOM      7  C   UNL     1      -9.565  -4.890  20.275  0.00  0.00    +0.000 A 
ATOM      8  C   UNL     1     -11.002  -5.689  22.304  0.00  0.00    +0.000 A 
ATOM      9  C   UNL     1     -12.460  -3.987  22.911  0.00  0.00    +0.000 A 
ATOM     10  H   UNL     1     -10.640  -2.053  19.809  0.00  0.00    +0.000 HD
ENDROOT
TORSDOF 0
ENDMDL
MODEL 8
REMARK VINA RESULT:      -3.4      2.420      4.067
REMARK  Name = 67499_Pyrazolo.pdbqt.pdb
REMARK  0 active torsions:
REMARK  status: ('A' for Active; 'I' for Inactive)
REMARK                            x       y       z     vdW  Elec       q    Type
REMARK                         _______ _______ _______ _____ _____    ______ ____
ROOT
ATOM      1  N   UNL     1      -9.856  -4.052  19.409  0.00  0.00    +0.000 N 
ATOM      2  N   UNL     1      -9.211  -5.103  19.960  0.00  0.00    +0.000 NA
ATOM      3  N   UNL     1      -9.945  -1.638  19.584  0.00  0.00    +0.000 NA
ATOM      4  N   UNL     1      -8.412  -0.801  21.261  0.00  0.00    +0.000 NA
ATOM      5  C   UNL     1      -8.527  -3.129  20.885  0.00  0.00    +0.000 A 
ATOM      6  C   UNL     1      -9.482  -2.847  19.930  0.00  0.00    +0.000 A 
ATOM      7  C   UNL     1      -8.401  -4.529  20.860  0.00  0.00    +0.000 A 
ATOM      8  C   UNL     1      -7.983  -2.050  21.567  0.00  0.00    +0.000 A 
ATOM      9  C   UNL     1      -9.353  -0.665  20.304  0.00  0.00    +0.000 A 
ATOM     10  H   UNL     1     -10.542  -4.219  18.682  0.00  0.00    +0.000 HD
ENDROOT
TORSDOF 0
ENDMDL
MODEL 9
REMARK VINA RESULT:      -3.3     16.506     17.366
REMARK  Name = 67499_Pyrazolo.pdbqt.pdb
REMARK  0 active torsions:
REMARK  status: ('A' for Active; 'I' for Inactive)
REMARK                            x       y       z     vdW  Elec       q    Type
REMARK                         _______ _______ _______ _____ _____    ______ ____
ROOT
ATOM      1  N   UNL     1     -17.479 -12.938   7.857  0.00  0.00    +0.000 N 
ATOM      2  N   UNL     1     -17.771 -14.175   8.314  0.00  0.00    +0.000 NA
ATOM      3  N   UNL     1     -16.586 -11.859   5.881  0.00  0.00    +0.000 NA
ATOM      4  N   UNL     1     -16.026 -13.464   4.156  0.00  0.00    +0.000 NA
ATOM      5  C   UNL     1     -16.919 -14.250   6.195  0.00  0.00    +0.000 A 
ATOM      6  C   UNL     1     -16.966 -12.930   6.592  0.00  0.00    +0.000 A 
ATOM      7  C   UNL     1     -17.425 -14.970   7.292  0.00  0.00    +0.000 A 
ATOM      8  C   UNL     1     -16.427 -14.507   4.924  0.00  0.00    +0.000 A 
ATOM      9  C   UNL     1     -16.126 -12.219   4.667  0.00  0.00    +0.000 A 
ATOM     10  H   UNL     1     -17.651 -12.137   8.453  0.00  0.00    +0.000 HD
ENDROOT
TORSDOF 0
ENDMDL
