REMARK  Name = 67499_Pyrazolo.pdbqt.pdb
REMARK  0 active torsions:
REMARK  status: ('A' for Active; 'I' for Inactive)
REMARK                            x       y       z     vdW  Elec       q    Type
REMARK                         _______ _______ _______ _____ _____    ______ ____
ROOT
ATOM      1  N   UNL     1       1.523   1.039   0.000  0.00  0.00    +0.000 N 
ATOM      2  N   UNL     1       2.399   0.011   0.000  0.00  0.00    +0.000 NA
ATOM      3  N   UNL     1      -0.867   1.432   0.000  0.00  0.00    +0.000 NA
ATOM      4  N   UNL     1      -2.119  -0.641   0.000  0.00  0.00    +0.000 NA
ATOM      5  C   UNL     1       0.240  -0.736   0.000  0.00  0.00    +0.000 A 
ATOM      6  C   UNL     1       0.217   0.643   0.000  0.00  0.00    +0.000 A 
ATOM      7  C   UNL     1       1.606  -1.069   0.000  0.00  0.00    +0.000 A 
ATOM      8  C   UNL     1      -0.986  -1.386   0.000  0.00  0.00    +0.000 A 
ATOM      9  C   UNL     1      -2.000   0.703   0.000  0.00  0.00    +0.000 A 
ATOM     10  H   UNL     1       1.875   1.989   0.000  0.00  0.00    +0.000 HD
ENDROOT
TORSDOF 0
