MODEL 1
REMARK VINA RESULT:      -5.3      0.000      0.000
REMARK  Name = 71369791_5FluoroDione.pdbqt.pdb
REMARK  1 active torsions:
REMARK  status: ('A' for Active; 'I' for Inactive)
REMARK    1  A    between atoms: N_4  and  C_12
REMARK                            x       y       z     vdW  Elec       q    Type
REMARK                         _______ _______ _______ _____ _____    ______ ____
ROOT
ATOM      1  F   UNL     1     -12.821  -4.827  22.726  0.00  0.00    +0.000 F 
ATOM      2  O   UNL     1      -7.563  -3.872  21.675  0.00  0.00    +0.000 OA
ATOM      3  O   UNL     1     -10.958  -4.140  24.747  0.00  0.00    +0.000 OA
ATOM      4  N   UNL     1      -9.632  -4.708  20.897  0.00  0.00    +0.000 N 
ATOM      5  N   UNL     1      -9.288  -4.123  23.160  0.00  0.00    +0.000 N 
ATOM      6  C   UNL     1     -10.877  -5.020  21.306  0.00  0.00    +0.000 C 
ATOM      7  C   UNL     1     -11.494  -4.959  22.562  0.00  0.00    +0.000 C 
ATOM      8  C   UNL     1      -8.726  -4.215  21.863  0.00  0.00    +0.000 C 
ATOM      9  C   UNL     1     -10.592  -4.384  23.604  0.00  0.00    +0.000 C 
ATOM     10  H   UNL     1      -8.668  -3.733  23.856  0.00  0.00    +0.000 HD
ENDROOT
BRANCH   4  12
ATOM     11  O   UNL     1      -9.871  -4.102  18.558  0.00  0.00    +0.000 OA
ATOM     12  C   UNL     1      -9.312  -4.879  19.580  0.00  0.00    +0.000 C 
ATOM     13  C   UNL     1      -8.416  -5.808  18.990  0.00  0.00    +0.000 C 
ATOM     14  C   UNL     1      -8.175  -5.865  17.480  0.00  0.00    +0.000 C 
ATOM     15  C   UNL     1      -9.192  -4.731  17.592  0.00  0.00    +0.000 C 
ENDBRANCH   4  12
TORSDOF 1
ENDMDL
MODEL 2
REMARK VINA RESULT:      -4.6     17.816     18.989
REMARK  Name = 71369791_5FluoroDione.pdbqt.pdb
REMARK  1 active torsions:
REMARK  status: ('A' for Active; 'I' for Inactive)
REMARK    1  A    between atoms: N_4  and  C_12
REMARK                            x       y       z     vdW  Elec       q    Type
REMARK                         _______ _______ _______ _____ _____    ______ ____
ROOT
ATOM      1  F   UNL     1     -10.267 -12.046   5.380  0.00  0.00    +0.000 F 
ATOM      2  O   UNL     1     -11.584 -17.325   5.118  0.00  0.00    +0.000 OA
ATOM      3  O   UNL     1     -11.673 -13.165   3.189  0.00  0.00    +0.000 OA
ATOM      4  N   UNL     1     -10.323 -15.634   6.186  0.00  0.00    +0.000 N 
ATOM      5  N   UNL     1     -11.501 -15.240   4.176  0.00  0.00    +0.000 N 
ATOM      6  C   UNL     1      -9.970 -14.339   6.077  0.00  0.00    +0.000 C 
ATOM      7  C   UNL     1     -10.267 -13.364   5.117  0.00  0.00    +0.000 C 
ATOM      8  C   UNL     1     -11.156 -16.177   5.180  0.00  0.00    +0.000 C 
ATOM      9  C   UNL     1     -11.196 -13.875   4.066  0.00  0.00    +0.000 C 
ATOM     10  H   UNL     1     -12.129 -15.597   3.470  0.00  0.00    +0.000 HD
ENDROOT
BRANCH   4  12
ATOM     11  O   UNL     1      -8.983 -17.429   7.124  0.00  0.00    +0.000 OA
ATOM     12  C   UNL     1      -9.867 -16.351   7.256  0.00  0.00    +0.000 C 
ATOM     13  C   UNL     1     -10.160 -16.184   8.635  0.00  0.00    +0.000 C 
ATOM     14  C   UNL     1      -9.556 -17.087   9.713  0.00  0.00    +0.000 C 
ATOM     15  C   UNL     1      -8.942 -17.667   8.440  0.00  0.00    +0.000 C 
ENDBRANCH   4  12
TORSDOF 1
ENDMDL
MODEL 3
REMARK VINA RESULT:      -4.4     14.777     15.664
REMARK  Name = 71369791_5FluoroDione.pdbqt.pdb
REMARK  1 active torsions:
REMARK  status: ('A' for Active; 'I' for Inactive)
REMARK    1  A    between atoms: N_4  and  C_12
REMARK                            x       y       z     vdW  Elec       q    Type
REMARK                         _______ _______ _______ _____ _____    ______ ____
ROOT
ATOM      1  F   UNL     1     -25.740  -4.053  14.045  0.00  0.00    +0.000 F 
ATOM      2  O   UNL     1     -21.118  -6.928  13.846  0.00  0.00    +0.000 OA
ATOM      3  O   UNL     1     -24.630  -5.324  16.322  0.00  0.00    +0.000 OA
ATOM      4  N   UNL     1     -22.858  -5.864  12.651  0.00  0.00    +0.000 N 
ATOM      5  N   UNL     1     -22.952  -6.174  14.991  0.00  0.00    +0.000 N 
ATOM      6  C   UNL     1     -24.058  -5.273  12.816  0.00  0.00    +0.000 C 
ATOM      7  C   UNL     1     -24.845  -5.051  13.952  0.00  0.00    +0.000 C 
ATOM      8  C   UNL     1     -22.211  -6.371  13.801  0.00  0.00    +0.000 C 
ATOM      9  C   UNL     1     -24.172  -5.515  15.201  0.00  0.00    +0.000 C 
ATOM     10  H   UNL     1     -22.487  -6.493  15.830  0.00  0.00    +0.000 HD
ENDROOT
BRANCH   4  12
ATOM     11  O   UNL     1     -22.569  -7.018  10.534  0.00  0.00    +0.000 OA
ATOM     12  C   UNL     1     -22.331  -5.938  11.393  0.00  0.00    +0.000 C 
ATOM     13  C   UNL     1     -21.488  -5.014  10.720  0.00  0.00    +0.000 C 
ATOM     14  C   UNL     1     -20.981  -5.257   9.297  0.00  0.00    +0.000 C 
ATOM     15  C   UNL     1     -21.823  -6.507   9.547  0.00  0.00    +0.000 C 
ENDBRANCH   4  12
TORSDOF 1
ENDMDL
MODEL 4
REMARK VINA RESULT:      -4.4     17.034     17.630
REMARK  Name = 71369791_5FluoroDione.pdbqt.pdb
REMARK  1 active torsions:
REMARK  status: ('A' for Active; 'I' for Inactive)
REMARK    1  A    between atoms: N_4  and  C_12
REMARK                            x       y       z     vdW  Elec       q    Type
REMARK                         _______ _______ _______ _____ _____    ______ ____
ROOT
ATOM      1  F   UNL     1       5.767  -8.698  14.743  0.00  0.00    +0.000 F 
ATOM      2  O   UNL     1       2.365 -10.603  10.941  0.00  0.00    +0.000 OA
ATOM      3  O   UNL     1       4.699  -7.063  12.690  0.00  0.00    +0.000 OA
ATOM      4  N   UNL     1       3.886 -11.094  12.682  0.00  0.00    +0.000 N 
ATOM      5  N   UNL     1       3.637  -8.911  11.814  0.00  0.00    +0.000 N 
ATOM      6  C   UNL     1       4.796 -10.522  13.495  0.00  0.00    +0.000 C 
ATOM      7  C   UNL     1       5.253  -9.204  13.610  0.00  0.00    +0.000 C 
ATOM      8  C   UNL     1       3.224 -10.264  11.748  0.00  0.00    +0.000 C 
ATOM      9  C   UNL     1       4.536  -8.278  12.684  0.00  0.00    +0.000 C 
ATOM     10  H   UNL     1       3.145  -8.294  11.182  0.00  0.00    +0.000 HD
ENDROOT
BRANCH   4  12
ATOM     11  O   UNL     1       4.099 -13.371  11.866  0.00  0.00    +0.000 OA
ATOM     12  C   UNL     1       3.648 -12.433  12.804  0.00  0.00    +0.000 C 
ATOM     13  C   UNL     1       2.945 -13.129  13.823  0.00  0.00    +0.000 C 
ATOM     14  C   UNL     1       2.769 -14.648  13.802  0.00  0.00    +0.000 C 
ATOM     15  C   UNL     1       3.572 -14.410  12.524  0.00  0.00    +0.000 C 
ENDBRANCH   4  12
TORSDOF 1
ENDMDL
MODEL 5
REMARK VINA RESULT:      -4.4      2.374      2.877
REMARK  Name = 71369791_5FluoroDione.pdbqt.pdb
REMARK  1 active torsions:
REMARK  status: ('A' for Active; 'I' for Inactive)
REMARK    1  A    between atoms: N_4  and  C_12
REMARK                            x       y       z     vdW  Elec       q    Type
REMARK                         _______ _______ _______ _____ _____    ______ ____
ROOT
ATOM      1  F   UNL     1     -10.955  -0.713  23.726  0.00  0.00    +0.000 F 
ATOM      2  O   UNL     1     -11.702  -5.871  22.145  0.00  0.00    +0.000 OA
ATOM      3  O   UNL     1     -12.497  -2.562  25.219  0.00  0.00    +0.000 OA
ATOM      4  N   UNL     1     -10.964  -3.698  21.578  0.00  0.00    +0.000 N 
ATOM      5  N   UNL     1     -12.135  -4.141  23.581  0.00  0.00    +0.000 N 
ATOM      6  C   UNL     1     -10.945  -2.428  22.027  0.00  0.00    +0.000 C 
ATOM      7  C   UNL     1     -11.457  -1.837  23.188  0.00  0.00    +0.000 C 
ATOM      8  C   UNL     1     -11.597  -4.672  22.384  0.00  0.00    +0.000 C 
ATOM      9  C   UNL     1     -12.081  -2.839  24.101  0.00  0.00    +0.000 C 
ATOM     10  H   UNL     1     -12.555  -4.829  24.191  0.00  0.00    +0.000 HD
ENDROOT
BRANCH   4  12
ATOM     11  O   UNL     1      -9.217  -4.764  20.271  0.00  0.00    +0.000 OA
ATOM     12  C   UNL     1     -10.371  -3.979  20.379  0.00  0.00    +0.000 C 
ATOM     13  C   UNL     1     -10.755  -3.572  19.074  0.00  0.00    +0.000 C 
ATOM     14  C   UNL     1      -9.968  -3.979  17.827  0.00  0.00    +0.000 C 
ATOM     15  C   UNL     1      -9.165  -4.655  18.938  0.00  0.00    +0.000 C 
ENDBRANCH   4  12
TORSDOF 1
ENDMDL
MODEL 6
REMARK VINA RESULT:      -4.2      3.220      4.312
REMARK  Name = 71369791_5FluoroDione.pdbqt.pdb
REMARK  1 active torsions:
REMARK  status: ('A' for Active; 'I' for Inactive)
REMARK    1  A    between atoms: N_4  and  C_12
REMARK                            x       y       z     vdW  Elec       q    Type
REMARK                         _______ _______ _______ _____ _____    ______ ____
ROOT
ATOM      1  F   UNL     1     -10.872  -7.810  27.027  0.00  0.00    +0.000 F 
ATOM      2  O   UNL     1      -7.644  -4.697  23.936  0.00  0.00    +0.000 OA
ATOM      3  O   UNL     1      -8.067  -7.671  27.401  0.00  0.00    +0.000 OA
ATOM      4  N   UNL     1      -9.778  -5.665  24.246  0.00  0.00    +0.000 N 
ATOM      5  N   UNL     1      -7.925  -6.258  25.587  0.00  0.00    +0.000 N 
ATOM      6  C   UNL     1     -10.445  -6.553  25.010  0.00  0.00    +0.000 C 
ATOM      7  C   UNL     1     -10.036  -7.368  26.072  0.00  0.00    +0.000 C 
ATOM      8  C   UNL     1      -8.405  -5.465  24.516  0.00  0.00    +0.000 C 
ATOM      9  C   UNL     1      -8.605  -7.144  26.435  0.00  0.00    +0.000 C 
ATOM     10  H   UNL     1      -6.956  -6.099  25.823  0.00  0.00    +0.000 HD
ENDROOT
BRANCH   4  12
ATOM     11  O   UNL     1     -11.328  -3.943  23.522  0.00  0.00    +0.000 OA
ATOM     12  C   UNL     1     -10.457  -5.007  23.261  0.00  0.00    +0.000 C 
ATOM     13  C   UNL     1     -10.442  -5.233  21.859  0.00  0.00    +0.000 C 
ATOM     14  C   UNL     1     -11.275  -4.395  20.888  0.00  0.00    +0.000 C 
ATOM     15  C   UNL     1     -11.638  -3.768  22.232  0.00  0.00    +0.000 C 
ENDBRANCH   4  12
TORSDOF 1
ENDMDL
MODEL 7
REMARK VINA RESULT:      -4.1     17.260     17.797
REMARK  Name = 71369791_5FluoroDione.pdbqt.pdb
REMARK  1 active torsions:
REMARK  status: ('A' for Active; 'I' for Inactive)
REMARK    1  A    between atoms: N_4  and  C_12
REMARK                            x       y       z     vdW  Elec       q    Type
REMARK                         _______ _______ _______ _____ _____    ______ ____
ROOT
ATOM      1  F   UNL     1       5.164 -13.394  14.853  0.00  0.00    +0.000 F 
ATOM      2  O   UNL     1       2.893 -10.238  11.040  0.00  0.00    +0.000 OA
ATOM      3  O   UNL     1       2.909 -14.204  13.342  0.00  0.00    +0.000 OA
ATOM      4  N   UNL     1       4.397 -10.403  12.856  0.00  0.00    +0.000 N 
ATOM      5  N   UNL     1       2.907 -12.149  12.300  0.00  0.00    +0.000 N 
ATOM      6  C   UNL     1       4.794 -11.235  13.838  0.00  0.00    +0.000 C 
ATOM      7  C   UNL     1       4.377 -12.520  14.203  0.00  0.00    +0.000 C 
ATOM      8  C   UNL     1       3.373 -10.849  11.989  0.00  0.00    +0.000 C 
ATOM      9  C   UNL     1       3.339 -13.059  13.276  0.00  0.00    +0.000 C 
ATOM     10  H   UNL     1       2.204 -12.503  11.666  0.00  0.00    +0.000 HD
ENDROOT
BRANCH   4  12
ATOM     11  O   UNL     1       6.389  -9.029  12.654  0.00  0.00    +0.000 OA
ATOM     12  C   UNL     1       5.000  -9.182  12.746  0.00  0.00    +0.000 C 
ATOM     13  C   UNL     1       4.409  -7.892  12.706  0.00  0.00    +0.000 C 
ATOM     14  C   UNL     1       5.242  -6.615  12.581  0.00  0.00    +0.000 C 
ATOM     15  C   UNL     1       6.323  -7.695  12.579  0.00  0.00    +0.000 C 
ENDBRANCH   4  12
TORSDOF 1
ENDMDL
MODEL 8
REMARK VINA RESULT:      -3.9     17.528     18.715
REMARK  Name = 71369791_5FluoroDione.pdbqt.pdb
REMARK  1 active torsions:
REMARK  status: ('A' for Active; 'I' for Inactive)
REMARK    1  A    between atoms: N_4  and  C_12
REMARK                            x       y       z     vdW  Elec       q    Type
REMARK                         _______ _______ _______ _____ _____    ______ ____
ROOT
ATOM      1  F   UNL     1     -24.397  -6.320   9.327  0.00  0.00    +0.000 F 
ATOM      2  O   UNL     1     -19.845  -4.358   7.071  0.00  0.00    +0.000 OA
ATOM      3  O   UNL     1     -21.896  -7.635   9.539  0.00  0.00    +0.000 OA
ATOM      4  N   UNL     1     -22.201  -4.249   7.226  0.00  0.00    +0.000 N 
ATOM      5  N   UNL     1     -20.960  -6.002   8.210  0.00  0.00    +0.000 N 
ATOM      6  C   UNL     1     -23.266  -4.894   7.741  0.00  0.00    +0.000 C 
ATOM      7  C   UNL     1     -23.376  -6.071   8.490  0.00  0.00    +0.000 C 
ATOM      8  C   UNL     1     -20.921  -4.807   7.451  0.00  0.00    +0.000 C 
ATOM      9  C   UNL     1     -22.043  -6.664   8.806  0.00  0.00    +0.000 C 
ATOM     10  H   UNL     1     -20.052  -6.394   8.417  0.00  0.00    +0.000 HD
ENDROOT
BRANCH   4  12
ATOM     11  O   UNL     1     -22.924  -3.087   5.221  0.00  0.00    +0.000 OA
ATOM     12  C   UNL     1     -22.409  -3.097   6.523  0.00  0.00    +0.000 C 
ATOM     13  C   UNL     1     -22.169  -1.753   6.914  0.00  0.00    +0.000 C 
ATOM     14  C   UNL     1     -22.460  -0.569   5.991  0.00  0.00    +0.000 C 
ATOM     15  C   UNL     1     -22.879  -1.753   5.122  0.00  0.00    +0.000 C 
ENDBRANCH   4  12
TORSDOF 1
ENDMDL
MODEL 9
REMARK VINA RESULT:      -3.9     18.006     19.563
REMARK  Name = 71369791_5FluoroDione.pdbqt.pdb
REMARK  1 active torsions:
REMARK  status: ('A' for Active; 'I' for Inactive)
REMARK    1  A    between atoms: N_4  and  C_12
REMARK                            x       y       z     vdW  Elec       q    Type
REMARK                         _______ _______ _______ _____ _____    ______ ____
ROOT
ATOM      1  F   UNL     1     -25.647  -7.715   5.170  0.00  0.00    +0.000 F 
ATOM      2  O   UNL     1     -21.965  -8.408   9.123  0.00  0.00    +0.000 OA
ATOM      3  O   UNL     1     -25.424 -10.123   6.647  0.00  0.00    +0.000 OA
ATOM      4  N   UNL     1     -22.711  -7.103   7.299  0.00  0.00    +0.000 N 
ATOM      5  N   UNL     1     -23.629  -9.226   7.780  0.00  0.00    +0.000 N 
ATOM      6  C   UNL     1     -23.593  -7.101   6.281  0.00  0.00    +0.000 C 
ATOM      7  C   UNL     1     -24.541  -8.041   5.859  0.00  0.00    +0.000 C 
ATOM      8  C   UNL     1     -22.688  -8.234   8.147  0.00  0.00    +0.000 C 
ATOM      9  C   UNL     1     -24.596  -9.228   6.764  0.00  0.00    +0.000 C 
ATOM     10  H   UNL     1     -23.656 -10.025   8.398  0.00  0.00    +0.000 HD
ENDROOT
BRANCH   4  12
ATOM     11  O   UNL     1     -22.328  -4.827   8.052  0.00  0.00    +0.000 OA
ATOM     12  C   UNL     1     -21.895  -6.020   7.462  0.00  0.00    +0.000 C 
ATOM     13  C   UNL     1     -20.530  -5.865   7.100  0.00  0.00    +0.000 C 
ATOM     14  C   UNL     1     -19.759  -4.569   7.356  0.00  0.00    +0.000 C 
ATOM     15  C   UNL     1     -21.140  -4.227   7.914  0.00  0.00    +0.000 C 
ENDBRANCH   4  12
TORSDOF 1
ENDMDL
