MODEL 1
REMARK VINA RESULT:      -3.4      0.000      0.000
REMARK  Name = 7288_3Pentanone.pdbqt.pdb
REMARK  2 active torsions:
REMARK  status: ('A' for Active; 'I' for Inactive)
REMARK    1  A    between atoms: C_2  and  C_3
REMARK    2  A    between atoms: C_2  and  C_5
REMARK                            x       y       z     vdW  Elec       q    Type
REMARK                         _______ _______ _______ _____ _____    ______ ____
ROOT
ATOM      1  O   UNL     1      -9.390  -4.943  19.634  0.00  0.00    +0.000 OA
ATOM      2  C   UNL     1      -9.408  -4.530  18.481  0.00  0.00    +0.000 C 
ENDROOT
BRANCH   2   3
ATOM      3  C   UNL     1     -10.116  -3.319  18.139  0.00  0.00    +0.000 C 
ATOM      4  C   UNL     1     -10.852  -2.014  17.778  0.00  0.00    +0.000 C 
ENDBRANCH   2   3
BRANCH   2   5
ATOM      5  C   UNL     1      -8.723  -5.241  17.428  0.00  0.00    +0.000 C 
ATOM      6  C   UNL     1      -7.991  -5.981  16.290  0.00  0.00    +0.000 C 
ENDBRANCH   2   5
TORSDOF 2
ENDMDL
MODEL 2
REMARK VINA RESULT:      -3.4      1.963      2.216
REMARK  Name = 7288_3Pentanone.pdbqt.pdb
REMARK  2 active torsions:
REMARK  status: ('A' for Active; 'I' for Inactive)
REMARK    1  A    between atoms: C_2  and  C_3
REMARK    2  A    between atoms: C_2  and  C_5
REMARK                            x       y       z     vdW  Elec       q    Type
REMARK                         _______ _______ _______ _____ _____    ______ ____
ROOT
ATOM      1  O   UNL     1     -11.622  -3.535  19.007  0.00  0.00    +0.000 OA
ATOM      2  C   UNL     1     -10.402  -3.424  18.971  0.00  0.00    +0.000 C 
ENDROOT
BRANCH   2   3
ATOM      3  C   UNL     1      -9.725  -2.426  19.764  0.00  0.00    +0.000 C 
ATOM      4  C   UNL     1      -8.990  -1.353  20.591  0.00  0.00    +0.000 C 
ENDBRANCH   2   3
BRANCH   2   5
ATOM      5  C   UNL     1      -9.604  -4.288  18.134  0.00  0.00    +0.000 C 
ATOM      6  C   UNL     1      -8.748  -5.225  17.258  0.00  0.00    +0.000 C 
ENDBRANCH   2   5
TORSDOF 2
ENDMDL
MODEL 3
REMARK VINA RESULT:      -3.4      1.946      3.683
REMARK  Name = 7288_3Pentanone.pdbqt.pdb
REMARK  2 active torsions:
REMARK  status: ('A' for Active; 'I' for Inactive)
REMARK    1  A    between atoms: C_2  and  C_3
REMARK    2  A    between atoms: C_2  and  C_5
REMARK                            x       y       z     vdW  Elec       q    Type
REMARK                         _______ _______ _______ _____ _____    ______ ____
ROOT
ATOM      1  O   UNL     1     -11.616  -3.580  18.978  0.00  0.00    +0.000 OA
ATOM      2  C   UNL     1     -10.398  -3.450  18.957  0.00  0.00    +0.000 C 
ENDROOT
BRANCH   2   3
ATOM      3  C   UNL     1      -9.574  -4.312  18.143  0.00  0.00    +0.000 C 
ATOM      4  C   UNL     1      -8.687  -5.212  17.262  0.00  0.00    +0.000 C 
ENDBRANCH   2   3
BRANCH   2   5
ATOM      5  C   UNL     1      -9.748  -2.429  19.745  0.00  0.00    +0.000 C 
ATOM      6  C   UNL     1      -9.038  -1.337  20.570  0.00  0.00    +0.000 C 
ENDBRANCH   2   5
TORSDOF 2
ENDMDL
MODEL 4
REMARK VINA RESULT:      -3.0      2.927      4.416
REMARK  Name = 7288_3Pentanone.pdbqt.pdb
REMARK  2 active torsions:
REMARK  status: ('A' for Active; 'I' for Inactive)
REMARK    1  A    between atoms: C_2  and  C_3
REMARK    2  A    between atoms: C_2  and  C_5
REMARK                            x       y       z     vdW  Elec       q    Type
REMARK                         _______ _______ _______ _____ _____    ______ ____
ROOT
ATOM      1  O   UNL     1      -8.042  -4.174  22.448  0.00  0.00    +0.000 OA
ATOM      2  C   UNL     1      -8.322  -3.846  21.302  0.00  0.00    +0.000 C 
ENDROOT
BRANCH   2   3
ATOM      3  C   UNL     1      -8.376  -4.825  20.242  0.00  0.00    +0.000 C 
ATOM      4  C   UNL     1      -8.423  -5.855  19.097  0.00  0.00    +0.000 C 
ENDBRANCH   2   3
BRANCH   2   5
ATOM      5  C   UNL     1      -8.606  -2.469  20.974  0.00  0.00    +0.000 C 
ATOM      6  C   UNL     1      -8.906  -0.992  20.647  0.00  0.00    +0.000 C 
ENDBRANCH   2   5
TORSDOF 2
ENDMDL
MODEL 5
REMARK VINA RESULT:      -2.8      2.629      3.657
REMARK  Name = 7288_3Pentanone.pdbqt.pdb
REMARK  2 active torsions:
REMARK  status: ('A' for Active; 'I' for Inactive)
REMARK    1  A    between atoms: C_2  and  C_3
REMARK    2  A    between atoms: C_2  and  C_5
REMARK                            x       y       z     vdW  Elec       q    Type
REMARK                         _______ _______ _______ _____ _____    ______ ____
ROOT
ATOM      1  O   UNL     1     -11.037  -4.596  20.717  0.00  0.00    +0.000 OA
ATOM      2  C   UNL     1     -10.192  -3.818  20.292  0.00  0.00    +0.000 C 
ENDROOT
BRANCH   2   3
ATOM      3  C   UNL     1      -8.936  -3.639  20.980  0.00  0.00    +0.000 C 
ATOM      4  C   UNL     1      -7.584  -3.459  21.697  0.00  0.00    +0.000 C 
ENDBRANCH   2   3
BRANCH   2   5
ATOM      5  C   UNL     1     -10.426  -3.055  19.088  0.00  0.00    +0.000 C 
ATOM      6  C   UNL     1     -10.677  -2.220  17.816  0.00  0.00    +0.000 C 
ENDBRANCH   2   5
TORSDOF 2
ENDMDL
MODEL 6
REMARK VINA RESULT:      -2.8     10.889     11.725
REMARK  Name = 7288_3Pentanone.pdbqt.pdb
REMARK  2 active torsions:
REMARK  status: ('A' for Active; 'I' for Inactive)
REMARK    1  A    between atoms: C_2  and  C_3
REMARK    2  A    between atoms: C_2  and  C_5
REMARK                            x       y       z     vdW  Elec       q    Type
REMARK                         _______ _______ _______ _____ _____    ______ ____
ROOT
ATOM      1  O   UNL     1     -19.131  -2.481  18.461  0.00  0.00    +0.000 OA
ATOM      2  C   UNL     1     -19.959  -1.790  19.042  0.00  0.00    +0.000 C 
ENDROOT
BRANCH   2   3
ATOM      3  C   UNL     1     -21.370  -1.956  18.790  0.00  0.00    +0.000 C 
ATOM      4  C   UNL     1     -22.882  -2.116  18.538  0.00  0.00    +0.000 C 
ENDBRANCH   2   3
BRANCH   2   5
ATOM      5  C   UNL     1     -19.549  -0.788  19.997  0.00  0.00    +0.000 C 
ATOM      6  C   UNL     1     -19.124   0.272  21.034  0.00  0.00    +0.000 C 
ENDBRANCH   2   5
TORSDOF 2
ENDMDL
MODEL 7
REMARK VINA RESULT:      -2.7      3.549      4.476
REMARK  Name = 7288_3Pentanone.pdbqt.pdb
REMARK  2 active torsions:
REMARK  status: ('A' for Active; 'I' for Inactive)
REMARK    1  A    between atoms: C_2  and  C_3
REMARK    2  A    between atoms: C_2  and  C_5
REMARK                            x       y       z     vdW  Elec       q    Type
REMARK                         _______ _______ _______ _____ _____    ______ ____
ROOT
ATOM      1  O   UNL     1      -9.687   0.011  20.172  0.00  0.00    +0.000 OA
ATOM      2  C   UNL     1      -9.384  -1.174  20.231  0.00  0.00    +0.000 C 
ENDROOT
BRANCH   2   3
ATOM      3  C   UNL     1     -10.032  -2.148  19.384  0.00  0.00    +0.000 C 
ATOM      4  C   UNL     1     -10.702  -3.196  18.474  0.00  0.00    +0.000 C 
ENDBRANCH   2   3
BRANCH   2   5
ATOM      5  C   UNL     1      -8.370  -1.635  21.150  0.00  0.00    +0.000 C 
ATOM      6  C   UNL     1      -7.285  -2.147  22.118  0.00  0.00    +0.000 C 
ENDBRANCH   2   5
TORSDOF 2
ENDMDL
MODEL 8
REMARK VINA RESULT:      -2.7      2.640      3.296
REMARK  Name = 7288_3Pentanone.pdbqt.pdb
REMARK  2 active torsions:
REMARK  status: ('A' for Active; 'I' for Inactive)
REMARK    1  A    between atoms: C_2  and  C_3
REMARK    2  A    between atoms: C_2  and  C_5
REMARK                            x       y       z     vdW  Elec       q    Type
REMARK                         _______ _______ _______ _____ _____    ______ ____
ROOT
ATOM      1  O   UNL     1      -9.552  -2.877  21.564  0.00  0.00    +0.000 OA
ATOM      2  C   UNL     1      -9.636  -2.311  20.481  0.00  0.00    +0.000 C 
ENDROOT
BRANCH   2   3
ATOM      3  C   UNL     1      -9.508  -0.876  20.382  0.00  0.00    +0.000 C 
ATOM      4  C   UNL     1      -9.361   0.653  20.255  0.00  0.00    +0.000 C 
ENDBRANCH   2   3
BRANCH   2   5
ATOM      5  C   UNL     1      -9.865  -3.061  19.269  0.00  0.00    +0.000 C 
ATOM      6  C   UNL     1     -10.123  -3.845  17.966  0.00  0.00    +0.000 C 
ENDBRANCH   2   5
TORSDOF 2
ENDMDL
MODEL 9
REMARK VINA RESULT:      -2.6     14.365     14.734
REMARK  Name = 7288_3Pentanone.pdbqt.pdb
REMARK  2 active torsions:
REMARK  status: ('A' for Active; 'I' for Inactive)
REMARK    1  A    between atoms: C_2  and  C_3
REMARK    2  A    between atoms: C_2  and  C_5
REMARK                            x       y       z     vdW  Elec       q    Type
REMARK                         _______ _______ _______ _____ _____    ______ ____
ROOT
ATOM      1  O   UNL     1     -21.321  -6.432  10.329  0.00  0.00    +0.000 OA
ATOM      2  C   UNL     1     -21.178  -5.315   9.845  0.00  0.00    +0.000 C 
ENDROOT
BRANCH   2   3
ATOM      3  C   UNL     1     -20.307  -5.104   8.713  0.00  0.00    +0.000 C 
ATOM      4  C   UNL     1     -19.360  -4.894   7.515  0.00  0.00    +0.000 C 
ENDBRANCH   2   3
BRANCH   2   5
ATOM      5  C   UNL     1     -21.876  -4.176  10.391  0.00  0.00    +0.000 C 
ATOM      6  C   UNL     1     -22.643  -2.969  10.969  0.00  0.00    +0.000 C 
ENDBRANCH   2   5
TORSDOF 2
ENDMDL
