MODEL 1
REMARK VINA RESULT:      -6.4      0.000      0.000
REMARK  Name = 73299_Hederagenin.pdbqt.pdb
REMARK  5 active torsions:
REMARK  status: ('A' for Active; 'I' for Inactive)
REMARK    1  A    between atoms: C_9  and  C_35
REMARK    2  A    between atoms: C_14  and  C_32
REMARK    3  A    between atoms: C_17  and  O_29
REMARK    4  A    between atoms: C_32  and  O_33
REMARK    5  A    between atoms: C_35  and  O_36
REMARK                            x       y       z     vdW  Elec       q    Type
REMARK                         _______ _______ _______ _____ _____    ______ ____
ROOT
ATOM      1  C   UNL     1     -11.858  -4.620  24.750  0.00  0.00    +0.000 C 
ATOM      2  C   UNL     1     -11.475  -4.102  26.199  0.00  0.00    +0.000 C 
ATOM      3  C   UNL     1     -12.199  -4.547  27.474  0.00  0.00    +0.000 C 
ATOM      4  C   UNL     1     -11.797  -3.413  23.618  0.00  0.00    +0.000 C 
ATOM      5  C   UNL     1     -13.721  -4.852  27.354  0.00  0.00    +0.000 C 
ATOM      6  C   UNL     1     -13.216  -5.160  24.877  0.00  0.00    +0.000 C 
ATOM      7  C   UNL     1     -14.119  -5.286  26.058  0.00  0.00    +0.000 C 
ATOM      8  C   UNL     1     -10.418  -2.559  23.704  0.00  0.00    +0.000 C 
ATOM      9  C   UNL     1     -14.744  -4.462  28.434  0.00  0.00    +0.000 C 
ATOM     10  C   UNL     1      -9.635  -2.101  22.535  0.00  0.00    +0.000 C 
ATOM     11  C   UNL     1     -10.440  -3.114  26.165  0.00  0.00    +0.000 C 
ATOM     12  C   UNL     1     -12.100  -3.504  28.489  0.00  0.00    +0.000 C 
ATOM     13  C   UNL     1     -11.811  -3.908  22.229  0.00  0.00    +0.000 C 
ATOM     14  C   UNL     1      -9.591  -2.919  21.103  0.00  0.00    +0.000 C 
ATOM     15  C   UNL     1     -10.844  -5.785  24.401  0.00  0.00    +0.000 C 
ATOM     16  C   UNL     1     -10.847  -3.668  21.090  0.00  0.00    +0.000 C 
ATOM     17  C   UNL     1     -14.241  -3.663  29.666  0.00  0.00    +0.000 C 
ATOM     18  C   UNL     1      -9.964  -2.427  24.917  0.00  0.00    +0.000 C 
ATOM     19  C   UNL     1     -11.509  -5.841  27.977  0.00  0.00    +0.000 C 
ATOM     20  C   UNL     1     -12.996  -3.016  29.578  0.00  0.00    +0.000 C 
ATOM     21  C   UNL     1     -12.959  -2.345  23.815  0.00  0.00    +0.000 C 
ATOM     22  C   UNL     1      -9.332  -0.673  22.430  0.00  0.00    +0.000 C 
ATOM     23  C   UNL     1      -9.466  -1.847  20.079  0.00  0.00    +0.000 C 
ATOM     24  C   UNL     1      -9.106   0.473  21.470  0.00  0.00    +0.000 C 
ATOM     25  C   UNL     1     -15.440  -5.762  28.957  0.00  0.00    +0.000 C 
ATOM     26  C   UNL     1      -9.228  -0.320  20.205  0.00  0.00    +0.000 C 
ATOM     27  C   UNL     1     -10.218   1.530  21.594  0.00  0.00    +0.000 C 
ATOM     28  C   UNL     1      -7.700   1.078  21.637  0.00  0.00    +0.000 C 
ENDROOT
BRANCH  17  29
ATOM     29  O   UNL     1     -14.826  -3.823  30.911  0.00  0.00    +0.000 OA
ATOM     30  H   UNL     1     -14.290  -4.419  31.474  0.00  0.00    +0.000 HD
ENDBRANCH  17  29
BRANCH  14  32
ATOM     31  O   UNL     1      -7.334  -3.631  21.786  0.00  0.00    +0.000 OA
ATOM     32  C   UNL     1      -8.344  -3.812  21.119  0.00  0.00    +0.000 C 
BRANCH  32  33
ATOM     33  O   UNL     1      -8.387  -4.845  20.248  0.00  0.00    +0.000 OA
ATOM     34  H   UNL     1      -7.518  -5.291  20.338  0.00  0.00    +0.000 HD
ENDBRANCH  32  33
ENDBRANCH  14  32
BRANCH   9  35
ATOM     35  C   UNL     1     -15.768  -3.580  27.789  0.00  0.00    +0.000 C 
BRANCH  35  36
ATOM     36  O   UNL     1     -16.683  -2.803  27.203  0.00  0.00    +0.000 OA
ATOM     37  H   UNL     1     -16.548  -1.865  27.436  0.00  0.00    +0.000 HD
ENDBRANCH  35  36
ENDBRANCH   9  35
TORSDOF 5
ENDMDL
MODEL 2
REMARK VINA RESULT:      -6.4     18.921     22.081
REMARK  Name = 73299_Hederagenin.pdbqt.pdb
REMARK  5 active torsions:
REMARK  status: ('A' for Active; 'I' for Inactive)
REMARK    1  A    between atoms: C_9  and  C_35
REMARK    2  A    between atoms: C_14  and  C_32
REMARK    3  A    between atoms: C_17  and  O_29
REMARK    4  A    between atoms: C_32  and  O_33
REMARK    5  A    between atoms: C_35  and  O_36
REMARK                            x       y       z     vdW  Elec       q    Type
REMARK                         _______ _______ _______ _____ _____    ______ ____
ROOT
ATOM      1  C   UNL     1       7.255  -7.512  13.757  0.00  0.00    +0.000 C 
ATOM      2  C   UNL     1       5.990  -6.570  13.592  0.00  0.00    +0.000 C 
ATOM      3  C   UNL     1       6.019  -5.062  13.865  0.00  0.00    +0.000 C 
ATOM      4  C   UNL     1       6.864  -8.971  14.437  0.00  0.00    +0.000 C 
ATOM      5  C   UNL     1       6.963  -4.566  14.998  0.00  0.00    +0.000 C 
ATOM      6  C   UNL     1       8.188  -6.764  14.607  0.00  0.00    +0.000 C 
ATOM      7  C   UNL     1       8.096  -5.402  15.208  0.00  0.00    +0.000 C 
ATOM      8  C   UNL     1       5.580  -9.658  13.717  0.00  0.00    +0.000 C 
ATOM      9  C   UNL     1       6.581  -3.448  15.982  0.00  0.00    +0.000 C 
ATOM     10  C   UNL     1       5.464 -11.097  13.393  0.00  0.00    +0.000 C 
ATOM     11  C   UNL     1       4.811  -7.302  13.245  0.00  0.00    +0.000 C 
ATOM     12  C   UNL     1       4.688  -4.605  14.253  0.00  0.00    +0.000 C 
ATOM     13  C   UNL     1       7.923  -9.988  14.298  0.00  0.00    +0.000 C 
ATOM     14  C   UNL     1       6.765 -12.048  13.037  0.00  0.00    +0.000 C 
ATOM     15  C   UNL     1       7.873  -7.700  12.312  0.00  0.00    +0.000 C 
ATOM     16  C   UNL     1       7.881 -11.375  13.702  0.00  0.00    +0.000 C 
ATOM     17  C   UNL     1       5.157  -2.838  15.882  0.00  0.00    +0.000 C 
ATOM     18  C   UNL     1       4.692  -8.799  13.307  0.00  0.00    +0.000 C 
ATOM     19  C   UNL     1       6.459  -4.357  12.557  0.00  0.00    +0.000 C 
ATOM     20  C   UNL     1       4.172  -3.555  15.180  0.00  0.00    +0.000 C 
ATOM     21  C   UNL     1       6.456  -8.831  15.967  0.00  0.00    +0.000 C 
ATOM     22  C   UNL     1       4.300 -11.824  13.902  0.00  0.00    +0.000 C 
ATOM     23  C   UNL     1       6.396 -13.383  13.581  0.00  0.00    +0.000 C 
ATOM     24  C   UNL     1       3.800 -13.163  14.395  0.00  0.00    +0.000 C 
ATOM     25  C   UNL     1       7.613  -2.280  15.839  0.00  0.00    +0.000 C 
ATOM     26  C   UNL     1       5.072 -13.925  14.179  0.00  0.00    +0.000 C 
ATOM     27  C   UNL     1       3.416 -13.098  15.884  0.00  0.00    +0.000 C 
ATOM     28  C   UNL     1       2.655 -13.695  13.515  0.00  0.00    +0.000 C 
ENDROOT
BRANCH  17  29
ATOM     29  O   UNL     1       4.923  -1.509  16.191  0.00  0.00    +0.000 OA
ATOM     30  H   UNL     1       5.525  -0.922  15.687  0.00  0.00    +0.000 HD
ENDBRANCH  17  29
BRANCH  14  32
ATOM     31  O   UNL     1       7.358 -11.213  10.797  0.00  0.00    +0.000 OA
ATOM     32  C   UNL     1       6.899 -12.096  11.510  0.00  0.00    +0.000 C 
BRANCH  32  33
ATOM     33  O   UNL     1       6.388 -13.209  10.940  0.00  0.00    +0.000 OA
ATOM     34  H   UNL     1       6.069 -12.921  10.057  0.00  0.00    +0.000 HD
ENDBRANCH  32  33
ENDBRANCH  14  32
BRANCH   9  35
ATOM     35  C   UNL     1       6.666  -4.014  17.366  0.00  0.00    +0.000 C 
BRANCH  35  36
ATOM     36  O   UNL     1       6.726  -4.521  18.600  0.00  0.00    +0.000 OA
ATOM     37  H   UNL     1       6.981  -5.462  18.581  0.00  0.00    +0.000 HD
ENDBRANCH  35  36
ENDBRANCH   9  35
TORSDOF 5
ENDMDL
MODEL 3
REMARK VINA RESULT:      -6.4      1.790      2.398
REMARK  Name = 73299_Hederagenin.pdbqt.pdb
REMARK  5 active torsions:
REMARK  status: ('A' for Active; 'I' for Inactive)
REMARK    1  A    between atoms: C_9  and  C_35
REMARK    2  A    between atoms: C_14  and  C_32
REMARK    3  A    between atoms: C_17  and  O_29
REMARK    4  A    between atoms: C_32  and  O_33
REMARK    5  A    between atoms: C_35  and  O_36
REMARK                            x       y       z     vdW  Elec       q    Type
REMARK                         _______ _______ _______ _____ _____    ______ ____
ROOT
ATOM      1  C   UNL     1     -11.940  -4.954  24.225  0.00  0.00    +0.000 C 
ATOM      2  C   UNL     1     -11.233  -5.809  25.359  0.00  0.00    +0.000 C 
ATOM      3  C   UNL     1     -12.003  -6.605  26.418  0.00  0.00    +0.000 C 
ATOM      4  C   UNL     1     -11.169  -3.513  23.957  0.00  0.00    +0.000 C 
ATOM      5  C   UNL     1     -13.359  -6.014  26.902  0.00  0.00    +0.000 C 
ATOM      6  C   UNL     1     -13.312  -4.741  24.697  0.00  0.00    +0.000 C 
ATOM      7  C   UNL     1     -14.013  -5.208  25.929  0.00  0.00    +0.000 C 
ATOM      8  C   UNL     1      -9.564  -3.699  23.783  0.00  0.00    +0.000 C 
ATOM      9  C   UNL     1     -13.821  -6.059  28.368  0.00  0.00    +0.000 C 
ATOM     10  C   UNL     1      -8.736  -2.994  22.781  0.00  0.00    +0.000 C 
ATOM     11  C   UNL     1      -9.809  -5.680  25.327  0.00  0.00    +0.000 C 
ATOM     12  C   UNL     1     -11.193  -6.733  27.626  0.00  0.00    +0.000 C 
ATOM     13  C   UNL     1     -11.577  -2.852  22.703  0.00  0.00    +0.000 C 
ATOM     14  C   UNL     1      -9.314  -2.517  21.310  0.00  0.00    +0.000 C 
ATOM     15  C   UNL     1     -11.950  -5.851  22.920  0.00  0.00    +0.000 C 
ATOM     16  C   UNL     1     -10.753  -2.376  21.530  0.00  0.00    +0.000 C 
ATOM     17  C   UNL     1     -12.853  -6.657  29.424  0.00  0.00    +0.000 C 
ATOM     18  C   UNL     1      -9.068  -4.649  24.522  0.00  0.00    +0.000 C 
ATOM     19  C   UNL     1     -12.297  -8.008  25.828  0.00  0.00    +0.000 C 
ATOM     20  C   UNL     1     -11.494  -6.785  29.086  0.00  0.00    +0.000 C 
ATOM     21  C   UNL     1     -11.341  -2.504  25.173  0.00  0.00    +0.000 C 
ATOM     22  C   UNL     1      -7.582  -2.230  23.257  0.00  0.00    +0.000 C 
ATOM     23  C   UNL     1      -8.576  -1.257  21.024  0.00  0.00    +0.000 C 
ATOM     24  C   UNL     1      -6.716  -1.017  23.007  0.00  0.00    +0.000 C 
ATOM     25  C   UNL     1     -15.166  -6.853  28.447  0.00  0.00    +0.000 C 
ATOM     26  C   UNL     1      -7.394  -0.564  21.750  0.00  0.00    +0.000 C 
ATOM     27  C   UNL     1      -6.863   0.014  24.141  0.00  0.00    +0.000 C 
ATOM     28  C   UNL     1      -5.250  -1.413  22.759  0.00  0.00    +0.000 C 
ENDROOT
BRANCH  17  29
ATOM     29  O   UNL     1     -13.332  -7.330  30.535  0.00  0.00    +0.000 OA
ATOM     30  H   UNL     1     -13.130  -6.835  31.356  0.00  0.00    +0.000 HD
ENDBRANCH  17  29
BRANCH  14  32
ATOM     31  O   UNL     1      -9.393  -3.713  19.158  0.00  0.00    +0.000 OA
ATOM     32  C   UNL     1      -8.952  -3.608  20.295  0.00  0.00    +0.000 C 
BRANCH  32  33
ATOM     33  O   UNL     1      -8.115  -4.557  20.771  0.00  0.00    +0.000 OA
ATOM     34  H   UNL     1      -8.515  -4.848  21.619  0.00  0.00    +0.000 HD
ENDBRANCH  32  33
ENDBRANCH  14  32
BRANCH   9  35
ATOM     35  C   UNL     1     -14.055  -4.648  28.812  0.00  0.00    +0.000 C 
BRANCH  35  36
ATOM     36  O   UNL     1     -14.269  -3.386  29.194  0.00  0.00    +0.000 OA
ATOM     37  H   UNL     1     -13.529  -3.052  29.733  0.00  0.00    +0.000 HD
ENDBRANCH  35  36
ENDBRANCH   9  35
TORSDOF 5
ENDMDL
MODEL 4
REMARK VINA RESULT:      -6.2     22.971     26.691
REMARK  Name = 73299_Hederagenin.pdbqt.pdb
REMARK  5 active torsions:
REMARK  status: ('A' for Active; 'I' for Inactive)
REMARK    1  A    between atoms: C_9  and  C_35
REMARK    2  A    between atoms: C_14  and  C_32
REMARK    3  A    between atoms: C_17  and  O_29
REMARK    4  A    between atoms: C_32  and  O_33
REMARK    5  A    between atoms: C_35  and  O_36
REMARK                            x       y       z     vdW  Elec       q    Type
REMARK                         _______ _______ _______ _____ _____    ______ ____
ROOT
ATOM      1  C   UNL     1      -3.295  -6.534  -1.189  0.00  0.00    +0.000 C 
ATOM      2  C   UNL     1      -4.438  -7.271  -0.375  0.00  0.00    +0.000 C 
ATOM      3  C   UNL     1      -5.502  -8.159  -1.030  0.00  0.00    +0.000 C 
ATOM      4  C   UNL     1      -3.016  -5.001  -0.627  0.00  0.00    +0.000 C 
ATOM      5  C   UNL     1      -5.977  -7.759  -2.457  0.00  0.00    +0.000 C 
ATOM      6  C   UNL     1      -3.761  -6.511  -2.580  0.00  0.00    +0.000 C 
ATOM      7  C   UNL     1      -4.994  -7.061  -3.214  0.00  0.00    +0.000 C 
ATOM      8  C   UNL     1      -2.849  -4.961   0.989  0.00  0.00    +0.000 C 
ATOM      9  C   UNL     1      -7.442  -7.856  -2.914  0.00  0.00    +0.000 C 
ATOM     10  C   UNL     1      -1.843  -4.155   1.714  0.00  0.00    +0.000 C 
ATOM     11  C   UNL     1      -4.409  -6.944   1.018  0.00  0.00    +0.000 C 
ATOM     12  C   UNL     1      -6.713  -8.162  -0.214  0.00  0.00    +0.000 C 
ATOM     13  C   UNL     1      -1.755  -4.414  -1.118  0.00  0.00    +0.000 C 
ATOM     14  C   UNL     1      -0.366  -3.776   1.081  0.00  0.00    +0.000 C 
ATOM     15  C   UNL     1      -1.998  -7.434  -1.068  0.00  0.00    +0.000 C 
ATOM     16  C   UNL     1      -0.580  -3.837  -0.364  0.00  0.00    +0.000 C 
ATOM     17  C   UNL     1      -8.506  -8.305  -1.877  0.00  0.00    +0.000 C 
ATOM     18  C   UNL     1      -3.598  -5.826   1.610  0.00  0.00    +0.000 C 
ATOM     19  C   UNL     1      -4.924  -9.594  -1.121  0.00  0.00    +0.000 C 
ATOM     20  C   UNL     1      -8.173  -8.243  -0.512  0.00  0.00    +0.000 C 
ATOM     21  C   UNL     1      -4.222  -4.015  -0.944  0.00  0.00    +0.000 C 
ATOM     22  C   UNL     1      -2.316  -3.234   2.747  0.00  0.00    +0.000 C 
ATOM     23  C   UNL     1      -0.071  -2.428   1.636  0.00  0.00    +0.000 C 
ATOM     24  C   UNL     1      -2.057  -1.913   3.436  0.00  0.00    +0.000 C 
ATOM     25  C   UNL     1      -7.523  -8.831  -4.135  0.00  0.00    +0.000 C 
ATOM     26  C   UNL     1      -0.794  -1.570   2.706  0.00  0.00    +0.000 C 
ATOM     27  C   UNL     1      -3.181  -0.903   3.141  0.00  0.00    +0.000 C 
ATOM     28  C   UNL     1      -1.818  -2.101   4.944  0.00  0.00    +0.000 C 
ENDROOT
BRANCH  17  29
ATOM     29  O   UNL     1      -9.621  -9.029  -2.261  0.00  0.00    +0.000 OA
ATOM     30  H   UNL     1     -10.188  -8.503  -2.863  0.00  0.00    +0.000 HD
ENDBRANCH  17  29
BRANCH  14  32
ATOM     31  O   UNL     1       0.427  -6.010   1.750  0.00  0.00    +0.000 OA
ATOM     32  C   UNL     1       0.638  -4.814   1.597  0.00  0.00    +0.000 C 
BRANCH  32  33
ATOM     33  O   UNL     1       1.831  -4.300   1.967  0.00  0.00    +0.000 OA
ATOM     34  H   UNL     1       2.496  -4.782   1.430  0.00  0.00    +0.000 HD
ENDBRANCH  32  33
ENDBRANCH  14  32
BRANCH   9  35
ATOM     35  C   UNL     1      -7.872  -6.488  -3.346  0.00  0.00    +0.000 C 
BRANCH  35  36
ATOM     36  O   UNL     1      -8.258  -5.265  -3.717  0.00  0.00    +0.000 OA
ATOM     37  H   UNL     1      -7.565  -4.606  -3.527  0.00  0.00    +0.000 HD
ENDBRANCH  35  36
ENDBRANCH   9  35
TORSDOF 5
ENDMDL
MODEL 5
REMARK VINA RESULT:      -6.1     17.562     20.049
REMARK  Name = 73299_Hederagenin.pdbqt.pdb
REMARK  5 active torsions:
REMARK  status: ('A' for Active; 'I' for Inactive)
REMARK    1  A    between atoms: C_9  and  C_35
REMARK    2  A    between atoms: C_14  and  C_32
REMARK    3  A    between atoms: C_17  and  O_29
REMARK    4  A    between atoms: C_32  and  O_33
REMARK    5  A    between atoms: C_35  and  O_36
REMARK                            x       y       z     vdW  Elec       q    Type
REMARK                         _______ _______ _______ _____ _____    ______ ____
ROOT
ATOM      1  C   UNL     1     -14.041 -16.578  11.732  0.00  0.00    +0.000 C 
ATOM      2  C   UNL     1     -15.146 -17.708  11.858  0.00  0.00    +0.000 C 
ATOM      3  C   UNL     1     -16.409 -17.562  12.713  0.00  0.00    +0.000 C 
ATOM      4  C   UNL     1     -12.506 -17.200  11.738  0.00  0.00    +0.000 C 
ATOM      5  C   UNL     1     -16.286 -16.728  14.021  0.00  0.00    +0.000 C 
ATOM      6  C   UNL     1     -14.258 -15.692  12.881  0.00  0.00    +0.000 C 
ATOM      7  C   UNL     1     -15.281 -15.722  13.968  0.00  0.00    +0.000 C 
ATOM      8  C   UNL     1     -12.344 -18.442  10.704  0.00  0.00    +0.000 C 
ATOM      9  C   UNL     1     -16.981 -17.119  15.336  0.00  0.00    +0.000 C 
ATOM     10  C   UNL     1     -11.175 -18.660   9.823  0.00  0.00    +0.000 C 
ATOM     11  C   UNL     1     -14.784 -18.900  11.154  0.00  0.00    +0.000 C 
ATOM     12  C   UNL     1     -16.869 -18.879  13.144  0.00  0.00    +0.000 C 
ATOM     13  C   UNL     1     -11.480 -16.240  11.288  0.00  0.00    +0.000 C 
ATOM     14  C   UNL     1     -10.258 -17.428   9.221  0.00  0.00    +0.000 C 
ATOM     15  C   UNL     1     -14.339 -15.799  10.386  0.00  0.00    +0.000 C 
ATOM     16  C   UNL     1     -10.453 -16.345  10.186  0.00  0.00    +0.000 C 
ATOM     17  C   UNL     1     -17.781 -18.448  15.376  0.00  0.00    +0.000 C 
ATOM     18  C   UNL     1     -13.414 -19.177  10.603  0.00  0.00    +0.000 C 
ATOM     19  C   UNL     1     -17.493 -16.886  11.835  0.00  0.00    +0.000 C 
ATOM     20  C   UNL     1     -17.541 -19.401  14.370  0.00  0.00    +0.000 C 
ATOM     21  C   UNL     1     -12.101 -17.787  13.159  0.00  0.00    +0.000 C 
ATOM     22  C   UNL     1     -10.485 -19.948   9.905  0.00  0.00    +0.000 C 
ATOM     23  C   UNL     1      -8.886 -17.997   9.155  0.00  0.00    +0.000 C 
ATOM     24  C   UNL     1      -9.147 -20.641   9.780  0.00  0.00    +0.000 C 
ATOM     25  C   UNL     1     -17.950 -15.965  15.755  0.00  0.00    +0.000 C 
ATOM     26  C   UNL     1      -8.352 -19.436   9.379  0.00  0.00    +0.000 C 
ATOM     27  C   UNL     1      -8.686 -21.207  11.135  0.00  0.00    +0.000 C 
ATOM     28  C   UNL     1      -9.168 -21.711   8.674  0.00  0.00    +0.000 C 
ENDROOT
BRANCH  17  29
ATOM     29  O   UNL     1     -18.906 -18.584  16.171  0.00  0.00    +0.000 OA
ATOM     30  H   UNL     1     -18.856 -17.991  16.949  0.00  0.00    +0.000 HD
ENDBRANCH  17  29
BRANCH  14  32
ATOM     31  O   UNL     1     -10.400 -17.597   6.768  0.00  0.00    +0.000 OA
ATOM     32  C   UNL     1     -10.786 -17.101   7.819  0.00  0.00    +0.000 C 
BRANCH  32  33
ATOM     33  O   UNL     1     -11.715 -16.121   7.787  0.00  0.00    +0.000 OA
ATOM     34  H   UNL     1     -11.700 -15.725   8.685  0.00  0.00    +0.000 HD
ENDBRANCH  32  33
ENDBRANCH  14  32
BRANCH   9  35
ATOM     35  C   UNL     1     -15.918 -17.273  16.380  0.00  0.00    +0.000 C 
BRANCH  35  36
ATOM     36  O   UNL     1     -14.968 -17.396  17.311  0.00  0.00    +0.000 OA
ATOM     37  H   UNL     1     -15.029 -18.258  17.762  0.00  0.00    +0.000 HD
ENDBRANCH  35  36
ENDBRANCH   9  35
TORSDOF 5
ENDMDL
MODEL 6
REMARK VINA RESULT:      -6.1     17.232     20.223
REMARK  Name = 73299_Hederagenin.pdbqt.pdb
REMARK  5 active torsions:
REMARK  status: ('A' for Active; 'I' for Inactive)
REMARK    1  A    between atoms: C_9  and  C_35
REMARK    2  A    between atoms: C_14  and  C_32
REMARK    3  A    between atoms: C_17  and  O_29
REMARK    4  A    between atoms: C_32  and  O_33
REMARK    5  A    between atoms: C_35  and  O_36
REMARK                            x       y       z     vdW  Elec       q    Type
REMARK                         _______ _______ _______ _____ _____    ______ ____
ROOT
ATOM      1  C   UNL     1       4.684 -14.108  16.861  0.00  0.00    +0.000 C 
ATOM      2  C   UNL     1       4.313 -13.184  18.095  0.00  0.00    +0.000 C 
ATOM      3  C   UNL     1       3.728 -13.722  19.406  0.00  0.00    +0.000 C 
ATOM      4  C   UNL     1       4.269 -13.416  15.415  0.00  0.00    +0.000 C 
ATOM      5  C   UNL     1       2.788 -14.958  19.307  0.00  0.00    +0.000 C 
ATOM      6  C   UNL     1       3.951 -15.361  17.078  0.00  0.00    +0.000 C 
ATOM      7  C   UNL     1       3.060 -15.799  18.192  0.00  0.00    +0.000 C 
ATOM      8  C   UNL     1       4.777 -11.877  15.303  0.00  0.00    +0.000 C 
ATOM      9  C   UNL     1       1.517 -15.118  20.158  0.00  0.00    +0.000 C 
ATOM     10  C   UNL     1       5.372 -11.270  14.092  0.00  0.00    +0.000 C 
ATOM     11  C   UNL     1       4.506 -11.796  17.810  0.00  0.00    +0.000 C 
ATOM     12  C   UNL     1       2.927 -12.686  20.051  0.00  0.00    +0.000 C 
ATOM     13  C   UNL     1       4.891 -14.070  14.249  0.00  0.00    +0.000 C 
ATOM     14  C   UNL     1       6.245 -12.132  12.988  0.00  0.00    +0.000 C 
ATOM     15  C   UNL     1       6.242 -14.373  16.944  0.00  0.00    +0.000 C 
ATOM     16  C   UNL     1       5.750 -13.500  13.144  0.00  0.00    +0.000 C 
ATOM     17  C   UNL     1       1.118 -13.955  21.106  0.00  0.00    +0.000 C 
ATOM     18  C   UNL     1       4.750 -11.237  16.437  0.00  0.00    +0.000 C 
ATOM     19  C   UNL     1       4.915 -14.118  20.321  0.00  0.00    +0.000 C 
ATOM     20  C   UNL     1       1.691 -12.690  20.887  0.00  0.00    +0.000 C 
ATOM     21  C   UNL     1       2.693 -13.348  15.210  0.00  0.00    +0.000 C 
ATOM     22  C   UNL     1       4.762 -10.049  13.564  0.00  0.00    +0.000 C 
ATOM     23  C   UNL     1       5.936 -11.475  11.690  0.00  0.00    +0.000 C 
ATOM     24  C   UNL     1       4.468  -9.259  12.310  0.00  0.00    +0.000 C 
ATOM     25  C   UNL     1       1.651 -16.415  21.022  0.00  0.00    +0.000 C 
ATOM     26  C   UNL     1       5.160 -10.176  11.349  0.00  0.00    +0.000 C 
ATOM     27  C   UNL     1       2.954  -9.183  12.042  0.00  0.00    +0.000 C 
ATOM     28  C   UNL     1       5.127  -7.869  12.353  0.00  0.00    +0.000 C 
ENDROOT
BRANCH  17  29
ATOM     29  O   UNL     1       0.473 -14.199  22.307  0.00  0.00    +0.000 OA
ATOM     30  H   UNL     1      -0.499 -14.134  22.200  0.00  0.00    +0.000 HD
ENDBRANCH  17  29
BRANCH  14  32
ATOM     31  O   UNL     1       8.636 -11.718  12.565  0.00  0.00    +0.000 OA
ATOM     32  C   UNL     1       7.728 -11.973  13.345  0.00  0.00    +0.000 C 
BRANCH  32  33
ATOM     33  O   UNL     1       8.018 -12.212  14.644  0.00  0.00    +0.000 OA
ATOM     34  H   UNL     1       8.165 -13.181  14.698  0.00  0.00    +0.000 HD
ENDBRANCH  32  33
ENDBRANCH  14  32
BRANCH   9  35
ATOM     35  C   UNL     1       0.360 -15.268  19.220  0.00  0.00    +0.000 C 
BRANCH  35  36
ATOM     36  O   UNL     1      -0.675 -15.416  18.388  0.00  0.00    +0.000 OA
ATOM     37  H   UNL     1      -1.487 -15.646  18.875  0.00  0.00    +0.000 HD
ENDBRANCH  35  36
ENDBRANCH   9  35
TORSDOF 5
ENDMDL
MODEL 7
REMARK VINA RESULT:      -6.0     19.800     21.917
REMARK  Name = 73299_Hederagenin.pdbqt.pdb
REMARK  5 active torsions:
REMARK  status: ('A' for Active; 'I' for Inactive)
REMARK    1  A    between atoms: C_9  and  C_35
REMARK    2  A    between atoms: C_14  and  C_32
REMARK    3  A    between atoms: C_17  and  O_29
REMARK    4  A    between atoms: C_32  and  O_33
REMARK    5  A    between atoms: C_35  and  O_36
REMARK                            x       y       z     vdW  Elec       q    Type
REMARK                         _______ _______ _______ _____ _____    ______ ____
ROOT
ATOM      1  C   UNL     1       4.999 -15.468  15.237  0.00  0.00    +0.000 C 
ATOM      2  C   UNL     1       3.824 -15.337  16.294  0.00  0.00    +0.000 C 
ATOM      3  C   UNL     1       3.242 -16.529  17.061  0.00  0.00    +0.000 C 
ATOM      4  C   UNL     1       4.758 -14.506  13.911  0.00  0.00    +0.000 C 
ATOM      5  C   UNL     1       3.202 -17.897  16.320  0.00  0.00    +0.000 C 
ATOM      6  C   UNL     1       5.030 -16.887  14.864  0.00  0.00    +0.000 C 
ATOM      7  C   UNL     1       4.217 -18.047  15.335  0.00  0.00    +0.000 C 
ATOM      8  C   UNL     1       4.363 -12.984  14.320  0.00  0.00    +0.000 C 
ATOM      9  C   UNL     1       2.025 -18.881  16.435  0.00  0.00    +0.000 C 
ATOM     10  C   UNL     1       4.885 -11.770  13.656  0.00  0.00    +0.000 C 
ATOM     11  C   UNL     1       3.319 -14.001  16.379  0.00  0.00    +0.000 C 
ATOM     12  C   UNL     1       1.856 -16.254  17.426  0.00  0.00    +0.000 C 
ATOM     13  C   UNL     1       5.963 -14.339  13.078  0.00  0.00    +0.000 C 
ATOM     14  C   UNL     1       6.378 -11.695  12.958  0.00  0.00    +0.000 C 
ATOM     15  C   UNL     1       6.335 -15.079  15.992  0.00  0.00    +0.000 C 
ATOM     16  C   UNL     1       6.676 -13.087  12.622  0.00  0.00    +0.000 C 
ATOM     17  C   UNL     1       0.790 -18.453  17.272  0.00  0.00    +0.000 C 
ATOM     18  C   UNL     1       3.642 -12.908  15.401  0.00  0.00    +0.000 C 
ATOM     19  C   UNL     1       4.096 -16.724  18.341  0.00  0.00    +0.000 C 
ATOM     20  C   UNL     1       0.628 -17.089  17.571  0.00  0.00    +0.000 C 
ATOM     21  C   UNL     1       3.553 -15.018  13.008  0.00  0.00    +0.000 C 
ATOM     22  C   UNL     1       3.917 -10.808  13.126  0.00  0.00    +0.000 C 
ATOM     23  C   UNL     1       6.192 -10.776  11.803  0.00  0.00    +0.000 C 
ATOM     24  C   UNL     1       3.658  -9.790  12.040  0.00  0.00    +0.000 C 
ATOM     25  C   UNL     1       2.555 -20.232  17.020  0.00  0.00    +0.000 C 
ATOM     26  C   UNL     1       4.995  -9.890  11.371  0.00  0.00    +0.000 C 
ATOM     27  C   UNL     1       2.517 -10.245  11.112  0.00  0.00    +0.000 C 
ATOM     28  C   UNL     1       3.413  -8.389  12.628  0.00  0.00    +0.000 C 
ENDROOT
BRANCH  17  29
ATOM     29  O   UNL     1       0.038 -19.384  17.968  0.00  0.00    +0.000 OA
ATOM     30  H   UNL     1       0.093 -20.265  17.542  0.00  0.00    +0.000 HD
ENDBRANCH  17  29
BRANCH  14  32
ATOM     31  O   UNL     1       7.882 -11.693  14.909  0.00  0.00    +0.000 OA
ATOM     32  C   UNL     1       7.341 -11.093  13.989  0.00  0.00    +0.000 C 
BRANCH  32  33
ATOM     33  O   UNL     1       7.523  -9.760  13.870  0.00  0.00    +0.000 OA
ATOM     34  H   UNL     1       8.265  -9.547  14.476  0.00  0.00    +0.000 HD
ENDBRANCH  32  33
ENDBRANCH  14  32
BRANCH   9  35
ATOM     35  C   UNL     1       1.496 -19.116  15.054  0.00  0.00    +0.000 C 
BRANCH  35  36
ATOM     36  O   UNL     1       1.038 -19.322  13.816  0.00  0.00    +0.000 OA
ATOM     37  H   UNL     1       1.434 -20.122  13.424  0.00  0.00    +0.000 HD
ENDBRANCH  35  36
ENDBRANCH   9  35
TORSDOF 5
ENDMDL
MODEL 8
REMARK VINA RESULT:      -6.0      2.775      8.206
REMARK  Name = 73299_Hederagenin.pdbqt.pdb
REMARK  5 active torsions:
REMARK  status: ('A' for Active; 'I' for Inactive)
REMARK    1  A    between atoms: C_9  and  C_35
REMARK    2  A    between atoms: C_14  and  C_32
REMARK    3  A    between atoms: C_17  and  O_29
REMARK    4  A    between atoms: C_32  and  O_33
REMARK    5  A    between atoms: C_35  and  O_36
REMARK                            x       y       z     vdW  Elec       q    Type
REMARK                         _______ _______ _______ _____ _____    ______ ____
ROOT
ATOM      1  C   UNL     1      -9.756  -1.820  23.199  0.00  0.00    +0.000 C 
ATOM      2  C   UNL     1      -9.198  -0.888  24.355  0.00  0.00    +0.000 C 
ATOM      3  C   UNL     1      -8.300   0.327  24.100  0.00  0.00    +0.000 C 
ATOM      4  C   UNL     1      -9.724  -3.422  23.617  0.00  0.00    +0.000 C 
ATOM      5  C   UNL     1      -7.309   0.236  22.903  0.00  0.00    +0.000 C 
ATOM      6  C   UNL     1      -8.897  -1.557  22.040  0.00  0.00    +0.000 C 
ATOM      7  C   UNL     1      -7.752  -0.619  21.856  0.00  0.00    +0.000 C 
ATOM      8  C   UNL     1     -10.365  -3.686  25.087  0.00  0.00    +0.000 C 
ATOM      9  C   UNL     1      -5.874   0.787  22.956  0.00  0.00    +0.000 C 
ATOM     10  C   UNL     1     -11.257  -4.815  25.428  0.00  0.00    +0.000 C 
ATOM     11  C   UNL     1      -9.559  -1.364  25.656  0.00  0.00    +0.000 C 
ATOM     12  C   UNL     1      -7.462   0.576  25.269  0.00  0.00    +0.000 C 
ATOM     13  C   UNL     1     -10.533  -4.278  22.730  0.00  0.00    +0.000 C 
ATOM     14  C   UNL     1     -12.279  -5.517  24.339  0.00  0.00    +0.000 C 
ATOM     15  C   UNL     1     -11.233  -1.335  22.898  0.00  0.00    +0.000 C 
ATOM     16  C   UNL     1     -11.655  -5.239  23.046  0.00  0.00    +0.000 C 
ATOM     17  C   UNL     1      -5.371   1.395  24.293  0.00  0.00    +0.000 C 
ATOM     18  C   UNL     1     -10.141  -2.721  25.932  0.00  0.00    +0.000 C 
ATOM     19  C   UNL     1      -9.223   1.546  23.843  0.00  0.00    +0.000 C 
ATOM     20  C   UNL     1      -6.077   1.093  25.471  0.00  0.00    +0.000 C 
ATOM     21  C   UNL     1      -8.242  -3.992  23.702  0.00  0.00    +0.000 C 
ATOM     22  C   UNL     1     -10.876  -5.678  26.547  0.00  0.00    +0.000 C 
ATOM     23  C   UNL     1     -12.314  -6.948  24.747  0.00  0.00    +0.000 C 
ATOM     24  C   UNL     1     -10.927  -7.086  27.094  0.00  0.00    +0.000 C 
ATOM     25  C   UNL     1      -5.713   1.876  21.844  0.00  0.00    +0.000 C 
ATOM     26  C   UNL     1     -11.738  -7.684  25.984  0.00  0.00    +0.000 C 
ATOM     27  C   UNL     1      -9.520  -7.704  27.172  0.00  0.00    +0.000 C 
ATOM     28  C   UNL     1     -11.669  -7.141  28.441  0.00  0.00    +0.000 C 
ENDROOT
BRANCH  17  29
ATOM     29  O   UNL     1      -4.462   2.440  24.307  0.00  0.00    +0.000 OA
ATOM     30  H   UNL     1      -3.759   2.280  24.971  0.00  0.00    +0.000 HD
ENDBRANCH  17  29
BRANCH  14  32
ATOM     31  O   UNL     1     -14.248  -4.690  25.566  0.00  0.00    +0.000 OA
ATOM     32  C   UNL     1     -13.656  -4.863  24.509  0.00  0.00    +0.000 C 
BRANCH  32  33
ATOM     33  O   UNL     1     -14.259  -4.526  23.348  0.00  0.00    +0.000 OA
ATOM     34  H   UNL     1     -13.594  -4.709  22.651  0.00  0.00    +0.000 HD
ENDBRANCH  32  33
ENDBRANCH  14  32
BRANCH   9  35
ATOM     35  C   UNL     1      -4.943  -0.350  22.672  0.00  0.00    +0.000 C 
BRANCH  35  36
ATOM     36  O   UNL     1      -4.123  -1.373  22.413  0.00  0.00    +0.000 OA
ATOM     37  H   UNL     1      -3.271  -1.264  22.872  0.00  0.00    +0.000 HD
ENDBRANCH  35  36
ENDBRANCH   9  35
TORSDOF 5
ENDMDL
MODEL 9
REMARK VINA RESULT:      -6.0     16.777     18.575
REMARK  Name = 73299_Hederagenin.pdbqt.pdb
REMARK  5 active torsions:
REMARK  status: ('A' for Active; 'I' for Inactive)
REMARK    1  A    between atoms: C_9  and  C_35
REMARK    2  A    between atoms: C_14  and  C_32
REMARK    3  A    between atoms: C_17  and  O_29
REMARK    4  A    between atoms: C_32  and  O_33
REMARK    5  A    between atoms: C_35  and  O_36
REMARK                            x       y       z     vdW  Elec       q    Type
REMARK                         _______ _______ _______ _____ _____    ______ ____
ROOT
ATOM      1  C   UNL     1     -22.936  -5.816  11.971  0.00  0.00    +0.000 C 
ATOM      2  C   UNL     1     -23.463  -4.449  12.578  0.00  0.00    +0.000 C 
ATOM      3  C   UNL     1     -24.042  -4.320  13.991  0.00  0.00    +0.000 C 
ATOM      4  C   UNL     1     -23.360  -5.998  10.380  0.00  0.00    +0.000 C 
ATOM      5  C   UNL     1     -24.834  -5.541  14.545  0.00  0.00    +0.000 C 
ATOM      6  C   UNL     1     -23.533  -6.866  12.803  0.00  0.00    +0.000 C 
ATOM      7  C   UNL     1     -24.420  -6.788  14.001  0.00  0.00    +0.000 C 
ATOM      8  C   UNL     1     -23.022  -4.676   9.499  0.00  0.00    +0.000 C 
ATOM      9  C   UNL     1     -26.116  -5.401  15.383  0.00  0.00    +0.000 C 
ATOM     10  C   UNL     1     -22.444  -4.694   8.138  0.00  0.00    +0.000 C 
ATOM     11  C   UNL     1     -23.412  -3.379  11.628  0.00  0.00    +0.000 C 
ATOM     12  C   UNL     1     -24.982  -3.204  14.040  0.00  0.00    +0.000 C 
ATOM     13  C   UNL     1     -22.617  -7.070   9.693  0.00  0.00    +0.000 C 
ATOM     14  C   UNL     1     -21.432  -5.883   7.604  0.00  0.00    +0.000 C 
ATOM     15  C   UNL     1     -21.363  -5.815  12.149  0.00  0.00    +0.000 C 
ATOM     16  C   UNL     1     -21.778  -7.035   8.436  0.00  0.00    +0.000 C 
ATOM     17  C   UNL     1     -26.684  -3.976  15.622  0.00  0.00    +0.000 C 
ATOM     18  C   UNL     1     -23.171  -3.562  10.157  0.00  0.00    +0.000 C 
ATOM     19  C   UNL     1     -22.861  -4.059  14.960  0.00  0.00    +0.000 C 
ATOM     20  C   UNL     1     -26.246  -2.934  14.785  0.00  0.00    +0.000 C 
ATOM     21  C   UNL     1     -24.922  -6.231  10.198  0.00  0.00    +0.000 C 
ATOM     22  C   UNL     1     -23.162  -3.986   7.078  0.00  0.00    +0.000 C 
ATOM     23  C   UNL     1     -21.754  -6.009   6.157  0.00  0.00    +0.000 C 
ATOM     24  C   UNL     1     -23.485  -3.974   5.601  0.00  0.00    +0.000 C 
ATOM     25  C   UNL     1     -25.877  -6.062  16.780  0.00  0.00    +0.000 C 
ATOM     26  C   UNL     1     -22.653  -5.160   5.221  0.00  0.00    +0.000 C 
ATOM     27  C   UNL     1     -24.985  -4.224   5.358  0.00  0.00    +0.000 C 
ATOM     28  C   UNL     1     -22.988  -2.683   4.926  0.00  0.00    +0.000 C 
ENDROOT
BRANCH  17  29
ATOM     29  O   UNL     1     -27.351  -3.658  16.793  0.00  0.00    +0.000 OA
ATOM     30  H   UNL     1     -27.539  -4.465  17.317  0.00  0.00    +0.000 HD
ENDBRANCH  17  29
BRANCH  14  32
ATOM     31  O   UNL     1     -19.478  -5.082   8.873  0.00  0.00    +0.000 OA
ATOM     32  C   UNL     1     -19.993  -5.391   7.806  0.00  0.00    +0.000 C 
BRANCH  32  33
ATOM     33  O   UNL     1     -19.291  -5.236   6.662  0.00  0.00    +0.000 OA
ATOM     34  H   UNL     1     -19.353  -4.280   6.451  0.00  0.00    +0.000 HD
ENDBRANCH  32  33
ENDBRANCH  14  32
BRANCH   9  35
ATOM     35  C   UNL     1     -27.205  -6.139  14.668  0.00  0.00    +0.000 C 
BRANCH  35  36
ATOM     36  O   UNL     1     -28.175  -6.789  14.018  0.00  0.00    +0.000 OA
ATOM     37  H   UNL     1     -27.812  -7.315  13.282  0.00  0.00    +0.000 HD
ENDBRANCH  35  36
ENDBRANCH   9  35
TORSDOF 5
ENDMDL
